# generated using pymatgen
data_H32C45(N2O)4
_symmetry_space_group_name_H-M   'P 1'
_cell_length_a   34.99575000
_cell_length_b   34.99580000
_cell_length_c   101.02800000
_cell_angle_alpha   90.00000000
_cell_angle_beta   90.00000000
_cell_angle_gamma   120.00014179
_symmetry_Int_Tables_number   1
_chemical_formula_structural   H32C45(N2O)4
_chemical_formula_sum   'H384 C540 N96 O48'
_cell_volume   107152.67022239
_cell_formula_units_Z   12
loop_
 _symmetry_equiv_pos_site_id
 _symmetry_equiv_pos_as_xyz
  1  'x, y, z'
loop_
 _atom_site_type_symbol
 _atom_site_label
 _atom_site_symmetry_multiplicity
 _atom_site_fract_x
 _atom_site_fract_y
 _atom_site_fract_z
 _atom_site_occupancy
  H  25  1  0.32578600  0.64833400  0.94833200  1
  H  26  1  0.31135200  0.65449100  0.92574600  1
  H  27  1  0.35396700  0.68693700  0.87975200  1
  H  28  1  0.40628600  0.71218700  0.86220100  1
  H  29  1  0.50966600  0.75642700  0.88985900  1
  H  30  1  0.46211500  0.71740600  0.94068900  1
  H  31  1  0.43650200  0.79637300  0.91009000  1
  H  32  1  0.55050600  0.90405500  0.92608500  1
  H  33  1  0.58180600  0.85901200  0.92966700  1
  H  34  1  0.43811500  0.64286300  0.90819000  1
  H  35  1  0.58742700  0.72599000  0.92507500  1
  H  36  1  0.55754700  0.65073200  0.91966100  1
  H  39  1  0.34210000  0.65379800  0.90298300  1
  H  40  1  0.34771800  0.70678800  0.90479300  1
  H  42  1  0.58383100  0.79445200  0.91842100  1
  H  43  1  0.56000000  0.77774700  0.93440300  1
  H  72  1  0.30297500  0.65863900  0.28161900  1
  H  73  1  0.32351400  0.67310400  0.25903100  1
  H  74  1  0.31341600  0.63053300  0.21303600  1
  H  75  1  0.28642400  0.57821900  0.19548300  1
  H  76  1  0.22736400  0.47481300  0.22313700  1
  H  77  1  0.23590800  0.52231100  0.27397300  1
  H  78  1  0.34044600  0.54801200  0.24338700  1
  H  79  1  0.33412100  0.43394500  0.25933000  1
  H  80  1  0.25776400  0.40259600  0.26288900  1
  H  81  1  0.18531800  0.54638700  0.24150500  1
  H  82  1  0.11909700  0.39693100  0.25827100  1
  H  83  1  0.07372000  0.42683700  0.25287800  1
  H  86  1  0.29205800  0.64231800  0.23627000  1
  H  87  1  0.33951200  0.63683500  0.23807300  1
  H  89  1  0.19120900  0.40061800  0.25162600  1
  H  90  1  0.19824300  0.42430700  0.26762500  1
  H  119  1  0.33616200  0.68128800  0.61493400  1
  H  120  1  0.33000000  0.66071000  0.59234800  1
  H  121  1  0.29751800  0.67083500  0.54636100  1
  H  122  1  0.27233400  0.69794900  0.52880500  1
  H  123  1  0.22818500  0.75719800  0.55645500  1
  H  124  1  0.26708900  0.74855500  0.60729900  1
  H  125  1  0.18816300  0.64403500  0.57670100  1
  H  126  1  0.08048900  0.65039300  0.59268600  1
  H  127  1  0.12553800  0.72673100  0.59626200  1
  H  128  1  0.34168500  0.79914000  0.57479500  1
  H  129  1  0.25859900  0.86534900  0.59169600  1
  H  130  1  0.33385900  0.91071500  0.58628200  1
  H  133  1  0.33068000  0.69212500  0.56958700  1
  H  134  1  0.27767600  0.64478000  0.57140300  1
  H  136  1  0.19013700  0.79332000  0.58502100  1
  H  137  1  0.20678300  0.78616000  0.60100700  1
  H  166  1  0.64858500  0.34388500  0.94708000  1
  H  167  1  0.66348900  0.33809100  0.92451200  1
  H  168  1  0.62171100  0.30490100  0.87851200  1
  H  169  1  0.56966500  0.27893800  0.86089000  1
  H  170  1  0.46573800  0.23343000  0.88839100  1
  H  171  1  0.51234900  0.27359000  0.93926400  1
  H  172  1  0.53906500  0.19477000  0.90840500  1
  H  173  1  0.42816400  0.08762700  0.92595600  1
  H  174  1  0.39617400  0.13210800  0.92956300  1
  H  175  1  0.53540200  0.34770300  0.90699200  1
  H  176  1  0.38266200  0.25902100  0.92047800  1
  H  177  1  0.41022300  0.33311500  0.91420300  1
  H  180  1  0.63279100  0.33819100  0.90167900  1
  H  181  1  0.62794000  0.28555900  0.90361100  1
  H  183  1  0.39120300  0.19300200  0.91679600  1
  H  184  1  0.41429400  0.21288300  0.93269800  1
  H  213  1  0.67602000  0.33586300  0.28040100  1
  H  214  1  0.65540200  0.32095600  0.25782700  1
  H  215  1  0.66399400  0.36276800  0.21183100  1
  H  216  1  0.68996300  0.41484300  0.19421500  1
  H  217  1  0.74818300  0.51874500  0.22173000  1
  H  218  1  0.74174300  0.47210400  0.27260000  1
  H  219  1  0.63628700  0.44537500  0.24172900  1
  H  220  1  0.63999400  0.55622800  0.25930000  1
  H  221  1  0.71646100  0.58823000  0.26290800  1
  H  222  1  0.79291700  0.44909100  0.24032700  1
  H  223  1  0.85691100  0.60180900  0.25382500  1
  H  224  1  0.90347500  0.57427600  0.24755500  1
  H  227  1  0.68626500  0.35174300  0.23500000  1
  H  228  1  0.63838300  0.35642300  0.23692200  1
  H  230  1  0.78233300  0.59324200  0.25013600  1
  H  231  1  0.77914000  0.57015300  0.26603800  1
  H  260  1  0.64042700  0.30864100  0.61371100  1
  H  261  1  0.64616000  0.32922200  0.59113600  1
  H  262  1  0.67944300  0.32061700  0.54515100  1
  H  263  1  0.70551000  0.29458700  0.52754000  1
  H  264  1  0.75110000  0.23631400  0.55506600  1
  H  265  1  0.71092200  0.24287100  0.60593800  1
  H  266  1  0.78965700  0.34824700  0.57504500  1
  H  267  1  0.89678000  0.34458400  0.59265200  1
  H  268  1  0.85230000  0.26812500  0.59628000  1
  H  269  1  0.63676200  0.19163000  0.57363300  1
  H  270  1  0.72543700  0.12766100  0.58721300  1
  H  271  1  0.65137300  0.08108900  0.58091000  1
  H  274  1  0.64611400  0.29836800  0.56831400  1
  H  275  1  0.69869400  0.34622000  0.57024200  1
  H  277  1  0.79144800  0.20220500  0.58352800  1
  H  278  1  0.77151300  0.20547900  0.59941400  1
  H  307  1  0.67615200  0.34021200  0.36720900  1
  H  308  1  0.65470000  0.33865900  0.38956000  1
  H  309  1  0.65991100  0.31338600  0.43598900  1
  H  310  1  0.68174800  0.28859000  0.45469000  1
  H  311  1  0.74292700  0.23803700  0.42998300  1
  H  312  1  0.74099300  0.27082700  0.37770800  1
  H  313  1  0.63501900  0.19695800  0.40849500  1
  H  314  1  0.64199700  0.08878500  0.39321300  1
  H  315  1  0.71844600  0.13354200  0.38996300  1
  H  316  1  0.79052700  0.35087200  0.41003100  1
  H  317  1  0.85674200  0.26593800  0.39476400  1
  H  318  1  0.90216100  0.34147900  0.39970600  1
  H  321  1  0.68546900  0.34336500  0.41273800  1
  H  322  1  0.63708700  0.29089200  0.41125600  1
  H  324  1  0.78439300  0.19819900  0.40136500  1
  H  325  1  0.77813600  0.21429900  0.38519100  1
  H  354  1  0.64419700  0.33980400  0.03385600  1
  H  355  1  0.64582100  0.31994100  0.05620700  1
  H  356  1  0.67103700  0.35049200  0.10263500  1
  H  357  1  0.69583900  0.39715400  0.12133000  1
  H  358  1  0.74638000  0.50884800  0.09660600  1
  H  359  1  0.71345200  0.47404300  0.04434300  1
  H  360  1  0.78745800  0.44201500  0.07513400  1
  H  361  1  0.89561300  0.55718100  0.05985000  1
  H  362  1  0.85083300  0.58884900  0.05659900  1
  H  363  1  0.63350200  0.44354700  0.07666300  1
  H  364  1  0.71839600  0.59468900  0.06138600  1
  H  365  1  0.64284400  0.56454200  0.06632800  1
  H  368  1  0.64107600  0.34602000  0.07937800  1
  H  369  1  0.69356500  0.35014800  0.07790700  1
  H  371  1  0.78616200  0.59011900  0.06798500  1
  H  372  1  0.77004000  0.56772100  0.05181600  1
  H  401  1  0.64465800  0.30803100  0.70056200  1
  H  402  1  0.66457100  0.32921500  0.72293000  1
  H  403  1  0.63400300  0.32405000  0.76935500  1
  H  404  1  0.58731600  0.30230400  0.78804500  1
  H  405  1  0.47564300  0.24164200  0.76330500  1
  H  406  1  0.51042000  0.24381000  0.71102600  1
  H  407  1  0.54253000  0.34943700  0.74186500  1
  H  408  1  0.42746900  0.34255500  0.72654200  1
  H  409  1  0.39578100  0.26612500  0.72326000  1
  H  410  1  0.54088000  0.19388300  0.74334700  1
  H  411  1  0.38975700  0.12777900  0.72806400  1
  H  412  1  0.41984300  0.08232200  0.73299200  1
  H  415  1  0.63830300  0.29838000  0.74609400  1
  H  416  1  0.63457900  0.34697000  0.74463300  1
  H  418  1  0.39438500  0.20013400  0.73465800  1
  H  419  1  0.41683600  0.20641400  0.71849700  1
  H  448  1  0.29787100  0.65149600  0.36837700  1
  H  449  1  0.31911200  0.65217800  0.39070000  1
  H  450  1  0.31580000  0.67818900  0.43714600  1
  H  451  1  0.29527300  0.70389500  0.45592700  1
  H  452  1  0.23561200  0.75653100  0.43141800  1
  H  453  1  0.23541800  0.72304100  0.37910500  1
  H  454  1  0.34218300  0.79605800  0.41004500  1
  H  455  1  0.33750700  0.90420400  0.39360900  1
  H  456  1  0.26085600  0.86006300  0.39040800  1
  H  457  1  0.18514300  0.64278600  0.41101400  1
  H  458  1  0.12113000  0.73360800  0.40004100  1
  H  459  1  0.07464000  0.65897900  0.40573900  1
  H  462  1  0.28901300  0.64821500  0.41395600  1
  H  463  1  0.33813700  0.70003400  0.41236300  1
  H  465  1  0.19606100  0.79893400  0.40342300  1
  H  466  1  0.19776200  0.77977800  0.38726500  1
  H  495  1  0.33268100  0.65021700  0.03501500  1
  H  496  1  0.33181500  0.67074700  0.05732900  1
  H  497  1  0.30592500  0.64139600  0.10378200  1
  H  498  1  0.28033100  0.59514800  0.12256200  1
  H  499  1  0.22794900  0.48287000  0.09804900  1
  H  500  1  0.26156100  0.51620700  0.04575100  1
  H  501  1  0.18831100  0.54992100  0.07667100  1
  H  502  1  0.08014700  0.43703600  0.06027600  1
  H  503  1  0.12430000  0.40453600  0.05707600  1
  H  504  1  0.34161600  0.54619500  0.07764000  1
  H  505  1  0.25081200  0.39134100  0.06669500  1
  H  506  1  0.32543200  0.41948800  0.07239500  1
  H  509  1  0.33588800  0.64471700  0.08058700  1
  H  510  1  0.28395400  0.64177000  0.07899600  1
  H  512  1  0.18549300  0.40093300  0.07008400  1
  H  513  1  0.20457600  0.42174100  0.05391800  1
  H  542  1  0.33427300  0.68669100  0.70169700  1
  H  543  1  0.31366900  0.66553600  0.72402300  1
  H  544  1  0.34295100  0.66885200  0.77047800  1
  H  545  1  0.38917800  0.68938900  0.78925800  1
  H  546  1  0.50147600  0.74878600  0.76475100  1
  H  547  1  0.46825100  0.74893200  0.71243600  1
  H  548  1  0.43442500  0.64229000  0.74338400  1
  H  549  1  0.54731300  0.64694800  0.72701200  1
  H  550  1  0.57984600  0.72360500  0.72380000  1
  H  551  1  0.43820900  0.79932400  0.74432600  1
  H  552  1  0.59307000  0.86334700  0.73339300  1
  H  553  1  0.56491000  0.90983400  0.73906800  1
  H  556  1  0.33981900  0.69565500  0.74727800  1
  H  557  1  0.34242000  0.64647700  0.74570000  1
  H  559  1  0.58346000  0.78842700  0.73679800  1
  H  560  1  0.56267200  0.78668800  0.72062800  1
  H  572  1  0.51262100  0.81286100  0.81979800  1
  H  577  1  0.41782100  0.62635800  0.85970600  1
  H  578  1  0.39758900  0.57907900  0.84931400  1
  H  579  1  0.34503300  0.62296000  0.85824400  1
  H  580  1  0.33958700  0.57328400  0.86467900  1
  H  581  1  0.32482800  0.57549300  0.84799900  1
  H  583  1  0.48957200  0.69693200  0.85730100  1
  H  585  1  0.45186500  0.76479900  0.80018400  1
  H  593  1  0.28070300  0.47161200  0.15308700  1
  H  598  1  0.19099800  0.56853500  0.19278900  1
  H  599  1  0.16386400  0.58861100  0.18236700  1
  H  600  1  0.26081500  0.64075100  0.19082200  1
  H  601  1  0.21731100  0.64726800  0.19733500  1
  H  602  1  0.23348200  0.66080900  0.18055000  1
  H  604  1  0.18812300  0.49527400  0.19059100  1
  H  606  1  0.29346000  0.53287000  0.13349700  1
  H  614  1  0.17150600  0.70440500  0.48641900  1
  H  619  1  0.35921800  0.79617300  0.52635200  1
  H  620  1  0.40604600  0.82212200  0.51574500  1
  H  621  1  0.36200400  0.72639200  0.52535800  1
  H  622  1  0.41212600  0.77089900  0.53145000  1
  H  623  1  0.40900500  0.75255300  0.51489200  1
  H  625  1  0.28800600  0.79629100  0.52391900  1
  H  627  1  0.21978200  0.69091100  0.46682900  1
  H  635  1  0.46408400  0.17744500  0.81836100  1
  H  640  1  0.55698800  0.36438300  0.85830300  1
  H  641  1  0.57719200  0.41144900  0.84782200  1
  H  642  1  0.63009000  0.36835000  0.85713000  1
  H  643  1  0.63498500  0.41797700  0.86340200  1
  H  644  1  0.65024200  0.41559400  0.84679300  1
  H  646  1  0.48591200  0.29306600  0.85582800  1
  H  648  1  0.52530700  0.22618900  0.79881600  1
  H  656  1  0.69379900  0.52020900  0.15167800  1
  H  661  1  0.78612500  0.42585400  0.19149500  1
  H  662  1  0.81343000  0.40606100  0.18103700  1
  H  663  1  0.71675900  0.35314900  0.18972300  1
  H  664  1  0.76080500  0.34738500  0.19615400  1
  H  665  1  0.74427100  0.33338800  0.17941200  1
  H  667  1  0.78765100  0.49852100  0.18917900  1
  H  669  1  0.68157700  0.45868900  0.13217300  1
  H  677  1  0.80691700  0.29067600  0.48503700  1
  H  682  1  0.62004600  0.19623900  0.52504500  1
  H  683  1  0.57300700  0.16936300  0.51455300  1
  H  684  1  0.61596700  0.26531700  0.52389300  1
  H  685  1  0.56636200  0.22051600  0.53015200  1
  H  686  1  0.56874600  0.23820400  0.51354800  1
  H  688  1  0.69147300  0.19679200  0.52256500  1
  H  690  1  0.75760000  0.30293200  0.46552400  1
  H  698  1  0.43119500  0.45043900  0.92290500  1
  H  703  1  0.60033200  0.63767100  0.88906000  1
  H  704  1  0.63738100  0.61982700  0.88377500  1
  H  705  1  0.63900000  0.66049600  0.91077000  1
  H  706  1  0.67570000  0.68778100  0.89743300  1
  H  707  1  0.67630200  0.64301900  0.90551100  1
  H  709  1  0.52513500  0.60235700  0.89792100  1
  H  711  1  0.46567700  0.40426500  0.92398500  1
  H  719  1  0.99986500  0.55334400  0.25624200  1
  H  724  1  0.01714600  0.38329000  0.22277800  1
  H  725  1  0.96229300  0.34686100  0.21731800  1
  H  726  1  0.99986800  0.34475000  0.24452400  1
  H  727  1  0.99038200  0.30776700  0.23126200  1
  H  728  1  0.94512300  0.30807300  0.23910200  1
  H  730  1  0.05789900  0.45955200  0.23115400  1
  H  732  1  0.91920200  0.51884100  0.25732700  1
  H  740  1  0.53416500  0.98464200  0.58947600  1
  H  745  1  0.34671800  0.96648800  0.55574500  1
  H  746  1  0.36448600  0.02137900  0.55047800  1
  H  747  1  0.32386600  0.98221700  0.57746800  1
  H  748  1  0.29654000  0.99162800  0.56414100  1
  H  749  1  0.34127000  0.03699500  0.57222600  1
  H  751  1  0.38222200  0.92668000  0.56451800  1
  H  753  1  0.58015700  0.06533800  0.59063600  1
  H  761  1  0.97789100  0.54264400  0.39542800  1
  H  766  1  0.95800900  0.35376000  0.42811700  1
  H  767  1  0.01217700  0.37152000  0.43411100  1
  H  768  1  0.97759800  0.33403100  0.40648900  1
  H  769  1  0.98549100  0.30543800  0.41975800  1
  H  770  1  0.03167500  0.35149700  0.41243300  1
  H  772  1  0.91761200  0.39123500  0.42100000  1
  H  774  1  0.05840000  0.58907900  0.39471100  1
  H  782  1  0.44134800  0.43846700  0.06233900  1
  H  787  1  0.63097000  0.60755600  0.09510800  1
  H  788  1  0.61366300  0.64456000  0.10087500  1
  H  789  1  0.65296200  0.64729600  0.07355900  1
  H  790  1  0.68095800  0.68330000  0.08697600  1
  H  791  1  0.63594700  0.68449500  0.07928100  1
  H  793  1  0.59311800  0.53016200  0.08769800  1
  H  795  1  0.39530000  0.47307600  0.06136000  1
  H  803  1  0.54545900  0.00660000  0.72880300  1
  H  808  1  0.37715200  0.02726400  0.76179700  1
  H  809  1  0.34015400  0.97303900  0.76762100  1
  H  810  1  0.33759400  0.00911700  0.74020900  1
  H  811  1  0.30147100  0.00130400  0.75357400  1
  H  812  1  0.30038900  0.95499200  0.74599500  1
  H  814  1  0.45412000  0.06677300  0.75428800  1
  H  816  1  0.51124300  0.92604800  0.72800300  1
  H  824  1  0.42276200  0.98597400  0.89801800  1
  H  829  1  0.64688500  0.03939500  0.91171900  1
  H  830  1  0.60769500  0.01148700  0.89887100  1
  H  831  1  0.65325400  0.97218200  0.91530200  1
  H  832  1  0.66625200  0.99122600  0.89872500  1
  H  833  1  0.61424800  0.94457200  0.90247700  1
  H  835  1  0.52788400  0.92715800  0.90367100  1
  H  837  1  0.44456700  0.06093500  0.90466400  1
  H  845  1  0.54371000  0.56126100  0.23107400  1
  H  850  1  0.37432000  0.33816000  0.24518800  1
  H  851  1  0.38535000  0.37735100  0.23236100  1
  H  852  1  0.30019400  0.33064300  0.24862700  1
  H  853  1  0.30685000  0.31806100  0.23205800  1
  H  854  1  0.31135600  0.36969300  0.23583300  1
  H  856  1  0.37999300  0.45659000  0.23697900  1
  H  858  1  0.59697100  0.53984200  0.23798800  1
  H  866  1  0.99818200  0.44077900  0.56445900  1
  H  871  1  0.94449600  0.61036400  0.57847300  1
  H  872  1  0.97275000  0.59937000  0.56566700  1
  H  873  1  0.01115000  0.68440900  0.58198800  1
  H  874  1  0.99209200  0.67790900  0.56540200  1
  H  875  1  0.03912200  0.67327800  0.56921300  1
  H  877  1  0.05719600  0.60455700  0.57035700  1
  H  879  1  0.92344400  0.38753800  0.57132100  1
  H  887  1  0.43296000  0.00356300  0.42211500  1
  H  892  1  0.60086200  0.95202600  0.40641300  1
  H  893  1  0.58878900  0.97864300  0.41947100  1
  H  894  1  0.67574000  0.01845000  0.40406800  1
  H  895  1  0.66694300  0.99689700  0.42039700  1
  H  896  1  0.66351600  0.04489000  0.41705700  1
  H  898  1  0.59617200  0.06601100  0.41537200  1
  H  900  1  0.38050700  0.92888100  0.41508600  1
  H  908  1  0.98088100  0.43347000  0.08883300  1
  H  913  1  0.03267200  0.65246800  0.07303600  1
  H  914  1  0.00548800  0.61366000  0.08602700  1
  H  915  1  0.96671100  0.66163800  0.07055700  1
  H  916  1  0.98788100  0.67400500  0.08693400  1
  H  917  1  0.93970700  0.62284800  0.08347800  1
  H  919  1  0.91845800  0.53418300  0.08197400  1
  H  921  1  0.05542200  0.45543900  0.08172100  1
  H  929  1  0.55115100  0.55148700  0.75549000  1
  H  934  1  0.33169800  0.38344700  0.73977700  1
  H  935  1  0.37038500  0.39548700  0.75283500  1
  H  936  1  0.32336700  0.30863100  0.73738000  1
  H  937  1  0.31055900  0.31728900  0.75371700  1
  H  938  1  0.36202400  0.32082200  0.75036900  1
  H  940  1  0.45041300  0.38824200  0.74873700  1
  H  942  1  0.52887000  0.60390300  0.74849500  1
  H  950  1  0.35080400  0.69577500  0.99272800  1
  H  955  1  0.35982800  0.51639900  0.01707600  1
  H  956  1  0.35688500  0.47958900  0.00443800  1
  H  957  1  0.27860600  0.47121200  0.02043200  1
  H  958  1  0.30480200  0.43948300  0.02283400  1
  H  959  1  0.27551600  0.43399400  0.00794200  1
  H  961  1  0.36503600  0.59683600  0.02314500  1
  H  963  1  0.37199600  0.70290700  0.96924200  1
  H  971  1  0.32622800  0.63520400  0.32584500  1
  H  976  1  0.13739300  0.62470600  0.35050000  1
  H  977  1  0.10290900  0.62651700  0.33786200  1
  H  978  1  0.17339100  0.70616200  0.35326200  1
  H  979  1  0.11557200  0.68004500  0.35587900  1
  H  980  1  0.13864300  0.70813400  0.34077400  1
  H  982  1  0.21155900  0.61986800  0.35638700  1
  H  984  1  0.31156400  0.61262900  0.30249700  1
  H  992  1  0.29060700  0.65762800  0.65901400  1
  H  997  1  0.46878000  0.84718200  0.68383700  1
  H  998  1  0.50407600  0.88201900  0.67108000  1
  H  999  1  0.51446800  0.81119000  0.68583000  1
  H  1000  1  0.54634500  0.86894800  0.68854800  1
  H  1001  1  0.55021200  0.84627800  0.67322000  1
  H  1003  1  0.38966200  0.77334300  0.68968200  1
  H  1005  1  0.28186100  0.67278100  0.63580400  1
  H  1013  1  0.62194600  0.29323800  0.99134100  1
  H  1018  1  0.61612100  0.47321400  0.01622000  1
  H  1019  1  0.62037700  0.51119400  0.00379500  1
  H  1020  1  0.69727600  0.51702800  0.01994700  1
  H  1021  1  0.67180000  0.54935300  0.02249500  1
  H  1022  1  0.70162200  0.55540500  0.00768500  1
  H  1024  1  0.60975400  0.39101000  0.02212000  1
  H  1026  1  0.60159300  0.28741600  0.96779700  1
  H  1034  1  0.65154400  0.36195200  0.32460300  1
  H  1039  1  0.83761700  0.36853700  0.34961100  1
  H  1040  1  0.87155900  0.36460700  0.33719300  1
  H  1041  1  0.80050300  0.28734700  0.35323900  1
  H  1042  1  0.85829400  0.31297400  0.35583600  1
  H  1043  1  0.83474800  0.28332100  0.34098200  1
  H  1045  1  0.76204100  0.37438700  0.35542400  1
  H  1047  1  0.66630300  0.38267000  0.30109200  1
  H  1055  1  0.68943900  0.33400200  0.65769900  1
  H  1060  1  0.51092500  0.14646000  0.68301900  1
  H  1061  1  0.47407600  0.11198000  0.67048000  1
  H  1062  1  0.46641700  0.18346400  0.68580800  1
  H  1063  1  0.43417500  0.12575600  0.68855300  1
  H  1064  1  0.42913800  0.14871200  0.67342700  1
  H  1066  1  0.59103500  0.22115900  0.68870500  1
  H  1068  1  0.69663800  0.31844700  0.63439500  1
  C  1  1  0.48715300  0.70697100  0.91456700  1
  C  2  1  0.53097900  0.73023200  0.91956600  1
  C  3  1  0.52825000  0.80024400  0.92175700  1
  C  4  1  0.48496400  0.78024700  0.91635200  1
  C  5  1  0.46727000  0.80905700  0.91411600  1
  C  6  1  0.49167100  0.85535700  0.91681200  1
  C  7  1  0.53271900  0.87174400  0.92322200  1
  C  8  1  0.55105400  0.84504800  0.92547500  1
  C  9  1  0.55614700  0.70930000  0.92124200  1
  C  10  1  0.53858600  0.66500200  0.91798000  1
  C  11  1  0.49559300  0.64018600  0.91278200  1
  C  12  1  0.46989300  0.66119900  0.91147500  1
  C  13  1  0.42303300  0.70850600  0.92355900  1
  C  14  1  0.37830200  0.68924000  0.91948300  1
  C  15  1  0.40049100  0.70558200  0.89543000  1
  C  16  1  0.44599100  0.72579200  0.89872500  1
  C  17  1  0.38676600  0.70124000  0.88208500  1
  C  18  1  0.41744000  0.71586500  0.87174500  1
  C  19  1  0.46288600  0.73561500  0.87439800  1
  C  20  1  0.47661800  0.74134900  0.88789000  1
  C  21  1  0.43044600  0.70466400  0.93738500  1
  C  22  1  0.39558300  0.68290900  0.94678300  1
  C  23  1  0.35203800  0.66506200  0.94208000  1
  C  24  1  0.34355800  0.66862900  0.92874500  1
  C  37  1  0.46025400  0.73049800  0.91328000  1
  C  38  1  0.36522700  0.68827200  0.90552300  1
  C  41  1  0.55259400  0.77656400  0.92382800  1
  C  48  1  0.20037600  0.49730300  0.24784300  1
  C  49  1  0.17980200  0.45344000  0.25281100  1
  C  50  1  0.25255300  0.45618500  0.25500800  1
  C  51  1  0.27584800  0.49950400  0.24962700  1
  C  52  1  0.32236200  0.51722500  0.24740000  1
  C  53  1  0.34426900  0.49282700  0.25008700  1
  C  54  1  0.31960800  0.45175500  0.25648200  1
  C  55  1  0.27456000  0.43337800  0.25871700  1
  C  56  1  0.13369500  0.42824800  0.25446400  1
  C  57  1  0.10695900  0.44582200  0.25121600  1
  C  58  1  0.12515400  0.48886900  0.24605800  1
  C  59  1  0.17187100  0.51458500  0.24476700  1
  C  60  1  0.26601900  0.56141900  0.25684200  1
  C  61  1  0.29141900  0.60615900  0.25276700  1
  C  62  1  0.28560000  0.58399200  0.22871300  1
  C  63  1  0.26036100  0.53848500  0.23200700  1
  C  64  1  0.29496900  0.59772800  0.21536800  1
  C  65  1  0.27896600  0.56705600  0.20502800  1
  C  66  1  0.25333200  0.52160300  0.20767800  1
  C  67  1  0.24532900  0.50786600  0.22117000  1
  C  68  1  0.25477800  0.55399000  0.27066900  1
  C  69  1  0.26785700  0.58884100  0.28007000  1
  C  70  1  0.29350100  0.63239400  0.27536800  1
  C  71  1  0.30550200  0.64089400  0.26203000  1
  C  84  1  0.25080300  0.52421100  0.24656000  1
  C  85  1  0.30348800  0.61925400  0.23880700  1
  C  88  1  0.20451600  0.43180700  0.25705600  1
  C  95  1  0.27758300  0.78408300  0.58117600  1
  C  96  1  0.25434300  0.80465400  0.58618700  1
  C  97  1  0.18430300  0.73192800  0.58835600  1
  C  98  1  0.20429600  0.70863100  0.58295400  1
  C  99  1  0.17547900  0.66212500  0.58072200  1
  C  100  1  0.12918200  0.64023200  0.58341600  1
  C  101  1  0.11279700  0.66490300  0.58982200  1
  C  102  1  0.13949000  0.70994500  0.59206400  1
  C  103  1  0.27528600  0.85075300  0.58786400  1
  C  104  1  0.31957900  0.87748600  0.58459500  1
  C  105  1  0.34438300  0.85930000  0.57939500  1
  C  106  1  0.32335700  0.81258700  0.57808500  1
  C  107  1  0.27601800  0.71841100  0.59016500  1
  C  108  1  0.29526700  0.69292800  0.58608900  1
  C  109  1  0.27891400  0.69876400  0.56203600  1
  C  110  1  0.25874900  0.72409700  0.56532800  1
  C  111  1  0.28324000  0.68935800  0.54869100  1
  C  112  1  0.26865900  0.70543600  0.53834800  1
  C  113  1  0.24893000  0.73114800  0.54099800  1
  C  114  1  0.24322000  0.73918400  0.55448900  1
  C  115  1  0.27984600  0.72964300  0.60399300  1
  C  116  1  0.30161000  0.71653800  0.61339000  1
  C  117  1  0.31945400  0.69084100  0.60868300  1
  C  118  1  0.31587800  0.67879200  0.59534800  1
  C  131  1  0.25404600  0.73365800  0.57988400  1
  C  132  1  0.29621400  0.68080200  0.57213000  1
  C  135  1  0.20799800  0.77995100  0.59043200  1
  C  142  1  0.48689600  0.28286100  0.91293900  1
  C  143  1  0.44240800  0.25832200  0.91732000  1
  C  144  1  0.44802500  0.19037600  0.92084900  1
  C  145  1  0.49087500  0.21061800  0.91513400  1
  C  146  1  0.50888200  0.18211400  0.91283000  1
  C  147  1  0.48532700  0.13601000  0.91586100  1
  C  148  1  0.44537800  0.11983800  0.92291100  1
  C  149  1  0.42660800  0.14616300  0.92515800  1
  C  150  1  0.41499400  0.27710200  0.91758300  1
  C  151  1  0.43143100  0.32094800  0.91397300  1
  C  152  1  0.47643200  0.34847200  0.91081100  1
  C  153  1  0.50324200  0.32851100  0.90984900  1
  C  154  1  0.55180100  0.28300300  0.92219000  1
  C  155  1  0.59663400  0.30270000  0.91817500  1
  C  156  1  0.57486700  0.28577000  0.89411900  1
  C  157  1  0.52928200  0.26496500  0.89735600  1
  C  158  1  0.58884400  0.29016500  0.88079900  1
  C  159  1  0.55832800  0.27512700  0.87041700  1
  C  160  1  0.51280100  0.25483500  0.87300200  1
  C  161  1  0.49884000  0.24890900  0.88647400  1
  C  162  1  0.54410900  0.28674700  0.93599800  1
  C  163  1  0.57881000  0.30867600  0.94544000  1
  C  164  1  0.62246600  0.32704400  0.94079000  1
  C  165  1  0.63122000  0.32371800  0.92746700  1
  C  178  1  0.51476200  0.26027100  0.91188900  1
  C  179  1  0.60999500  0.30366100  0.90425000  1
  C  182  1  0.42214800  0.21274500  0.92221100  1
  C  189  1  0.77655100  0.49757700  0.24627300  1
  C  190  1  0.79648100  0.54205900  0.25065800  1
  C  191  1  0.72289900  0.53639800  0.25419200  1
  C  192  1  0.70030700  0.49355700  0.24847000  1
  C  193  1  0.65380000  0.47554100  0.24616400  1
  C  194  1  0.63123700  0.49908000  0.24920200  1
  C  195  1  0.65497800  0.53898200  0.25627500  1
  C  196  1  0.70008500  0.55778800  0.25851000  1
  C  197  1  0.84267600  0.56948300  0.25092800  1
  C  198  1  0.87010000  0.55306600  0.24731600  1
  C  199  1  0.85264100  0.50806900  0.24415300  1
  C  200  1  0.80587100  0.48125100  0.24318300  1
  C  201  1  0.71181100  0.43264900  0.25551900  1
  C  202  1  0.68676600  0.38781700  0.25149800  1
  C  203  1  0.69160000  0.40960100  0.22744400  1
  C  204  1  0.71628400  0.45518700  0.23068600  1
  C  205  1  0.68206700  0.39563600  0.21412100  1
  C  206  1  0.69746400  0.42616800  0.20374300  1
  C  207  1  0.72259400  0.47169900  0.20633600  1
  C  208  1  0.73060600  0.48564400  0.21981000  1
  C  209  1  0.72320400  0.44034300  0.26933000  1
  C  210  1  0.71048800  0.40563900  0.27876700  1
  C  211  1  0.68527100  0.36198100  0.27411300  1
  C  212  1  0.67323900  0.35322500  0.26078600  1
  C  225  1  0.72609500  0.46969300  0.24522200  1
  C  226  1  0.67443000  0.37445800  0.23757000  1
  C  229  1  0.77114600  0.56229700  0.25555200  1
  C  236  1  0.70158700  0.20800800  0.57961400  1
  C  237  1  0.72612200  0.18808500  0.58402000  1
  C  238  1  0.79405100  0.26166600  0.58754000  1
  C  239  1  0.77380500  0.28424800  0.58180800  1
  C  240  1  0.80230200  0.33075000  0.57949500  1
  C  241  1  0.84839800  0.35331100  0.58253500  1
  C  242  1  0.86455300  0.32959100  0.58962300  1
  C  243  1  0.83824200  0.28449200  0.59186900  1
  C  244  1  0.70735400  0.14189100  0.58430000  1
  C  245  1  0.66352000  0.11446200  0.58068500  1
  C  246  1  0.63600900  0.13191100  0.57747500  1
  C  247  1  0.65595300  0.17868000  0.57650800  1
  C  248  1  0.70140000  0.27276500  0.58884700  1
  C  249  1  0.68163500  0.29782500  0.58481900  1
  C  250  1  0.69861600  0.29297900  0.56076800  1
  C  251  1  0.71947800  0.26826100  0.56401700  1
  C  252  1  0.69421200  0.30251900  0.54744400  1
  C  253  1  0.70932700  0.28709400  0.53706900  1
  C  254  1  0.72969000  0.26193600  0.53966600  1
  C  255  1  0.73559800  0.25391000  0.55314200  1
  C  256  1  0.69769900  0.26140300  0.60266100  1
  C  257  1  0.67572400  0.27415200  0.61209400  1
  C  258  1  0.65728700  0.29936200  0.60742900  1
  C  259  1  0.66057500  0.31137400  0.59410000  1
  C  272  1  0.72415900  0.25846100  0.57855500  1
  C  273  1  0.68065300  0.31017300  0.57089000  1
  C  276  1  0.77168400  0.21342700  0.58892200  1
  C  283  1  0.77531900  0.28609800  0.40435600  1
  C  284  1  0.79599900  0.26240600  0.39979800  1
  C  285  1  0.72334600  0.19254100  0.39756600  1
  C  286  1  0.69988300  0.21285300  0.40262100  1
  C  287  1  0.65328800  0.18410900  0.40471900  1
  C  288  1  0.63151000  0.13769300  0.40218400  1
  C  289  1  0.65639200  0.12113600  0.39600900  1
  C  290  1  0.70151400  0.14766200  0.39395300  1
  C  291  1  0.84213400  0.28299900  0.39829700  1
  C  292  1  0.86889400  0.32749400  0.40127100  1
  C  293  1  0.85072200  0.35286300  0.40601400  1
  C  294  1  0.80394100  0.33211200  0.40714200  1
  C  295  1  0.71085600  0.28371900  0.39411900  1
  C  296  1  0.68603800  0.30459400  0.39720500  1
  C  297  1  0.68921500  0.29161900  0.42160900  1
  C  298  1  0.71373100  0.26977300  0.41946100  1
  C  299  1  0.67811000  0.29818300  0.43449900  1
  C  300  1  0.69135800  0.28388000  0.44554200  1
  C  301  1  0.71637200  0.26265100  0.44421400  1
  C  302  1  0.72613600  0.25476900  0.43108800  1
  C  303  1  0.72264400  0.28486300  0.38041700  1
  C  304  1  0.71183800  0.30677200  0.37041500  1
  C  305  1  0.68569000  0.32517100  0.37409700  1
  C  306  1  0.67288900  0.32399800  0.38724800  1
  C  319  1  0.72476100  0.26294300  0.40521700  1
  C  320  1  0.67317800  0.30830100  0.41081100  1
  C  323  1  0.77141500  0.21594600  0.39570400  1
  C  330  1  0.69827100  0.49312400  0.07098600  1
  C  331  1  0.72195900  0.53750400  0.06643400  1
  C  332  1  0.79183600  0.53473200  0.06419600  1
  C  333  1  0.77153600  0.49095900  0.06925200  1
  C  334  1  0.80029100  0.47311700  0.07134900  1
  C  335  1  0.84670300  0.49775600  0.06880600  1
  C  336  1  0.86325800  0.53920900  0.06264100  1
  C  337  1  0.83672000  0.55779200  0.06058600  1
  C  338  1  0.70134300  0.56302200  0.06492100  1
  C  339  1  0.65684400  0.54527300  0.06789400  1
  C  340  1  0.63148900  0.50173700  0.07264200  1
  C  341  1  0.65225300  0.47572000  0.07377100  1
  C  342  1  0.70068000  0.43104100  0.06075400  1
  C  343  1  0.67984700  0.38535500  0.06384400  1
  C  344  1  0.69279000  0.40153900  0.08824800  1
  C  345  1  0.71462800  0.44789500  0.08609400  1
  C  346  1  0.68622900  0.38389100  0.10114200  1
  C  347  1  0.70053600  0.41145900  0.11217900  1
  C  348  1  0.72176700  0.45770100  0.11084300  1
  C  349  1  0.72964400  0.47532800  0.09771700  1
  C  350  1  0.69949700  0.44166700  0.04705200  1
  C  351  1  0.67757800  0.40893200  0.03705700  1
  C  352  1  0.65925300  0.36439500  0.04073900  1
  C  353  1  0.66046900  0.35278900  0.05389000  1
  C  366  1  0.72144600  0.46573700  0.07184800  1
  C  367  1  0.67613700  0.36880700  0.07745300  1
  C  370  1  0.76841100  0.55937800  0.06233100  1
  C  377  1  0.49134000  0.20913900  0.73768000  1
  C  378  1  0.44696500  0.18849100  0.73312500  1
  C  379  1  0.44982200  0.26117000  0.73088700  1
  C  380  1  0.49357600  0.28460200  0.73596000  1
  C  381  1  0.51142400  0.33118600  0.73808000  1
  C  382  1  0.48678400  0.35297000  0.73555700  1
  C  383  1  0.44540600  0.32814000  0.72934100  1
  C  384  1  0.42681700  0.28303200  0.72726200  1
  C  385  1  0.42140800  0.14236200  0.73161100  1
  C  386  1  0.43912600  0.11557900  0.73457400  1
  C  387  1  0.48265900  0.13371500  0.73932200  1
  C  388  1  0.50870700  0.18049100  0.74045900  1
  C  389  1  0.55345700  0.27358900  0.72745800  1
  C  390  1  0.59915200  0.29818000  0.73055700  1
  C  391  1  0.58296000  0.29497800  0.75496000  1
  C  392  1  0.53660000  0.27065300  0.75279900  1
  C  393  1  0.60060000  0.30598000  0.76785600  1
  C  394  1  0.57301500  0.29279100  0.77889100  1
  C  395  1  0.52676900  0.26790600  0.77755000  1
  C  396  1  0.50916100  0.25830600  0.76442000  1
  C  397  1  0.54280900  0.26195800  0.71374800  1
  C  398  1  0.57551800  0.27268500  0.70375100  1
  C  399  1  0.62007800  0.29857000  0.70744700  1
  C  400  1  0.63171400  0.31124200  0.72060600  1
  C  413  1  0.51876400  0.25969600  0.73855200  1
  C  414  1  0.61570900  0.31089000  0.74417100  1
  C  417  1  0.42514300  0.21310700  0.72901400  1
  C  424  1  0.20160800  0.70844400  0.40603600  1
  C  425  1  0.18154100  0.73355800  0.40234800  1
  C  426  1  0.25490300  0.80134000  0.39862300  1
  C  427  1  0.27776800  0.78063500  0.40384300  1
  C  428  1  0.32440800  0.80898200  0.40595100  1
  C  429  1  0.34675500  0.85527100  0.40317000  1
  C  430  1  0.32269800  0.87180100  0.39645400  1
  C  431  1  0.27747300  0.84569700  0.39445600  1
  C  432  1  0.13538500  0.71511200  0.40245900  1
  C  433  1  0.10799400  0.67094600  0.40570200  1
  C  434  1  0.12540200  0.64289600  0.40811100  1
  C  435  1  0.17222000  0.66249300  0.40873600  1
  C  436  1  0.26500400  0.70908600  0.39543800  1
  C  437  1  0.28909700  0.68738800  0.39844500  1
  C  438  1  0.28707100  0.70089000  0.42286000  1
  C  439  1  0.26341100  0.72365100  0.42078800  1
  C  440  1  0.29822000  0.69406600  0.43571600  1
  C  441  1  0.28575400  0.70892000  0.44680500  1
  C  442  1  0.26152900  0.73099100  0.44555300  1
  C  443  1  0.25184600  0.73922800  0.43246200  1
  C  444  1  0.25317500  0.70830700  0.38175700  1
  C  445  1  0.26340700  0.68612500  0.37169000  1
  C  446  1  0.28876400  0.66678600  0.37530600  1
  C  447  1  0.30147000  0.66746500  0.38844200  1
  C  460  1  0.25215300  0.73060700  0.40658300  1
  C  461  1  0.30206100  0.68339600  0.41201200  1
  C  464  1  0.20661500  0.77933300  0.39764000  1
  C  471  1  0.27595700  0.49698200  0.07267200  1
  C  472  1  0.25085400  0.45180300  0.06898300  1
  C  473  1  0.18303300  0.45733600  0.06527500  1
  C  474  1  0.20374100  0.50092100  0.07048300  1
  C  475  1  0.17538400  0.51920300  0.07259100  1
  C  476  1  0.12908500  0.49524900  0.06982100  1
  C  477  1  0.11254000  0.45462000  0.06313000  1
  C  478  1  0.13864400  0.43549500  0.06113900  1
  C  479  1  0.26930400  0.42409400  0.06910600  1
  C  480  1  0.31345800  0.44086900  0.07236500  1
  C  481  1  0.34151900  0.48634200  0.07475200  1
  C  482  1  0.32191400  0.51356000  0.07537200  1
  C  483  1  0.27526900  0.55973000  0.06207500  1
  C  484  1  0.29680400  0.60551800  0.06507900  1
  C  485  1  0.28336200  0.58997800  0.08949500  1
  C  486  1  0.26071400  0.54356100  0.08742300  1
  C  487  1  0.29014100  0.60793900  0.10235100  1
  C  488  1  0.27537000  0.58061500  0.11343900  1
  C  489  1  0.25339300  0.53432100  0.11218600  1
  C  490  1  0.24519200  0.51640900  0.09909500  1
  C  491  1  0.27612700  0.54869300  0.04839800  1
  C  492  1  0.29827000  0.58112900  0.03833300  1
  C  493  1  0.31743400  0.62581300  0.04194400  1
  C  494  1  0.31663900  0.63782100  0.05507400  1
  C  507  1  0.25377400  0.52535000  0.07321900  1
  C  508  1  0.30072800  0.62246500  0.07864500  1
  C  511  1  0.20505900  0.43107000  0.06429200  1
  C  518  1  0.48742100  0.78286600  0.73936800  1
  C  519  1  0.53260200  0.80293300  0.73568200  1
  C  520  1  0.52704600  0.72956400  0.73199000  1
  C  521  1  0.48345400  0.70670200  0.73719500  1
  C  522  1  0.46515200  0.66006600  0.73930800  1
  C  523  1  0.48910100  0.63771100  0.73654800  1
  C  524  1  0.52975600  0.66178400  0.72987100  1
  C  525  1  0.54888200  0.70700400  0.72786300  1
  C  526  1  0.56031500  0.84909200  0.73580300  1
  C  527  1  0.54353500  0.87647900  0.73904500  1
  C  528  1  0.49804900  0.85906500  0.74141300  1
  C  529  1  0.47084300  0.81225000  0.74205400  1
  C  530  1  0.42468000  0.71947200  0.72876900  1
  C  531  1  0.37888400  0.69546400  0.73177400  1
  C  532  1  0.39438600  0.69751900  0.75619200  1
  C  533  1  0.44080500  0.72109700  0.75412200  1
  C  534  1  0.37641000  0.68641700  0.76904800  1
  C  535  1  0.40373100  0.69890700  0.78013700  1
  C  536  1  0.45003300  0.72315500  0.77888900  1
  C  537  1  0.46794200  0.73264400  0.76579600  1
  C  538  1  0.43575500  0.73121500  0.71508500  1
  C  539  1  0.40336000  0.72103400  0.70501600  1
  C  540  1  0.35865600  0.69579300  0.70863100  1
  C  541  1  0.34660400  0.68315100  0.72176900  1
  C  554  1  0.45903600  0.73232100  0.73991900  1
  C  555  1  0.36190600  0.68254600  0.74534200  1
  C  558  1  0.55333000  0.77785500  0.73100100  1
  C  565  1  0.48788600  0.73112100  0.84092000  1
  C  567  1  0.50166100  0.78105700  0.82269200  1
  C  568  1  0.48317400  0.74608400  0.81342800  1
  C  570  1  0.46826500  0.69554000  0.83168600  1
  C  571  1  0.44724600  0.65171700  0.83543500  1
  C  575  1  0.39550000  0.60861700  0.85150400  1
  C  576  1  0.34804000  0.59413200  0.85589800  1
  C  582  1  0.49274800  0.72561300  0.85450600  1
  C  584  1  0.47056300  0.75077400  0.80069500  1
  C  586  1  0.22379800  0.49654600  0.17419200  1
  C  588  1  0.25987500  0.48259700  0.15597700  1
  C  589  1  0.24350700  0.50118400  0.14671300  1
  C  591  1  0.20789200  0.51619100  0.16494900  1
  C  592  1  0.18524200  0.53742200  0.16871400  1
  C  596  1  0.19541300  0.59041500  0.18447400  1
  C  597  1  0.22904100  0.63801900  0.18856700  1
  C  603  1  0.21345500  0.49182000  0.18778000  1
  C  605  1  0.26076700  0.51386500  0.13397600  1
  C  607  1  0.25346900  0.76067200  0.50754900  1
  C  609  1  0.20338100  0.72490400  0.48932100  1
  C  610  1  0.23834300  0.74093600  0.48006800  1
  C  612  1  0.28903400  0.77618200  0.49831800  1
  C  613  1  0.33288600  0.79849800  0.50209400  1
  C  617  1  0.37647600  0.79078700  0.51817000  1
  C  618  1  0.39085200  0.75792300  0.52277400  1
  C  624  1  0.25904400  0.77122900  0.52112800  1
  C  626  1  0.23360800  0.72360000  0.46733400  1
  C  628  1  0.48809900  0.25906700  0.83947000  1
  C  630  1  0.47482200  0.20920800  0.82125400  1
  C  631  1  0.49336200  0.24423900  0.81201400  1
  C  633  1  0.50765000  0.29468000  0.83024300  1
  C  634  1  0.52828000  0.33849600  0.83399400  1
  C  638  1  0.57946900  0.38208600  0.85013000  1
  C  639  1  0.62689200  0.39698600  0.85466500  1
  C  645  1  0.48299200  0.26447900  0.85304600  1
  C  647  1  0.50605400  0.23958900  0.79927800  1
  C  649  1  0.75160200  0.49653300  0.17281000  1
  C  651  1  0.71493900  0.50962400  0.15457800  1
  C  652  1  0.73158300  0.49124400  0.14533600  1
  C  654  1  0.76775500  0.47705100  0.16358900  1
  C  655  1  0.79090500  0.45634700  0.16737500  1
  C  659  1  0.78175500  0.40389400  0.18320600  1
  C  660  1  0.74864800  0.35624200  0.18740100  1
  C  666  1  0.76208100  0.50160400  0.18639100  1
  C  668  1  0.71421800  0.47813200  0.13262900  1
  C  670  1  0.72545700  0.23291700  0.50618000  1
  C  672  1  0.77518500  0.26958900  0.48794300  1
  C  673  1  0.74015000  0.25294200  0.47870500  1
  C  675  1  0.68980200  0.21680200  0.49696800  1
  C  676  1  0.64600000  0.19354900  0.50073100  1
  C  680  1  0.60233900  0.20101500  0.51687300  1
  C  681  1  0.58736500  0.23346800  0.52141900  1
  C  687  1  0.72013400  0.22225200  0.51974900  1
  C  689  1  0.74441300  0.27030100  0.46599600  1
  C  691  1  0.49347200  0.53851200  0.90472100  1
  C  693  1  0.45607400  0.46980500  0.91650100  1
  C  694  1  0.48548900  0.45651500  0.91157500  1
  C  696  1  0.52287600  0.52502700  0.89950100  1
  C  697  1  0.55923400  0.55191200  0.89182600  1
  C  701  1  0.62043700  0.62354100  0.89235500  1
  C  702  1  0.65519900  0.65587100  0.90218600  1
  C  708  1  0.49962900  0.58104600  0.90334100  1
  C  710  1  0.48144200  0.41651300  0.91544800  1
  C  712  1  0.02567100  0.49110500  0.23804700  1
  C  714  1  0.99434400  0.52843800  0.24984700  1
  C  715  1  0.95164300  0.49903400  0.24491700  1
  C  717  1  0.98279500  0.46173000  0.23281400  1
  C  718  1  0.97341400  0.42538900  0.22510800  1
  C  722  1  0.98272300  0.36365500  0.22595100  1
  C  723  1  0.97927900  0.32870700  0.23588500  1
  C  729  1  0.06206300  0.48499200  0.23660300  1
  C  731  1  0.91568600  0.50307700  0.24879000  1
  C  733  1  0.44600300  0.95887100  0.57133700  1
  C  735  1  0.51474800  0.99017600  0.58309800  1
  C  736  1  0.52797800  0.03290100  0.57820300  1
  C  738  1  0.45940700  0.00179900  0.56616300  1
  C  739  1  0.43248000  0.01125300  0.55850300  1
  C  743  1  0.36080400  0.00070400  0.55905000  1
  C  744  1  0.32845700  0.00305900  0.56889000  1
  C  750  1  0.40350000  0.92243900  0.56994100  1
  C  752  1  0.56794900  0.06886300  0.58209200  1
  C  754  1  0.95082200  0.45442100  0.41368500  1
  C  756  1  0.98307000  0.52297400  0.40180000  1
  C  757  1  0.02567000  0.53566100  0.40670300  1
  C  759  1  0.99364400  0.46721100  0.41882700  1
  C  760  1  0.00259200  0.43982800  0.42647100  1
  C  764  1  0.99276300  0.36865700  0.42529300  1
  C  765  1  0.99719400  0.33784500  0.41531600  1
  C  771  1  0.91394300  0.41232600  0.41530000  1
  C  773  1  0.06194400  0.57571600  0.40301300  1
  C  775  1  0.53006500  0.50038800  0.08031800  1
  C  777  1  0.46122600  0.46363100  0.06859000  1
  C  778  1  0.44873800  0.49384100  0.07336400  1
  C  780  1  0.51747700  0.53073200  0.08533000  1
  C  781  1  0.54506200  0.56736700  0.09281800  1
  C  785  1  0.61684800  0.62796200  0.09211900  1
  C  786  1  0.64881800  0.66313100  0.08231800  1
  C  792  1  0.57208100  0.50541300  0.08199000  1
  C  794  1  0.40868900  0.49002800  0.06965100  1
  C  796  1  0.48401100  0.03352400  0.74696500  1
  C  798  1  0.52052500  0.00138100  0.73514400  1
  C  799  1  0.49054100  0.95875000  0.74001200  1
  C  801  1  0.45390100  0.99067100  0.75207200  1
  C  802  1  0.41756700  0.98164400  0.75968900  1
  C  806  1  0.35680700  0.99268800  0.75884900  1
  C  807  1  0.32170400  0.98928400  0.74898600  1
  C  813  1  0.47884900  0.07043400  0.74857400  1
  C  815  1  0.49431200  0.92248400  0.73630000  1
  C  817  1  0.49443300  0.95828900  0.90902000  1
  C  819  1  0.45127700  0.99089400  0.90235100  1
  C  820  1  0.48275600  0.03276400  0.90743700  1
  C  822  1  0.52661300  0.00027900  0.91424300  1
  C  823  1  0.56594500  0.01052600  0.92051400  1
  C  827  1  0.62050600  0.00723200  0.90831300  1
  C  828  1  0.63985000  0.97673000  0.90605700  1
  C  834  1  0.50044300  0.92178200  0.90823400  1
  C  836  1  0.47444100  0.06799900  0.90777800  1
  C  838  1  0.44451800  0.49023700  0.24234800  1
  C  840  1  0.52016900  0.53297200  0.23552200  1
  C  841  1  0.53058700  0.50168200  0.24075300  1
  C  843  1  0.45437300  0.45823600  0.24768800  1
  C  844  1  0.42537200  0.41922800  0.25407500  1
  C  848  1  0.36815200  0.36427400  0.24177000  1
  C  849  1  0.31828000  0.34434400  0.23941800  1
  C  855  1  0.40197700  0.48415500  0.24150200  1
  C  857  1  0.57413400  0.50999000  0.24111100  1
  C  859  1  0.02621800  0.53998700  0.57568400  1
  C  861  1  0.99339300  0.46433000  0.56888000  1
  C  862  1  0.95164200  0.45391200  0.57407700  1
  C  864  1  0.98433200  0.53013600  0.58099300  1
  C  865  1  0.97428100  0.55913200  0.58736700  1
  C  869  1  0.97679700  0.61650300  0.57508500  1
  C  870  1  0.00683000  0.66638200  0.57277000  1
  C  876  1  0.06269500  0.58251500  0.57488700  1
  C  878  1  0.91639700  0.41036800  0.57442700  1
  C  880  1  0.53177300  0.03449100  0.40998100  1
  C  882  1  0.45658600  0.99972700  0.41734100  1
  C  883  1  0.44673900  0.95856400  0.41179900  1
  C  885  1  0.52248300  0.99320900  0.40433200  1
  C  886  1  0.55171600  0.98442500  0.39754800  1
  C  890  1  0.60702000  0.98391700  0.41020500  1
  C  891  1  0.65665000  0.01301400  0.41312500  1
  C  897  1  0.57404400  0.07130500  0.41080500  1
  C  899  1  0.40353100  0.92272700  0.41157600  1
  C  901  1  0.94987100  0.50114900  0.07657600  1
  C  903  1  0.98469100  0.46085100  0.08401500  1
  C  904  1  0.02583300  0.49208200  0.07843700  1
  C  906  1  0.99113600  0.53304600  0.07090300  1
  C  907  1  0.99987800  0.57094000  0.06409500  1
  C  911  1  0.00059400  0.62686400  0.07675300  1
  C  912  1  0.97176600  0.64773000  0.07962000  1
  C  918  1  0.91313300  0.50672400  0.07742700  1
  C  920  1  0.06161900  0.48463000  0.07820800  1
  C  922  1  0.48328300  0.45268900  0.74334100  1
  C  924  1  0.52369000  0.52786700  0.75071600  1
  C  925  1  0.49236200  0.53771300  0.74518200  1
  C  927  1  0.45126700  0.46197700  0.73770800  1
  C  928  1  0.41323600  0.43274800  0.73092900  1
  C  932  1  0.35745600  0.37730900  0.74355800  1
  C  933  1  0.33698600  0.32766700  0.74644600  1
  C  939  1  0.47779400  0.41041000  0.74416200  1
  C  941  1  0.49968900  0.58090600  0.74497700  1
  C  943  1  0.34232900  0.60492400  0.00554700  1
  C  945  1  0.35291000  0.66767200  0.99284700  1
  C  946  1  0.36929800  0.65541100  0.98179200  1
  C  948  1  0.35825200  0.59152800  0.99448000  1
  C  949  1  0.36193400  0.55373800  0.99471800  1
  C  953  1  0.33912600  0.49422200  0.00918900  1
  C  954  1  0.29663100  0.45723200  0.01552000  1
  C  960  1  0.33691800  0.58684600  0.01826600  1
  C  962  1  0.38166200  0.68064500  0.97008400  1
  C  964  1  0.24322300  0.64220400  0.33881500  1
  C  966  1  0.29577300  0.63252800  0.32602400  1
  C  967  1  0.26677900  0.61527700  0.31506300  1
  C  969  1  0.21357500  0.62546400  0.32784400  1
  C  970  1  0.17175600  0.62085400  0.32815300  1
  C  974  1  0.13550500  0.64472700  0.34247100  1
  C  975  1  0.14117600  0.68767900  0.34849600  1
  C  981  1  0.23084900  0.64780600  0.35155200  1
  C  983  1  0.27960200  0.60277300  0.30337000  1
  C  985  1  0.37970700  0.74132000  0.67214100  1
  C  987  1  0.31800300  0.68835400  0.65925600  1
  C  988  1  0.32923800  0.71760400  0.64837700  1
  C  990  1  0.39210600  0.77123700  0.66124800  1
  C  991  1  0.42890700  0.81340000  0.66165500  1
  C  995  1  0.49006700  0.84930800  0.67558900  1
  C  996  1  0.52782200  0.84352900  0.68116600  1
  C  1002  1  0.39783000  0.75365300  0.68486600  1
  C  1004  1  0.30388400  0.70476500  0.63668900  1
  C  1006  1  0.63256700  0.38475100  0.00433900  1
  C  1008  1  0.62066900  0.32178900  0.99150900  1
  C  1009  1  0.60495600  0.33490100  0.98048000  1
  C  1011  1  0.61733100  0.39900000  0.99331200  1
  C  1012  1  0.61426700  0.43711100  0.99362900  1
  C  1016  1  0.63743500  0.49573900  0.00848600  1
  C  1017  1  0.67991300  0.53181200  0.01509100  1
  C  1023  1  0.63788400  0.40218000  0.01713700  1
  C  1025  1  0.59225400  0.30990500  0.96872500  1
  C  1027  1  0.73260600  0.35173900  0.33765500  1
  C  1029  1  0.68144700  0.36339700  0.32479200  1
  C  1030  1  0.71040800  0.37940400  0.31379900  1
  C  1032  1  0.76222500  0.36725200  0.32666100  1
  C  1033  1  0.80349700  0.37054700  0.32701700  1
  C  1037  1  0.83899900  0.34737900  0.34185900  1
  C  1038  1  0.83269500  0.30487300  0.34841500  1
  C  1044  1  0.74458700  0.34628800  0.35045700  1
  C  1046  1  0.69816500  0.39218800  0.30205000  1
  C  1048  1  0.59956600  0.25175100  0.67097800  1
  C  1050  1  0.66158800  0.30361300  0.65799000  1
  C  1051  1  0.64938900  0.27424000  0.64711300  1
  C  1053  1  0.58616600  0.22170800  0.66009600  1
  C  1054  1  0.54878500  0.17993200  0.66058000  1
  C  1058  1  0.48896000  0.14470500  0.67502500  1
  C  1059  1  0.45219200  0.15110500  0.68110600  1
  C  1065  1  0.58191800  0.23989300  0.68376200  1
  C  1067  1  0.67447100  0.28653600  0.63537400  1
  N  44  1  0.49073000  0.75006700  0.86401800  1
  N  45  1  0.48136200  0.59703900  0.91100300  1
  N  46  1  0.47852800  0.88542800  0.91492000  1
  N  47  1  0.40178300  0.67617100  0.95964500  1
  N  91  1  0.23988700  0.49375700  0.19729700  1
  N  92  1  0.09624100  0.50311100  0.24429900  1
  N  93  1  0.38749300  0.50601600  0.24819500  1
  N  94  1  0.25497500  0.58262900  0.29293700  1
  N  138  1  0.23455000  0.74458000  0.53060800  1
  N  139  1  0.38752900  0.88821500  0.57761500  1
  N  140  1  0.09913000  0.59700500  0.58153200  1
  N  141  1  0.30825800  0.72938200  0.62626200  1
  N  185  1  0.48515000  0.24015200  0.86257700  1
  N  186  1  0.48951900  0.39107000  0.90805300  1
  N  187  1  0.49857300  0.10625000  0.91336400  1
  N  188  1  0.57241800  0.31500000  0.95831900  1
  N  232  1  0.73552700  0.49936100  0.19591300  1
  N  233  1  0.88216100  0.49499500  0.24139600  1
  N  234  1  0.58823700  0.48584800  0.24670000  1
  N  235  1  0.72312800  0.41204000  0.29165100  1
  N  279  1  0.74441800  0.24900400  0.52924300  1
  N  280  1  0.59342200  0.10239000  0.57470400  1
  N  281  1  0.87816500  0.39629600  0.58002100  1
  N  282  1  0.66952000  0.26157400  0.62498700  1
  N  326  1  0.72365200  0.24716100  0.45565800  1
  N  327  1  0.87992000  0.39609400  0.40753100  1
  N  328  1  0.58831000  0.10752600  0.40405700  1
  N  329  1  0.72374100  0.30993800  0.35756400  1
  N  373  1  0.73730400  0.48049000  0.12228100  1
  N  374  1  0.58826800  0.48772400  0.07416600  1
  N  375  1  0.87688400  0.48473900  0.07069300  1
  N  376  1  0.67430600  0.41763700  0.02420900  1
  N  420  1  0.50402300  0.26073000  0.78899100  1
  N  421  1  0.49666800  0.10449300  0.74082100  1
  N  422  1  0.49980100  0.39616800  0.73742700  1
  N  423  1  0.56680100  0.26107100  0.69088000  1
  N  467  1  0.25475500  0.74668700  0.45703400  1
  N  468  1  0.09569400  0.60005900  0.41047600  1
  N  469  1  0.38976200  0.88516500  0.40558400  1
  N  470  1  0.25201300  0.68378100  0.35881400  1
  N  514  1  0.23770100  0.51180800  0.12365800  1
  N  515  1  0.38436400  0.49947600  0.07711300  1
  N  516  1  0.09920800  0.50839100  0.07222600  1
  N  517  1  0.30083200  0.57210400  0.02546900  1
  N  561  1  0.47244800  0.72969900  0.79036800  1
  N  562  1  0.48493000  0.88877400  0.74377900  1
  N  563  1  0.47595800  0.59469900  0.73895900  1
  N  564  1  0.41242900  0.73232300  0.69213400  1
  N  566  1  0.50362500  0.77236500  0.83577300  1
  N  569  1  0.46607400  0.70492000  0.81865700  1
  N  587  1  0.24923100  0.48070300  0.16905600  1
  N  590  1  0.21951900  0.51840000  0.15192400  1
  N  608  1  0.21215800  0.73559800  0.50239600  1
  N  611  1  0.27956800  0.76456500  0.48529300  1
  N  629  1  0.47264200  0.21785700  0.83432600  1
  N  632  1  0.51010700  0.28538800  0.81722100  1
  N  650  1  0.72575300  0.51185600  0.16765500  1
  N  653  1  0.75598100  0.47451600  0.15056800  1
  N  671  1  0.76662700  0.25873400  0.50101600  1
  N  674  1  0.69903600  0.22855000  0.48394500  1
  N  692  1  0.46155500  0.50974100  0.91308800  1
  N  695  1  0.51754100  0.48507900  0.90325300  1
  N  713  1  0.02882400  0.52301300  0.24641700  1
  N  716  1  0.94816300  0.46702000  0.23657900  1
  N  734  1  0.47483000  0.95570900  0.57967500  1
  N  737  1  0.49935600  0.03641300  0.56991300  1
  N  755  1  0.94816900  0.48340800  0.40529100  1
  N  758  1  0.02864800  0.50683400  0.41503800  1
  N  776  1  0.50082200  0.46834700  0.07207300  1
  N  779  1  0.47780500  0.52602200  0.08155600  1
  N  797  1  0.51580000  0.03625700  0.73862200  1
  N  800  1  0.45861100  0.95571000  0.74830200  1
  N  818  1  0.45835100  0.95610000  0.90321500  1
  N  821  1  0.51865400  0.03468600  0.91328100  1
  N  839  1  0.47833300  0.52599600  0.23639100  1
  N  842  1  0.49668800  0.46606400  0.24673100  1
  N  860  1  0.02824200  0.50617100  0.56975700  1
  N  863  1  0.94986700  0.48781500  0.58003000  1
  N  881  1  0.49797500  0.03525900  0.41635800  1
  N  884  1  0.48063000  0.95801800  0.40540300  1
  N  902  1  0.94915700  0.46670400  0.08301900  1
  N  905  1  0.02633300  0.52640200  0.07198200  1
  N  923  1  0.51784600  0.48648300  0.74972300  1
  N  926  1  0.45792200  0.50382600  0.73878900  1
  N  944  1  0.34126200  0.64304000  0.00411100  1
  N  947  1  0.37069400  0.61740900  0.98330200  1
  N  965  1  0.28277800  0.64411800  0.33730100  1
  N  968  1  0.22702600  0.61305300  0.31666000  1
  N  986  1  0.34256600  0.70140800  0.67053800  1
  N  989  1  0.36629000  0.75769200  0.65005400  1
  N  1007  1  0.63258200  0.34611800  0.00283500  1
  N  1010  1  0.60449500  0.37336100  0.98207700  1
  N  1028  1  0.69384400  0.35146600  0.33611800  1
  N  1031  1  0.74944000  0.38010800  0.31542700  1
  N  1049  1  0.63728800  0.29113500  0.66932300  1
  N  1052  1  0.61175400  0.23466500  0.64885100  1
  O  573  1  0.45137100  0.62613200  0.82811200  1
  O  574  1  0.40610900  0.63633300  0.83995600  1
  O  594  1  0.15498000  0.53220000  0.16146500  1
  O  595  1  0.21165200  0.57875900  0.17293900  1
  O  615  1  0.35809800  0.82838900  0.49474800  1
  O  616  1  0.34820300  0.77292700  0.50676100  1
  O  636  1  0.52411900  0.36394900  0.82661900  1
  O  637  1  0.56931900  0.35417800  0.83864200  1
  O  657  1  0.82118200  0.46177900  0.16009900  1
  O  658  1  0.76495700  0.41504000  0.17169600  1
  O  678  1  0.62056100  0.16392000  0.49335900  1
  O  679  1  0.63026700  0.21885000  0.50539200  1
  O  699  1  0.56820600  0.53430200  0.88281800  1
  O  700  1  0.59402000  0.58160600  0.89883200  1
  O  720  1  0.94751900  0.41745300  0.21597200  1
  O  721  1  0.96759300  0.39065100  0.23225700  1
  O  741  1  0.45006000  0.03789700  0.54950700  1
  O  742  1  0.40275300  0.01625400  0.56552300  1
  O  762  1  0.02818800  0.45737300  0.43569900  1
  O  763  1  0.00871600  0.41127700  0.41923200  1
  O  783  1  0.52762500  0.57581400  0.10200500  1
  O  784  1  0.57459900  0.60199700  0.08577500  1
  O  804  1  0.40842800  0.95529800  0.76877500  1
  O  805  1  0.38286500  0.97634100  0.75259700  1
  O  825  1  0.56990400  0.02375000  0.93190800  1
  O  826  1  0.58601800  0.98735800  0.91806400  1
  O  846  1  0.43384500  0.41617500  0.26563400  1
  O  847  1  0.38213700  0.39861100  0.25155300  1
  O  867  1  0.96255600  0.55057400  0.59891000  1
  O  868  1  0.99699200  0.60238900  0.58488100  1
  O  888  1  0.54392000  0.97622600  0.38577500  1
  O  889  1  0.59458500  0.00603500  0.40058000  1
  O  909  1  0.00735000  0.57116600  0.05226800  1
  O  910  1  0.97850400  0.59250300  0.06706900  1
  O  930  1  0.41275500  0.44061800  0.71916500  1
  O  931  1  0.39203200  0.38985700  0.73393400  1
  O  951  1  0.38117700  0.54778800  0.98551600  1
  O  952  1  0.32745000  0.51703000  0.99953800  1
  O  972  1  0.14630900  0.60146100  0.31902300  1
  O  973  1  0.16956300  0.65569100  0.33272100  1
  O  993  1  0.43346500  0.83921000  0.65279200  1
  O  994  1  0.46625700  0.81549400  0.66583100  1
  O  1014  1  0.59686200  0.44484100  0.98429300  1
  O  1015  1  0.64899400  0.47312400  0.99873700  1
  O  1035  1  0.82872800  0.38819200  0.31770900  1
  O  1036  1  0.80490800  0.33583400  0.33207800  1
  O  1056  1  0.54290900  0.15416300  0.65156900  1
  O  1057  1  0.51215800  0.17845100  0.66519700  1
