# generated using pymatgen
data_H24C41(NO2)4
_symmetry_space_group_name_H-M   'P 1'
_cell_length_a   38.00310000
_cell_length_b   38.00310000
_cell_length_c   45.21890000
_cell_angle_alpha   90.00140000
_cell_angle_beta   89.99860000
_cell_angle_gamma   90.00000000
_symmetry_Int_Tables_number   1
_chemical_formula_structural   H24C41(NO2)4
_chemical_formula_sum   'H384 C656 N64 O128'
_cell_volume   65306.74556840
_cell_formula_units_Z   16
loop_
 _symmetry_equiv_pos_site_id
 _symmetry_equiv_pos_as_xyz
  1  'x, y, z'
loop_
 _atom_site_type_symbol
 _atom_site_label
 _atom_site_symmetry_multiplicity
 _atom_site_fract_x
 _atom_site_fract_y
 _atom_site_fract_z
 _atom_site_occupancy
  H  25  1  0.83203100  0.12539900  0.75123700  1
  H  26  1  0.83582600  0.06310100  0.75284400  1
  H  27  1  0.83053700  0.00130100  0.75099800  1
  H  28  1  0.82001000  0.94034700  0.74219800  1
  H  29  1  0.75775300  0.96581400  0.66766500  1
  H  30  1  0.76302700  0.11975800  0.67771600  1
  H  31  1  0.70924800  0.03738400  0.72723800  1
  H  32  1  0.62287700  0.02616500  0.66891300  1
  H  33  1  0.65980400  0.03479500  0.62788100  1
  H  34  1  0.81936200  0.04494400  0.63199000  1
  H  35  1  0.69985200  0.05345800  0.59359200  1
  H  36  1  0.74778500  0.05917800  0.56115000  1
  H  66  1  0.25031900  0.95879100  0.75121900  1
  H  67  1  0.24651100  0.02113100  0.75264100  1
  H  68  1  0.25209200  0.08300700  0.75060400  1
  H  69  1  0.26378600  0.14383100  0.74224500  1
  H  70  1  0.32684400  0.11788100  0.66827800  1
  H  71  1  0.31951200  0.96409500  0.67786200  1
  H  72  1  0.36952000  0.04916200  0.72906000  1
  H  73  1  0.45795900  0.01220600  0.68219500  1
  H  74  1  0.42551000  0.01482800  0.63682200  1
  H  75  1  0.26683100  0.04088600  0.63076500  1
  H  76  1  0.38816700  0.02997000  0.59664200  1
  H  77  1  0.34165300  0.02915600  0.56204800  1
  H  107  1  0.12539600  0.25169200  0.25136800  1
  H  108  1  0.06309100  0.24799500  0.25302400  1
  H  109  1  0.00124800  0.25321800  0.25110900  1
  H  110  1  0.94030100  0.26373800  0.24224300  1
  H  111  1  0.96587900  0.32606000  0.16777200  1
  H  112  1  0.11978000  0.32068400  0.17783700  1
  H  113  1  0.03747500  0.37466000  0.22742000  1
  H  114  1  0.02592800  0.46095400  0.16903700  1
  H  115  1  0.03455200  0.42396700  0.12801200  1
  H  116  1  0.04489300  0.26444600  0.13227800  1
  H  117  1  0.05380400  0.38392900  0.09384500  1
  H  118  1  0.05995400  0.33593500  0.06154000  1
  H  148  1  0.95881300  0.83340000  0.25128800  1
  H  149  1  0.02115700  0.83711100  0.25270800  1
  H  150  1  0.08298600  0.83149700  0.25064500  1
  H  151  1  0.14380300  0.81982700  0.24225700  1
  H  152  1  0.11783600  0.75696300  0.16817700  1
  H  153  1  0.96401100  0.76444300  0.17776100  1
  H  154  1  0.04913400  0.71430900  0.22893700  1
  H  155  1  0.01224900  0.62582500  0.18209600  1
  H  156  1  0.01474800  0.65829500  0.13672600  1
  H  157  1  0.04075100  0.81697900  0.13059500  1
  H  158  1  0.03006400  0.69563600  0.09649900  1
  H  159  1  0.02968300  0.74213300  0.06178300  1
  H  189  1  0.81945700  0.93986200  0.23692300  1
  H  190  1  0.83029600  0.00080200  0.22813400  1
  H  191  1  0.83579500  0.06273900  0.22623900  1
  H  192  1  0.83294400  0.12509400  0.22844200  1
  H  193  1  0.76440600  0.11952300  0.30223600  1
  H  194  1  0.75671100  0.96572100  0.31113300  1
  H  195  1  0.70802500  0.04337800  0.25377200  1
  H  196  1  0.62317400  0.05485800  0.31371400  1
  H  197  1  0.66210400  0.05239100  0.35421900  1
  H  198  1  0.82084900  0.03541300  0.34484000  1
  H  199  1  0.70740200  0.06645900  0.38713200  1
  H  200  1  0.75932100  0.07062000  0.41646300  1
  H  230  1  0.26303500  0.14378500  0.23659100  1
  H  231  1  0.25182600  0.08281300  0.22786900  1
  H  232  1  0.24654200  0.02041300  0.22609100  1
  H  233  1  0.25055000  0.95806700  0.22798200  1
  H  234  1  0.31941800  0.96433000  0.30153300  1
  H  235  1  0.32551200  0.11777100  0.31084100  1
  H  236  1  0.37015800  0.03888300  0.25076600  1
  H  237  1  0.45687000  0.06899300  0.30292400  1
  H  238  1  0.42289000  0.06009000  0.34718900  1
  H  239  1  0.26446900  0.04350400  0.34655400  1
  H  240  1  0.38382900  0.02659900  0.38317800  1
  H  241  1  0.33469500  0.01642200  0.41495700  1
  H  271  1  0.14388600  0.81936800  0.73691700  1
  H  272  1  0.08295400  0.83020100  0.72810700  1
  H  273  1  0.02104100  0.83569900  0.72617400  1
  H  274  1  0.95868700  0.83293700  0.72837900  1
  H  275  1  0.96417500  0.76448800  0.80223600  1
  H  276  1  0.11799600  0.75664100  0.81113000  1
  H  277  1  0.04057000  0.70790100  0.75375100  1
  H  278  1  0.02864500  0.62309400  0.81367100  1
  H  279  1  0.03101000  0.66204700  0.85417900  1
  H  280  1  0.04847500  0.82071300  0.84480500  1
  H  281  1  0.01666800  0.70745000  0.88701800  1
  H  282  1  0.01245700  0.75946000  0.91628700  1
  H  312  1  0.93998900  0.26315000  0.73654100  1
  H  313  1  0.00095000  0.25193500  0.72777500  1
  H  314  1  0.06333200  0.24668300  0.72591500  1
  H  315  1  0.12568500  0.25062200  0.72778200  1
  H  316  1  0.11952800  0.31926100  0.80150300  1
  H  317  1  0.96608300  0.32553400  0.81082600  1
  H  318  1  0.04492200  0.37025200  0.75079900  1
  H  319  1  0.01483100  0.45680500  0.80313700  1
  H  320  1  0.02380000  0.42274600  0.84731600  1
  H  321  1  0.04033000  0.26434300  0.84655700  1
  H  322  1  0.05686200  0.38370800  0.88331200  1
  H  323  1  0.06660000  0.33463900  0.91518000  1
  H  336  1  0.87695600  0.92896600  0.71270200  1
  H  340  1  0.78253500  0.80701900  0.72613000  1
  H  341  1  0.91616800  0.90179100  0.75735100  1
  H  342  1  0.83629000  0.77603900  0.76211500  1
  H  344  1  0.91497500  0.84365500  0.79026600  1
  H  346  1  0.78490900  0.86347600  0.69062500  1
  H  354  1  0.20701500  0.15508200  0.71251200  1
  H  358  1  0.30157300  0.27695100  0.72612500  1
  H  359  1  0.16798800  0.18216500  0.75738000  1
  H  360  1  0.24769700  0.30794700  0.76205500  1
  H  362  1  0.16907700  0.24048500  0.79013600  1
  H  364  1  0.29935100  0.22042900  0.69068700  1
  H  372  1  0.92898700  0.20689000  0.21257700  1
  H  376  1  0.80704500  0.30127700  0.22614800  1
  H  377  1  0.90185400  0.16759400  0.25713500  1
  H  378  1  0.77607800  0.24746400  0.26208200  1
  H  380  1  0.84395300  0.16901600  0.29002700  1
  H  382  1  0.86351400  0.29894200  0.19060600  1
  H  390  1  0.15501300  0.87663300  0.21246400  1
  H  394  1  0.27692100  0.78215800  0.22619300  1
  H  395  1  0.18205400  0.91575400  0.25722600  1
  H  396  1  0.30788100  0.83608000  0.26206700  1
  H  398  1  0.24013000  0.91446300  0.28993100  1
  H  400  1  0.22040800  0.78428700  0.19074700  1
  H  408  1  0.20662600  0.15521900  0.26700700  1
  H  412  1  0.30138700  0.27689800  0.25357500  1
  H  413  1  0.16743300  0.18246500  0.22256800  1
  H  414  1  0.24754200  0.30820200  0.21778000  1
  H  416  1  0.16838900  0.24076200  0.18988700  1
  H  418  1  0.29919900  0.22017200  0.28870600  1
  H  426  1  0.87626600  0.92902200  0.26687700  1
  H  430  1  0.78233300  0.80674200  0.25363700  1
  H  431  1  0.91591900  0.90162800  0.22249300  1
  H  432  1  0.83630500  0.77574800  0.21776000  1
  H  434  1  0.91463900  0.84351200  0.18951300  1
  H  436  1  0.78463100  0.86335000  0.28909300  1
  H  444  1  0.15468900  0.87615300  0.76695400  1
  H  448  1  0.27698700  0.78228200  0.75356100  1
  H  449  1  0.18206200  0.91592400  0.72268700  1
  H  450  1  0.30796000  0.83632600  0.71776600  1
  H  452  1  0.23996300  0.91444200  0.68976000  1
  H  454  1  0.22038600  0.78450500  0.78905000  1
  H  462  1  0.92859900  0.20675300  0.76708400  1
  H  466  1  0.80690300  0.30145800  0.75353000  1
  H  467  1  0.90136400  0.16744200  0.72278200  1
  H  468  1  0.77561100  0.24754800  0.71780800  1
  H  470  1  0.84332300  0.16863500  0.69011200  1
  H  472  1  0.86364800  0.29937500  0.78864700  1
  H  480  1  0.58947100  0.02341400  0.79234000  1
  H  484  1  0.56729000  0.08129800  0.67715000  1
  H  485  1  0.51392200  0.01751400  0.79982200  1
  H  486  1  0.50238700  0.05175500  0.67212400  1
  H  488  1  0.45977700  0.05230000  0.76875400  1
  H  490  1  0.61735300  0.07959600  0.71720900  1
  H  498  1  0.02336600  0.49435200  0.29226200  1
  H  502  1  0.08149600  0.51654200  0.17715300  1
  H  503  1  0.01742700  0.56988600  0.29974200  1
  H  504  1  0.05187300  0.58141600  0.17208900  1
  H  506  1  0.05234100  0.62407800  0.26867700  1
  H  508  1  0.07961400  0.46641800  0.21715700  1
  H  516  1  0.58956000  0.05962500  0.18856700  1
  H  520  1  0.56719800  0.00224800  0.30385900  1
  H  521  1  0.51458200  0.06651900  0.18104600  1
  H  522  1  0.50287700  0.03132200  0.30906100  1
  H  524  1  0.45904900  0.03604800  0.21256800  1
  H  526  1  0.61724200  0.00269500  0.26325200  1
  H  534  1  0.02421500  0.58957200  0.68841600  1
  H  538  1  0.08176000  0.56736100  0.80368800  1
  H  539  1  0.01719800  0.51460400  0.68106900  1
  H  540  1  0.05197000  0.50321700  0.80910200  1
  H  542  1  0.04747100  0.45910200  0.71268200  1
  H  544  1  0.08131100  0.61740900  0.76304600  1
  H  552  1  0.89259400  0.05818200  0.53104800  1
  H  556  1  0.75369600  0.00547300  0.51202500  1
  H  557  1  0.90148700  0.06450100  0.46694200  1
  H  558  1  0.74887700  0.03929500  0.45845200  1
  H  560  1  0.86360200  0.03276000  0.42143900  1
  H  562  1  0.80161700  0.00456600  0.55442700  1
  H  570  1  0.19293200  0.02681400  0.53075100  1
  H  574  1  0.33258700  0.07759000  0.51242500  1
  H  575  1  0.18451600  0.01965200  0.46708500  1
  H  576  1  0.33762800  0.04070200  0.45990900  1
  H  578  1  0.22452800  0.04594300  0.42022000  1
  H  580  1  0.28250600  0.08117300  0.55404700  1
  H  588  1  0.05764200  0.19140400  0.03030500  1
  H  592  1  0.00550700  0.33070500  0.01299800  1
  H  593  1  0.06430400  0.18357600  0.96640800  1
  H  594  1  0.04337700  0.33654500  0.96064600  1
  H  596  1  0.03774200  0.22419000  0.91984700  1
  H  598  1  0.00448000  0.28156800  0.05505600  1
  H  606  1  0.02616300  0.89087500  0.03149100  1
  H  610  1  0.07760400  0.75155900  0.01139300  1
  H  611  1  0.01929400  0.90030200  0.96768300  1
  H  612  1  0.04472400  0.74778500  0.95759600  1
  H  614  1  0.05097200  0.86319400  0.92189900  1
  H  616  1  0.08093400  0.80029100  0.05352600  1
  H  641  1  0.35838500  0.67806700  0.53009100  1
  H  642  1  0.36218000  0.61576900  0.53169800  1
  H  643  1  0.35689100  0.55396900  0.52985200  1
  H  644  1  0.34636400  0.49301500  0.52105200  1
  H  645  1  0.28410700  0.51848200  0.44651900  1
  H  646  1  0.28938100  0.67242600  0.45657000  1
  H  647  1  0.23560200  0.59005200  0.50609200  1
  H  648  1  0.14923100  0.57883300  0.44776700  1
  H  649  1  0.18615800  0.58746300  0.40673500  1
  H  650  1  0.34571600  0.59761200  0.41084400  1
  H  651  1  0.22620600  0.60612600  0.37244600  1
  H  652  1  0.27413900  0.61184600  0.34000400  1
  H  682  1  0.77667300  0.51145900  0.53007300  1
  H  683  1  0.77286500  0.57379900  0.53149500  1
  H  684  1  0.77844600  0.63567500  0.52945800  1
  H  685  1  0.79014000  0.69649900  0.52109900  1
  H  686  1  0.85319800  0.67054900  0.44713200  1
  H  687  1  0.84586600  0.51676300  0.45671600  1
  H  688  1  0.89587400  0.60183000  0.50791400  1
  H  689  1  0.98431340  0.56487400  0.46104900  1
  H  690  1  0.95186440  0.56749600  0.41567600  1
  H  691  1  0.79318500  0.59355400  0.40961900  1
  H  692  1  0.91452140  0.58263800  0.37549600  1
  H  693  1  0.86800700  0.58182400  0.34090200  1
  H  723  1  0.65175000  0.80436000  0.03022200  1
  H  724  1  0.58944500  0.80066300  0.03187800  1
  H  725  1  0.52760200  0.80588600  0.02996300  1
  H  726  1  0.46665500  0.81640600  0.02109700  1
  H  727  1  0.49223300  0.87872800  0.94662550  1
  H  728  1  0.64613400  0.87335200  0.95669050  1
  H  729  1  0.56382900  0.92732810  0.00627400  1
  H  730  1  0.55228200  0.01362200  0.94789050  1
  H  731  1  0.56090600  0.97663510  0.90686550  1
  H  732  1  0.57124700  0.81711400  0.91113150  1
  H  733  1  0.58015800  0.93659710  0.87269900  1
  H  734  1  0.58630800  0.88860300  0.84039400  1
  H  764  1  0.48516700  0.38606800  0.03014200  1
  H  765  1  0.54751100  0.38977900  0.03156200  1
  H  766  1  0.60934000  0.38416500  0.02949900  1
  H  767  1  0.67015700  0.37249500  0.02111100  1
  H  768  1  0.64419000  0.30963100  0.94703050  1
  H  769  1  0.49036500  0.31711100  0.95661450  1
  H  770  1  0.57548800  0.26697700  0.00779100  1
  H  771  1  0.53860300  0.17849300  0.96094950  1
  H  772  1  0.54110200  0.21096300  0.91557950  1
  H  773  1  0.56710500  0.36964700  0.90944850  1
  H  774  1  0.55641800  0.24830400  0.87535300  1
  H  775  1  0.55603700  0.29480100  0.84063700  1
  H  805  1  0.34581100  0.49253000  0.01577700  1
  H  806  1  0.35665000  0.55347000  0.00698800  1
  H  807  1  0.36214900  0.61540700  0.00509300  1
  H  808  1  0.35929800  0.67776200  0.00729600  1
  H  809  1  0.29076000  0.67219100  0.08109000  1
  H  810  1  0.28306500  0.51838900  0.08998700  1
  H  811  1  0.23437900  0.59604600  0.03262600  1
  H  812  1  0.14952800  0.60752600  0.09256800  1
  H  813  1  0.18845800  0.60505900  0.13307300  1
  H  814  1  0.34720300  0.58808100  0.12369400  1
  H  815  1  0.23375600  0.61912700  0.16598600  1
  H  816  1  0.28567500  0.62328800  0.19531700  1
  H  846  1  0.78938900  0.69645300  0.01544500  1
  H  847  1  0.77818000  0.63548100  0.00672300  1
  H  848  1  0.77289600  0.57308100  0.00494500  1
  H  849  1  0.77690400  0.51073500  0.00683600  1
  H  850  1  0.84577200  0.51699800  0.08038700  1
  H  851  1  0.85186600  0.67043900  0.08969500  1
  H  852  1  0.89651200  0.59155100  0.02962000  1
  H  853  1  0.98322440  0.62166100  0.08177800  1
  H  854  1  0.94924440  0.61275800  0.12604300  1
  H  855  1  0.79082300  0.59617200  0.12540800  1
  H  856  1  0.91018340  0.57926700  0.16203200  1
  H  857  1  0.86104900  0.56909000  0.19381100  1
  H  887  1  0.67024000  0.37203600  0.51577100  1
  H  888  1  0.60930800  0.38286900  0.50696100  1
  H  889  1  0.54739500  0.38836700  0.50502800  1
  H  890  1  0.48504100  0.38560500  0.50723300  1
  H  891  1  0.49052900  0.31715600  0.58109000  1
  H  892  1  0.64435000  0.30930900  0.58998400  1
  H  893  1  0.56692400  0.26056900  0.53260500  1
  H  894  1  0.55499900  0.17576200  0.59252500  1
  H  895  1  0.55736400  0.21471500  0.63303300  1
  H  896  1  0.57482900  0.37338100  0.62365900  1
  H  897  1  0.54302200  0.26011800  0.66587200  1
  H  898  1  0.53881100  0.31212800  0.69514100  1
  H  928  1  0.46634300  0.81581800  0.51539500  1
  H  929  1  0.52730400  0.80460300  0.50662900  1
  H  930  1  0.58968600  0.79935100  0.50476900  1
  H  931  1  0.65203900  0.80329000  0.50663600  1
  H  932  1  0.64588200  0.87192900  0.58035700  1
  H  933  1  0.49243700  0.87820200  0.58968000  1
  H  934  1  0.57127600  0.92292010  0.52965300  1
  H  935  1  0.54118500  0.00947300  0.58199100  1
  H  936  1  0.55015400  0.97541410  0.62617000  1
  H  937  1  0.56668400  0.81701100  0.62541100  1
  H  938  1  0.58321600  0.93637610  0.66216600  1
  H  939  1  0.59295400  0.88730700  0.69403400  1
  H  952  1  0.40331000  0.48163400  0.49155600  1
  H  956  1  0.30888900  0.35968700  0.50498400  1
  H  957  1  0.44252200  0.45445900  0.53620500  1
  H  958  1  0.36264400  0.32870700  0.54096900  1
  H  960  1  0.44132900  0.39632300  0.56912000  1
  H  962  1  0.31126300  0.41614400  0.46947900  1
  H  970  1  0.73336900  0.70775000  0.49136600  1
  H  974  1  0.82792700  0.82961900  0.50497900  1
  H  975  1  0.69434200  0.73483300  0.53623400  1
  H  976  1  0.77405100  0.86061500  0.54090900  1
  H  978  1  0.69543100  0.79315300  0.56899000  1
  H  980  1  0.82570500  0.77309700  0.46954100  1
  H  988  1  0.45534100  0.75955800  0.99143053  1
  H  992  1  0.33333333  0.85394500  0.00500200  1
  H  993  1  0.42820800  0.72026200  0.03598900  1
  H  994  1  0.30243200  0.80013200  0.04093600  1
  H  996  1  0.37030700  0.72168400  0.06888100  1
  H  998  1  0.38986800  0.85161000  0.96945950  1
  H  1006  1  0.68136700  0.42930100  0.99131753  1
  H  1010  1  0.80327500  0.33482600  0.00504700  1
  H  1011  1  0.70840800  0.46842200  0.03608000  1
  H  1012  1  0.83423500  0.38874800  0.04092100  1
  H  1014  1  0.76648400  0.46713100  0.06878500  1
  H  1016  1  0.74676200  0.33695500  0.96960050  1
  H  1024  1  0.73298000  0.70788700  0.04586100  1
  H  1028  1  0.82774100  0.82956600  0.03242900  1
  H  1029  1  0.69378700  0.73513300  0.00142200  1
  H  1030  1  0.77389600  0.86087000  0.99663353  1
  H  1032  1  0.69474300  0.79343000  0.96874050  1
  H  1034  1  0.82555300  0.77284000  0.06756000  1
  H  1042  1  0.40262000  0.48169000  0.04573100  1
  H  1046  1  0.30868700  0.35941000  0.03249100  1
  H  1047  1  0.44227300  0.45429600  0.00134700  1
  H  1048  1  0.36265900  0.32841600  0.99661353  1
  H  1050  1  0.44099300  0.39618000  0.96836650  1
  H  1052  1  0.31098500  0.41601800  0.06794700  1
  H  1060  1  0.68104300  0.42882100  0.54580800  1
  H  1064  1  0.80334100  0.33495000  0.53241500  1
  H  1065  1  0.70841600  0.46859200  0.50154100  1
  H  1066  1  0.83431400  0.38899400  0.49662000  1
  H  1068  1  0.76631700  0.46711000  0.46861400  1
  H  1070  1  0.74674000  0.33717300  0.56790400  1
  H  1078  1  0.45495300  0.75942100  0.54593800  1
  H  1082  1  0.33325700  0.85412600  0.53238400  1
  H  1083  1  0.42771800  0.72011000  0.50163600  1
  H  1084  1  0.30196500  0.80021600  0.49666200  1
  H  1086  1  0.36967700  0.72130300  0.46896600  1
  H  1088  1  0.39000200  0.85204300  0.56750100  1
  H  1096  1  0.11582500  0.57608200  0.57119400  1
  H  1100  1  0.09364400  0.63396600  0.45600400  1
  H  1101  1  0.04027600  0.57018200  0.57867600  1
  H  1102  1  0.02874100  0.60442300  0.45097800  1
  H  1104  1  0.98613140  0.60496800  0.54760800  1
  H  1106  1  0.14370700  0.63226400  0.49606300  1
  H  1114  1  0.54972000  0.04702000  0.07111600  1
  H  1118  1  0.60785000  0.06921000  0.95600650  1
  H  1119  1  0.54378100  0.12255400  0.07859600  1
  H  1120  1  0.57822700  0.13408400  0.95094250  1
  H  1122  1  0.57869500  0.17674600  0.04753100  1
  H  1124  1  0.60596800  0.01908600  0.99601053  1
  H  1132  1  0.11591400  0.61229300  0.96742050  1
  H  1136  1  0.09355200  0.55491600  0.08271300  1
  H  1137  1  0.04093600  0.61918700  0.95989950  1
  H  1138  1  0.02923100  0.58399000  0.08791500  1
  H  1140  1  0.98540340  0.58871600  0.99142153  1
  H  1142  1  0.14359600  0.55536300  0.04210600  1
  H  1150  1  0.55056900  0.14224000  0.46727000  1
  H  1154  1  0.60811400  0.12002900  0.58254200  1
  H  1155  1  0.54355200  0.06727200  0.45992300  1
  H  1156  1  0.57832400  0.05588500  0.58795600  1
  H  1158  1  0.57382500  0.01177000  0.49153600  1
  H  1160  1  0.60766500  0.17007700  0.54190000  1
  H  1168  1  0.41894800  0.61085000  0.30990200  1
  H  1172  1  0.28005000  0.55814100  0.29087900  1
  H  1173  1  0.42784100  0.61716900  0.24579600  1
  H  1174  1  0.27523100  0.59196300  0.23730600  1
  H  1176  1  0.38995600  0.58542800  0.20029300  1
  H  1178  1  0.32797100  0.55723400  0.33333333  1
  H  1186  1  0.71928600  0.57948200  0.30960500  1
  H  1190  1  0.85894100  0.63025800  0.29127900  1
  H  1191  1  0.71087000  0.57232000  0.24593900  1
  H  1192  1  0.86398200  0.59337000  0.23876300  1
  H  1194  1  0.75088200  0.59861100  0.19907400  1
  H  1196  1  0.80886000  0.63384100  0.33290100  1
  H  1204  1  0.58399600  0.74407200  0.80915900  1
  H  1208  1  0.53186100  0.88337300  0.79185200  1
  H  1209  1  0.59065800  0.73624400  0.74526200  1
  H  1210  1  0.56973100  0.88921300  0.73950000  1
  H  1212  1  0.56409600  0.77685800  0.69870100  1
  H  1214  1  0.53083400  0.83423600  0.83391000  1
  H  1222  1  0.55251700  0.44354300  0.81034500  1
  H  1226  1  0.60395800  0.30422700  0.79024700  1
  H  1227  1  0.54564800  0.45297000  0.74653700  1
  H  1228  1  0.57107800  0.30045300  0.73645000  1
  H  1230  1  0.57732600  0.41586200  0.70075300  1
  H  1232  1  0.60728800  0.35295900  0.83238000  1
  C  1  1  0.76523600  0.04474700  0.64426400  1
  C  2  1  0.73143500  0.04569100  0.63196600  1
  C  3  1  0.70634500  0.04194700  0.65344300  1
  C  4  1  0.72196100  0.04094000  0.68141800  1
  C  5  1  0.69900200  0.03758900  0.70635700  1
  C  6  1  0.66180700  0.03411300  0.70216200  1
  C  7  1  0.64878600  0.03143300  0.67297300  1
  C  8  1  0.67036900  0.03653200  0.64860000  1
  C  9  1  0.72474500  0.05100300  0.60186500  1
  C  10  1  0.75322300  0.05426800  0.58289100  1
  C  11  1  0.78820800  0.05017400  0.59295100  1
  C  12  1  0.79423000  0.04651200  0.62410400  1
  C  13  1  0.77950900  0.07032500  0.69496400  1
  C  14  1  0.80119400  0.05500600  0.71653400  1
  C  15  1  0.79997500  0.01892500  0.71446700  1
  C  16  1  0.77811200  0.00956700  0.69089000  1
  C  17  1  0.81580900  0.99394300  0.73313600  1
  C  18  1  0.80977500  0.95818300  0.72772900  1
  C  19  1  0.79008300  0.94725400  0.70286700  1
  C  20  1  0.77347000  0.97322900  0.68493500  1
  C  21  1  0.77807500  0.10775400  0.69348600  1
  C  22  1  0.79810900  0.12836600  0.71377700  1
  C  23  1  0.81818500  0.11129200  0.73584700  1
  C  24  1  0.82049300  0.07473700  0.73706600  1
  C  37  1  0.76153600  0.04176700  0.67754400  1
  C  42  1  0.32028700  0.03904500  0.64473900  1
  C  43  1  0.35468500  0.03481600  0.63404700  1
  C  44  1  0.37832400  0.03300600  0.65699500  1
  C  45  1  0.36069800  0.03949300  0.68351300  1
  C  46  1  0.38131200  0.04195400  0.70966300  1
  C  47  1  0.41816400  0.03491500  0.70890500  1
  C  48  1  0.43296900  0.02188700  0.68252000  1
  C  49  1  0.41385800  0.02278600  0.65605700  1
  C  50  1  0.36286400  0.03273100  0.60395100  1
  C  51  1  0.33526900  0.03285900  0.58372900  1
  C  52  1  0.29978200  0.03610400  0.59279200  1
  C  53  1  0.29228700  0.03903900  0.62368100  1
  C  54  1  0.30237100  0.01358300  0.69457000  1
  C  55  1  0.28084300  0.02907700  0.71612500  1
  C  56  1  0.28295400  0.06515500  0.71433400  1
  C  57  1  0.30560500  0.07433800  0.69121100  1
  C  58  1  0.26734100  0.09024600  0.73301600  1
  C  59  1  0.27403100  0.12593200  0.72783900  1
  C  60  1  0.29414000  0.13671200  0.70316400  1
  C  61  1  0.31083400  0.11061400  0.68540100  1
  C  62  1  0.30402600  0.97616100  0.69330100  1
  C  63  1  0.28412200  0.95565600  0.71371000  1
  C  64  1  0.26396000  0.97283500  0.73566600  1
  C  65  1  0.26157900  0.00941300  0.73672700  1
  C  78  1  0.32171000  0.04188000  0.67797700  1
  C  83  1  0.04473200  0.31859400  0.14449400  1
  C  84  1  0.04563800  0.35238100  0.13217400  1
  C  85  1  0.04185800  0.37749200  0.15362300  1
  C  86  1  0.04094400  0.36190000  0.18160700  1
  C  87  1  0.03758900  0.38488000  0.20653000  1
  C  88  1  0.03396000  0.42205100  0.20230000  1
  C  89  1  0.03121700  0.43504900  0.17310400  1
  C  90  1  0.03628300  0.41343700  0.14874500  1
  C  91  1  0.05122500  0.35904500  0.10211400  1
  C  92  1  0.05463000  0.33052800  0.08320100  1
  C  93  1  0.05029400  0.29556300  0.09324100  1
  C  94  1  0.04650100  0.28957000  0.12437700  1
  C  95  1  0.07033900  0.30433600  0.19516600  1
  C  96  1  0.05500800  0.28266000  0.21673900  1
  C  97  1  0.01892700  0.28388100  0.21465800  1
  C  98  1  0.00958400  0.30578600  0.19111200  1
  C  99  1  0.99391800  0.26799800  0.23326900  1
  C  100  1  0.95816000  0.27400500  0.22781100  1
  C  101  1  0.94726800  0.29370800  0.20294100  1
  C  102  1  0.97326500  0.31034900  0.18505300  1
  C  103  1  0.10777000  0.30568100  0.19363300  1
  C  104  1  0.12837100  0.28562300  0.21391500  1
  C  105  1  0.11129200  0.26558300  0.23600500  1
  C  106  1  0.07473200  0.26333800  0.23725700  1
  C  119  1  0.04178100  0.32232400  0.17775900  1
  C  124  1  0.03892700  0.76353800  0.14460500  1
  C  125  1  0.03468600  0.72914200  0.13391000  1
  C  126  1  0.03290100  0.70550000  0.15687400  1
  C  127  1  0.03944400  0.72311700  0.18338700  1
  C  128  1  0.04192200  0.70250900  0.20954200  1
  C  129  1  0.03491500  0.66564900  0.20879900  1
  C  130  1  0.02189100  0.65083100  0.18241700  1
  C  131  1  0.02271500  0.66995300  0.15595400  1
  C  132  1  0.03273900  0.72094900  0.10380100  1
  C  133  1  0.03300100  0.74851600  0.08353800  1
  C  134  1  0.03609500  0.78401700  0.09261300  1
  C  135  1  0.03891200  0.79151900  0.12352100  1
  C  136  1  0.01353000  0.78141700  0.19452400  1
  C  137  1  0.02905000  0.80284100  0.21613900  1
  C  138  1  0.06512300  0.80074800  0.21430800  1
  C  139  1  0.07428600  0.77818800  0.19111200  1
  C  140  1  0.09021800  0.81630900  0.23301700  1
  C  141  1  0.12590200  0.80962900  0.22782900  1
  C  142  1  0.13667500  0.78957700  0.20311800  1
  C  143  1  0.11056800  0.77294500  0.18531800  1
  C  144  1  0.97610500  0.77982400  0.19325700  1
  C  145  1  0.95563300  0.79967000  0.21373500  1
  C  146  1  0.97283600  0.81975300  0.23572400  1
  C  147  1  0.00941600  0.82207700  0.23678300  1
  C  160  1  0.04180800  0.76211400  0.17786100  1
  C  165  1  0.76699600  0.04400100  0.33485700  1
  C  166  1  0.73439300  0.04938300  0.34846200  1
  C  167  1  0.70808300  0.04761600  0.32773200  1
  C  168  1  0.72230600  0.04410300  0.29932400  1
  C  169  1  0.69850400  0.04476500  0.27486700  1
  C  170  1  0.66149100  0.04794900  0.27983400  1
  C  171  1  0.64917200  0.05075800  0.30925300  1
  C  172  1  0.67195200  0.04987200  0.33333333  1
  C  173  1  0.73101600  0.05907000  0.37829100  1
  C  174  1  0.76132200  0.06059100  0.39569300  1
  C  175  1  0.79382500  0.04863600  0.38468000  1
  C  176  1  0.79697500  0.04195500  0.35367300  1
  C  177  1  0.77690100  0.00931300  0.28762500  1
  C  178  1  0.79917700  0.01858000  0.26427600  1
  C  179  1  0.80139900  0.05466700  0.26269300  1
  C  180  1  0.78036400  0.07007700  0.28463900  1
  C  181  1  0.82091100  0.07440100  0.24230300  1
  C  182  1  0.81914500  0.11099300  0.24386200  1
  C  183  1  0.79933800  0.12809500  0.26608700  1
  C  184  1  0.77936200  0.10750500  0.28641100  1
  C  185  1  0.77218500  0.97302900  0.29367800  1
  C  186  1  0.78897500  0.94698300  0.27593300  1
  C  187  1  0.80889800  0.95778000  0.25115300  1
  C  188  1  0.81504300  0.99351800  0.24570700  1
  C  201  1  0.76183100  0.04169000  0.30182300  1
  C  206  1  0.31824900  0.04013000  0.33415200  1
  C  207  1  0.35224300  0.03970700  0.34610900  1
  C  208  1  0.37671000  0.04470600  0.32414500  1
  C  209  1  0.35996500  0.04274500  0.29672700  1
  C  210  1  0.38136400  0.04323400  0.27099500  1
  C  211  1  0.41820600  0.04948800  0.27337000  1
  C  212  1  0.43200600  0.05928600  0.30113700  1
  C  213  1  0.41209400  0.05479000  0.32696000  1
  C  214  1  0.35881800  0.03095300  0.37567200  1
  C  215  1  0.32998300  0.02591500  0.39438300  1
  C  216  1  0.29550200  0.03395300  0.38503300  1
  C  217  1  0.28945100  0.03964400  0.35425900  1
  C  218  1  0.30447200  0.07430800  0.28766900  1
  C  219  1  0.28239300  0.06495300  0.26427000  1
  C  220  1  0.28086700  0.02880600  0.26250700  1
  C  221  1  0.30244400  0.01354700  0.28418400  1
  C  222  1  0.26170900  0.00888000  0.24203600  1
  C  223  1  0.26418200  0.97231300  0.24340700  1
  C  224  1  0.28430400  0.95541000  0.26554800  1
  C  225  1  0.30415900  0.97616800  0.28581600  1
  C  226  1  0.30963200  0.11053400  0.29361600  1
  C  227  1  0.29318400  0.13660800  0.27576500  1
  C  228  1  0.27323400  0.12583400  0.25097900  1
  C  229  1  0.26679500  0.09009000  0.24561400  1
  C  242  1  0.32080500  0.04217700  0.30105100  1
  C  247  1  0.03965700  0.76690700  0.83481400  1
  C  248  1  0.03410700  0.73432800  0.84840900  1
  C  249  1  0.03591300  0.70801100  0.82769100  1
  C  250  1  0.03954800  0.72222200  0.79928900  1
  C  251  1  0.03903000  0.69839700  0.77484200  1
  C  252  1  0.03575900  0.66138700  0.77980900  1
  C  253  1  0.03278200  0.64908600  0.80921700  1
  C  254  1  0.03358900  0.67188300  0.83325700  1
  C  255  1  0.02423900  0.73101900  0.87820600  1
  C  256  1  0.02268300  0.76136000  0.89557300  1
  C  257  1  0.03496700  0.79376600  0.88461400  1
  C  258  1  0.04177500  0.79687700  0.85362700  1
  C  259  1  0.07441100  0.77681800  0.78760600  1
  C  260  1  0.06516000  0.79909200  0.76424900  1
  C  261  1  0.02907600  0.80131600  0.76264100  1
  C  262  1  0.01364500  0.78030600  0.78459500  1
  C  263  1  0.00936200  0.82083500  0.74224000  1
  C  264  1  0.97277100  0.81910900  0.74379300  1
  C  265  1  0.95564800  0.79935000  0.76603400  1
  C  266  1  0.97621400  0.77938300  0.78638100  1
  C  267  1  0.11069500  0.77210800  0.79367000  1
  C  268  1  0.13674800  0.78890000  0.77593200  1
  C  269  1  0.12596300  0.80882100  0.75115000  1
  C  270  1  0.09022700  0.81498600  0.74570600  1
  C  283  1  0.04201800  0.76174800  0.80178400  1
  C  288  1  0.04369900  0.31813000  0.83415800  1
  C  289  1  0.04420400  0.35211400  0.84612700  1
  C  290  1  0.03919700  0.37662500  0.82420000  1
  C  291  1  0.04114200  0.35993900  0.79675400  1
  C  292  1  0.04061700  0.38140700  0.77105100  1
  C  293  1  0.03434100  0.41824600  0.77349300  1
  C  294  1  0.02457000  0.43196400  0.80129100  1
  C  295  1  0.02918500  0.41202000  0.82707600  1
  C  296  1  0.05268400  0.35869400  0.87574200  1
  C  297  1  0.05746400  0.32987300  0.89450500  1
  C  298  1  0.04959400  0.29537500  0.88509500  1
  C  299  1  0.04414300  0.28932800  0.85427500  1
  C  300  1  0.00952700  0.30448000  0.78764000  1
  C  301  1  0.01884800  0.28243600  0.76420700  1
  C  302  1  0.05499200  0.28089200  0.76242000  1
  C  303  1  0.07028000  0.30241100  0.78412500  1
  C  304  1  0.07488900  0.26181900  0.74187100  1
  C  305  1  0.11145700  0.26424800  0.74322900  1
  C  306  1  0.12838300  0.28428900  0.76540500  1
  C  307  1  0.10766100  0.30408500  0.78574200  1
  C  308  1  0.97330200  0.30966600  0.79358900  1
  C  309  1  0.94721000  0.29325700  0.77573300  1
  C  310  1  0.95795700  0.27332100  0.75093100  1
  C  311  1  0.99369200  0.26684000  0.74556600  1
  C  324  1  0.04167900  0.32075800  0.80104200  1
  C  329  1  0.87531800  0.84019200  0.76009100  1
  C  330  1  0.88272500  0.86980900  0.74191100  1
  C  331  1  0.85706300  0.88389600  0.72251600  1
  C  332  1  0.82227300  0.87041500  0.72247700  1
  C  333  1  0.81497300  0.84067500  0.74060600  1
  C  334  1  0.84123900  0.82537200  0.75880600  1
  C  343  1  0.90226900  0.82645000  0.77752900  1
  C  345  1  0.79681200  0.88211100  0.70230100  1
  C  347  1  0.20876600  0.24376300  0.76000100  1
  C  348  1  0.20137300  0.21413600  0.74182900  1
  C  349  1  0.22704000  0.20008900  0.72241900  1
  C  350  1  0.26183400  0.21356700  0.72242800  1
  C  351  1  0.26911700  0.24329700  0.74057300  1
  C  352  1  0.24283000  0.25860600  0.75873600  1
  C  361  1  0.18177900  0.25760700  0.77731600  1
  C  363  1  0.28739100  0.20182300  0.70235700  1
  C  365  1  0.84025300  0.20844900  0.26002100  1
  C  366  1  0.86983100  0.20105900  0.24178800  1
  C  367  1  0.88391400  0.22675400  0.22242400  1
  C  368  1  0.87040300  0.26153000  0.22242200  1
  C  369  1  0.84069900  0.26881700  0.24059400  1
  C  370  1  0.82541200  0.24252000  0.25877000  1
  C  379  1  0.82642100  0.18140400  0.27735000  1
  C  381  1  0.88213000  0.28701700  0.20228900  1
  C  383  1  0.24368900  0.87500500  0.25996200  1
  C  384  1  0.21407800  0.88236300  0.24175900  1
  C  385  1  0.20003000  0.85665500  0.22238900  1
  C  386  1  0.21354000  0.82187600  0.22242400  1
  C  387  1  0.24324500  0.81461700  0.24060300  1
  C  388  1  0.25853800  0.84094100  0.25874300  1
  C  397  1  0.25760300  0.90208100  0.27719100  1
  C  399  1  0.20179400  0.79628000  0.20238200  1
  C  401  1  0.20833200  0.24411600  0.21977300  1
  C  402  1  0.20092400  0.21446100  0.23791300  1
  C  403  1  0.22664000  0.20025700  0.25719100  1
  C  404  1  0.26144500  0.21368200  0.25710200  1
  C  405  1  0.26875300  0.24346600  0.23904800  1
  C  406  1  0.24243700  0.25888000  0.22098700  1
  C  415  1  0.18136900  0.25797400  0.20242600  1
  C  417  1  0.28703500  0.20173700  0.27699400  1
  C  419  1  0.87513600  0.84000400  0.21979500  1
  C  420  1  0.88245200  0.86967100  0.23794400  1
  C  421  1  0.85668200  0.88378600  0.25722200  1
  C  422  1  0.82192700  0.87021700  0.25718600  1
  C  423  1  0.81474900  0.84039300  0.23912700  1
  C  424  1  0.84110000  0.82510000  0.22102000  1
  C  433  1  0.90210300  0.82631500  0.20238000  1
  C  435  1  0.79635800  0.88193300  0.27723300  1
  C  437  1  0.24369100  0.87513800  0.71985200  1
  C  438  1  0.21404600  0.88241600  0.73803600  1
  C  439  1  0.19993000  0.85660200  0.75727000  1
  C  440  1  0.21352900  0.82185900  0.75719700  1
  C  441  1  0.24332200  0.81471000  0.73909600  1
  C  442  1  0.25860300  0.84110200  0.72102400  1
  C  451  1  0.25748000  0.90220900  0.70256200  1
  C  453  1  0.20180100  0.79626000  0.77721300  1
  C  455  1  0.83970800  0.20834600  0.71984000  1
  C  456  1  0.86933300  0.20096600  0.73802800  1
  C  457  1  0.88355400  0.22672700  0.75725200  1
  C  458  1  0.87010900  0.26152200  0.75712100  1
  C  459  1  0.84034300  0.26880500  0.73904000  1
  C  460  1  0.82493500  0.24245100  0.72101300  1
  C  469  1  0.82577300  0.18130300  0.70258000  1
  C  471  1  0.88207500  0.28716500  0.77696000  1
  C  473  1  0.50278500  0.04543900  0.74176900  1
  C  474  1  0.52727200  0.04290300  0.76567700  1
  C  475  1  0.56419300  0.04515600  0.76130300  1
  C  476  1  0.57836300  0.04834900  0.73258700  1
  C  477  1  0.55424200  0.05091900  0.70864800  1
  C  478  1  0.51723200  0.05047700  0.71310200  1
  C  487  1  0.46624800  0.04642100  0.74809600  1
  C  489  1  0.61374000  0.05662500  0.72747900  1
  C  491  1  0.04544200  0.58105400  0.24171300  1
  C  492  1  0.04291300  0.55658100  0.26563200  1
  C  493  1  0.04520000  0.51965700  0.26128600  1
  C  494  1  0.04847900  0.50547900  0.23258200  1
  C  495  1  0.05108200  0.52957600  0.20863100  1
  C  496  1  0.05059000  0.56658900  0.21306500  1
  C  505  1  0.04644500  0.61759400  0.24802600  1
  C  507  1  0.05669400  0.47008700  0.22750000  1
  C  509  1  0.50288400  0.03913300  0.23933300  1
  C  510  1  0.52727700  0.04104800  0.21533200  1
  C  511  1  0.56417200  0.03813500  0.21966700  1
  C  512  1  0.57827000  0.03471300  0.24840000  1
  C  513  1  0.55424700  0.03269000  0.27238300  1
  C  514  1  0.51730300  0.03371100  0.26795400  1
  C  523  1  0.46630500  0.03985100  0.23338400  1
  C  525  1  0.61342200  0.02608200  0.25370500  1
  C  527  1  0.04458600  0.50302800  0.73937200  1
  C  528  1  0.04270200  0.52735900  0.71532700  1
  C  529  1  0.04564900  0.56425700  0.71958600  1
  C  530  1  0.04909300  0.57845400  0.74828400  1
  C  531  1  0.05115800  0.55448300  0.77230700  1
  C  532  1  0.05001300  0.51751400  0.76797700  1
  C  541  1  0.04377600  0.46642300  0.73349600  1
  C  543  1  0.05800000  0.61360900  0.75344800  1
  C  545  1  0.83163600  0.03896800  0.45787900  1
  C  546  1  0.86033200  0.04009800  0.47832200  1
  C  547  1  0.85541100  0.03757500  0.50938000  1
  C  548  1  0.82132700  0.03526300  0.52158500  1
  C  549  1  0.79253700  0.03435900  0.50154400  1
  C  550  1  0.79746800  0.03553200  0.47038900  1
  C  559  1  0.83898400  0.03822000  0.42704000  1
  C  561  1  0.81526900  0.02666900  0.55125800  1
  C  563  1  0.25515800  0.04353900  0.45815500  1
  C  564  1  0.22606800  0.04357400  0.47816500  1
  C  565  1  0.23061400  0.04672200  0.50924900  1
  C  566  1  0.26459300  0.04877700  0.52177300  1
  C  567  1  0.29365700  0.04878700  0.50209700  1
  C  568  1  0.28915300  0.04670500  0.47101100  1
  C  577  1  0.24902600  0.04254900  0.42720800  1
  C  579  1  0.27062500  0.05799600  0.55128300  1
  C  581  1  0.04011100  0.25428600  0.95810300  1
  C  582  1  0.04025800  0.22492300  0.97783000  1
  C  583  1  0.03732900  0.22898400  0.00898000  1
  C  584  1  0.03507300  0.26274500  0.02186400  1
  C  585  1  0.03469500  0.29211300  0.00247600  1
  C  586  1  0.03679000  0.28806500  0.97133600  1
  C  595  1  0.04109600  0.24859100  0.92708100  1
  C  597  1  0.02679700  0.26827200  0.05164200  1
  C  599  1  0.04475000  0.83064500  0.95793900  1
  C  600  1  0.04375300  0.85903300  0.97870200  1
  C  601  1  0.04646700  0.85360300  0.00968800  1
  C  602  1  0.04874600  0.81928600  0.02144200  1
  C  603  1  0.04917800  0.79080600  0.00113200  1
  C  604  1  0.04810200  0.79625600  0.97004900  1
  C  613  1  0.04548000  0.83848600  0.92718600  1
  C  615  1  0.05800200  0.81263800  0.05087400  1
  C  617  1  0.29159000  0.59741500  0.42311800  1
  C  618  1  0.25778900  0.59835900  0.41082000  1
  C  619  1  0.23269900  0.59461500  0.43229700  1
  C  620  1  0.24831500  0.59360800  0.46027200  1
  C  621  1  0.22535600  0.59025700  0.48521100  1
  C  622  1  0.18816100  0.58678100  0.48101600  1
  C  623  1  0.17514000  0.58410100  0.45182700  1
  C  624  1  0.19672300  0.58920000  0.42745400  1
  C  625  1  0.25109900  0.60367100  0.38071900  1
  C  626  1  0.27957700  0.60693600  0.36174500  1
  C  627  1  0.31456200  0.60284200  0.37180500  1
  C  628  1  0.32058400  0.59918000  0.40295800  1
  C  629  1  0.30586300  0.62299300  0.47381800  1
  C  630  1  0.32754800  0.60767400  0.49538800  1
  C  631  1  0.32632900  0.57159300  0.49332100  1
  C  632  1  0.30446600  0.56223500  0.46974400  1
  C  633  1  0.34216300  0.54661100  0.51199000  1
  C  634  1  0.33612900  0.51085100  0.50658300  1
  C  635  1  0.31643700  0.49992200  0.48172100  1
  C  636  1  0.29982400  0.52589700  0.46378900  1
  C  637  1  0.30442900  0.66042200  0.47234000  1
  C  638  1  0.32446300  0.68103400  0.49263100  1
  C  639  1  0.34453900  0.66396000  0.51470100  1
  C  640  1  0.34684700  0.62740500  0.51592000  1
  C  653  1  0.28789000  0.59443500  0.45639800  1
  C  658  1  0.84664100  0.59171300  0.42359300  1
  C  659  1  0.88103900  0.58748400  0.41290100  1
  C  660  1  0.90467840  0.58567400  0.43584900  1
  C  661  1  0.88705200  0.59216100  0.46236700  1
  C  662  1  0.90766640  0.59462200  0.48851700  1
  C  663  1  0.94451840  0.58758300  0.48775900  1
  C  664  1  0.95932340  0.57455500  0.46137400  1
  C  665  1  0.94021240  0.57545400  0.43491100  1
  C  666  1  0.88921800  0.58539900  0.38280500  1
  C  667  1  0.86162300  0.58552700  0.36258300  1
  C  668  1  0.82613600  0.58877200  0.37164600  1
  C  669  1  0.81864100  0.59170700  0.40253500  1
  C  670  1  0.82872500  0.56625100  0.47342400  1
  C  671  1  0.80719700  0.58174500  0.49497900  1
  C  672  1  0.80930800  0.61782300  0.49318800  1
  C  673  1  0.83195900  0.62700600  0.47006500  1
  C  674  1  0.79369500  0.64291400  0.51187000  1
  C  675  1  0.80038500  0.67860000  0.50669300  1
  C  676  1  0.82049400  0.68938000  0.48201800  1
  C  677  1  0.83718800  0.66328200  0.46425500  1
  C  678  1  0.83038000  0.52882900  0.47215500  1
  C  679  1  0.81047600  0.50832400  0.49256400  1
  C  680  1  0.79031400  0.52550300  0.51452000  1
  C  681  1  0.78793300  0.56208100  0.51558100  1
  C  694  1  0.84806400  0.59454800  0.45683100  1
  C  699  1  0.57108600  0.87126200  0.92334750  1
  C  700  1  0.57199200  0.90504910  0.91102750  1
  C  701  1  0.56821200  0.93016010  0.93247650  1
  C  702  1  0.56729800  0.91456810  0.96046050  1
  C  703  1  0.56394300  0.93754810  0.98538350  1
  C  704  1  0.56031400  0.97471910  0.98115350  1
  C  705  1  0.55757100  0.98771710  0.95195750  1
  C  706  1  0.56263700  0.96610510  0.92759850  1
  C  707  1  0.57757900  0.91171310  0.88096800  1
  C  708  1  0.58098400  0.88319600  0.86205500  1
  C  709  1  0.57664800  0.84823100  0.87209500  1
  C  710  1  0.57285500  0.84223800  0.90323050  1
  C  711  1  0.59669300  0.85700400  0.97401950  1
  C  712  1  0.58136200  0.83532800  0.99559253  1
  C  713  1  0.54528100  0.83654900  0.99351153  1
  C  714  1  0.53593800  0.85845400  0.96996550  1
  C  715  1  0.52027200  0.82066600  0.01212300  1
  C  716  1  0.48451400  0.82667300  0.00666500  1
  C  717  1  0.47362200  0.84637600  0.98179450  1
  C  718  1  0.49961900  0.86301700  0.96390650  1
  C  719  1  0.63412400  0.85834900  0.97248650  1
  C  720  1  0.65472500  0.83829100  0.99276853  1
  C  721  1  0.63764600  0.81825100  0.01485900  1
  C  722  1  0.60108600  0.81600600  0.01611100  1
  C  735  1  0.56813500  0.87499200  0.95661250  1
  C  740  1  0.56528100  0.31620600  0.92345850  1
  C  741  1  0.56104000  0.28181000  0.91276350  1
  C  742  1  0.55925500  0.25816800  0.93572750  1
  C  743  1  0.56579800  0.27578500  0.96224050  1
  C  744  1  0.56827600  0.25517700  0.98839550  1
  C  745  1  0.56126900  0.21831700  0.98765250  1
  C  746  1  0.54824500  0.20349900  0.96127050  1
  C  747  1  0.54906900  0.22262100  0.93480750  1
  C  748  1  0.55909300  0.27361700  0.88265500  1
  C  749  1  0.55935500  0.30118400  0.86239200  1
  C  750  1  0.56244900  0.33668500  0.87146700  1
  C  751  1  0.56526600  0.34418700  0.90237450  1
  C  752  1  0.53988400  0.33408500  0.97337750  1
  C  753  1  0.55540400  0.35550900  0.99499253  1
  C  754  1  0.59147700  0.35341600  0.99316153  1
  C  755  1  0.60064000  0.33085600  0.96996550  1
  C  756  1  0.61657200  0.36897700  0.01187100  1
  C  757  1  0.65225600  0.36229700  0.00668300  1
  C  758  1  0.66302900  0.34224500  0.98197150  1
  C  759  1  0.63692200  0.32561300  0.96417150  1
  C  760  1  0.50245900  0.33249200  0.97211050  1
  C  761  1  0.48198700  0.35233800  0.99258853  1
  C  762  1  0.49919000  0.37242100  0.01457800  1
  C  763  1  0.53577000  0.37474500  0.01563700  1
  C  776  1  0.56816200  0.31478200  0.95671450  1
  C  781  1  0.29335000  0.59666900  0.11371100  1
  C  782  1  0.26074700  0.60205100  0.12731600  1
  C  783  1  0.23443700  0.60028400  0.10658600  1
  C  784  1  0.24866000  0.59677100  0.07817800  1
  C  785  1  0.22485800  0.59743300  0.05372100  1
  C  786  1  0.18784500  0.60061700  0.05868800  1
  C  787  1  0.17552600  0.60342600  0.08810700  1
  C  788  1  0.19830600  0.60254000  0.11215000  1
  C  789  1  0.25737000  0.61173800  0.15714500  1
  C  790  1  0.28767600  0.61325900  0.17454700  1
  C  791  1  0.32017900  0.60130400  0.16353400  1
  C  792  1  0.32332900  0.59462300  0.13252700  1
  C  793  1  0.30325500  0.56198100  0.06647900  1
  C  794  1  0.32553100  0.57124800  0.04313000  1
  C  795  1  0.32775300  0.60733500  0.04154700  1
  C  796  1  0.30671800  0.62274500  0.06349300  1
  C  797  1  0.34726500  0.62706900  0.02115700  1
  C  798  1  0.34549900  0.66366100  0.02271600  1
  C  799  1  0.32569200  0.68076300  0.04494100  1
  C  800  1  0.30571600  0.66017300  0.06526500  1
  C  801  1  0.29853900  0.52569700  0.07253200  1
  C  802  1  0.31532900  0.49965100  0.05478700  1
  C  803  1  0.33525200  0.51044800  0.03000700  1
  C  804  1  0.34139700  0.54618600  0.02456100  1
  C  817  1  0.28818500  0.59435800  0.08067700  1
  C  822  1  0.84460300  0.59279800  0.11300600  1
  C  823  1  0.87859700  0.59237500  0.12496300  1
  C  824  1  0.90306440  0.59737400  0.10299900  1
  C  825  1  0.88631900  0.59541300  0.07558100  1
  C  826  1  0.90771840  0.59590200  0.04984900  1
  C  827  1  0.94456040  0.60215600  0.05222400  1
  C  828  1  0.95836040  0.61195400  0.07999100  1
  C  829  1  0.93844840  0.60745800  0.10581400  1
  C  830  1  0.88517200  0.58362100  0.15452600  1
  C  831  1  0.85633700  0.57858300  0.17323700  1
  C  832  1  0.82185600  0.58662100  0.16388700  1
  C  833  1  0.81580500  0.59231200  0.13311300  1
  C  834  1  0.83082600  0.62697600  0.06652300  1
  C  835  1  0.80874700  0.61762100  0.04312400  1
  C  836  1  0.80722100  0.58147400  0.04136100  1
  C  837  1  0.82879800  0.56621500  0.06303800  1
  C  838  1  0.78806300  0.56154800  0.02089000  1
  C  839  1  0.79053600  0.52498100  0.02226100  1
  C  840  1  0.81065800  0.50807800  0.04440200  1
  C  841  1  0.83051300  0.52883600  0.06467000  1
  C  842  1  0.83598600  0.66320200  0.07247000  1
  C  843  1  0.81953800  0.68927600  0.05461900  1
  C  844  1  0.79958800  0.67850200  0.02983300  1
  C  845  1  0.79314900  0.64275800  0.02446800  1
  C  858  1  0.84715900  0.59484500  0.07990500  1
  C  863  1  0.56601100  0.31957500  0.61366800  1
  C  864  1  0.56046100  0.28699600  0.62726300  1
  C  865  1  0.56226700  0.26067900  0.60654500  1
  C  866  1  0.56590200  0.27489000  0.57814300  1
  C  867  1  0.56538400  0.25106500  0.55369600  1
  C  868  1  0.56211300  0.21405500  0.55866300  1
  C  869  1  0.55913600  0.20175400  0.58807100  1
  C  870  1  0.55994300  0.22455100  0.61211100  1
  C  871  1  0.55059300  0.28368700  0.65706000  1
  C  872  1  0.54903700  0.31402800  0.67442700  1
  C  873  1  0.56132100  0.34643400  0.66346800  1
  C  874  1  0.56812900  0.34954500  0.63248100  1
  C  875  1  0.60076500  0.32948600  0.56646000  1
  C  876  1  0.59151400  0.35176000  0.54310300  1
  C  877  1  0.55543000  0.35398400  0.54149500  1
  C  878  1  0.53999900  0.33297400  0.56344900  1
  C  879  1  0.53571600  0.37350300  0.52109400  1
  C  880  1  0.49912500  0.37177700  0.52264700  1
  C  881  1  0.48200200  0.35201800  0.54488800  1
  C  882  1  0.50256800  0.33205100  0.56523500  1
  C  883  1  0.63704900  0.32477600  0.57252400  1
  C  884  1  0.66310200  0.34156800  0.55478600  1
  C  885  1  0.65231700  0.36148900  0.53000400  1
  C  886  1  0.61658100  0.36765400  0.52456000  1
  C  899  1  0.56837200  0.31441600  0.58063800  1
  C  904  1  0.57005300  0.87079800  0.61301200  1
  C  905  1  0.57055800  0.90478210  0.62498100  1
  C  906  1  0.56555100  0.92929310  0.60305400  1
  C  907  1  0.56749600  0.91260710  0.57560800  1
  C  908  1  0.56697100  0.93407510  0.54990500  1
  C  909  1  0.56069500  0.97091410  0.55234700  1
  C  910  1  0.55092400  0.98463210  0.58014500  1
  C  911  1  0.55553900  0.96468810  0.60593000  1
  C  912  1  0.57903800  0.91136210  0.65459600  1
  C  913  1  0.58381800  0.88254100  0.67335900  1
  C  914  1  0.57594800  0.84804300  0.66394900  1
  C  915  1  0.57049700  0.84199600  0.63312900  1
  C  916  1  0.53588100  0.85714800  0.56649400  1
  C  917  1  0.54520200  0.83510400  0.54306100  1
  C  918  1  0.58134600  0.83356000  0.54127400  1
  C  919  1  0.59663400  0.85507900  0.56297900  1
  C  920  1  0.60124300  0.81448700  0.52072500  1
  C  921  1  0.63781100  0.81691600  0.52208300  1
  C  922  1  0.65473700  0.83695700  0.54425900  1
  C  923  1  0.63401500  0.85675300  0.56459600  1
  C  924  1  0.49965600  0.86233400  0.57244300  1
  C  925  1  0.47356400  0.84592500  0.55458700  1
  C  926  1  0.48431100  0.82598900  0.52978500  1
  C  927  1  0.52004600  0.81950800  0.52442000  1
  C  940  1  0.56803300  0.87342600  0.57989600  1
  C  945  1  0.40167200  0.39286000  0.53894500  1
  C  946  1  0.40907900  0.42247700  0.52076500  1
  C  947  1  0.38341700  0.43656400  0.50137000  1
  C  948  1  0.34862700  0.42308300  0.50133100  1
  C  949  1  0.34132700  0.39334300  0.51946000  1
  C  950  1  0.36759300  0.37804000  0.53766000  1
  C  959  1  0.42862300  0.37911800  0.55638300  1
  C  961  1  0.32316600  0.43477900  0.48115500  1
  C  963  1  0.73512000  0.79643100  0.53885500  1
  C  964  1  0.72772700  0.76680400  0.52068300  1
  C  965  1  0.75339400  0.75275700  0.50127300  1
  C  966  1  0.78818800  0.76623500  0.50128200  1
  C  967  1  0.79547100  0.79596500  0.51942700  1
  C  968  1  0.76918400  0.81127400  0.53759000  1
  C  977  1  0.70813300  0.81027500  0.55617000  1
  C  979  1  0.81374500  0.75449100  0.48121100  1
  C  981  1  0.36660700  0.76111700  0.03887500  1
  C  982  1  0.39618500  0.75372700  0.02064200  1
  C  983  1  0.41026800  0.77942200  0.00127800  1
  C  984  1  0.39675700  0.81419800  0.00127600  1
  C  985  1  0.36705300  0.82148500  0.01944800  1
  C  986  1  0.35176600  0.79518800  0.03762400  1
  C  995  1  0.35277500  0.73407200  0.05620400  1
  C  997  1  0.40848400  0.83968500  0.98114250  1
  C  999  1  0.77004300  0.42767300  0.03881600  1
  C  1000  1  0.74043200  0.43503100  0.02061300  1
  C  1001  1  0.72638400  0.40932300  0.00124300  1
  C  1002  1  0.73989400  0.37454400  0.00127800  1
  C  1003  1  0.76959900  0.36728500  0.01945700  1
  C  1004  1  0.78489200  0.39360900  0.03759700  1
  C  1013  1  0.78395700  0.45474900  0.05604500  1
  C  1015  1  0.72814800  0.34894800  0.98123550  1
  C  1017  1  0.73468600  0.79678400  0.99862653  1
  C  1018  1  0.72727800  0.76712900  0.01676700  1
  C  1019  1  0.75299400  0.75292500  0.03604500  1
  C  1020  1  0.78779900  0.76635000  0.03595600  1
  C  1021  1  0.79510700  0.79613400  0.01790200  1
  C  1022  1  0.76879100  0.81154800  0.99984053  1
  C  1031  1  0.70772300  0.81064200  0.98127950  1
  C  1033  1  0.81338900  0.75440500  0.05584800  1
  C  1035  1  0.40149000  0.39267200  0.99864853  1
  C  1036  1  0.40880600  0.42233900  0.01679800  1
  C  1037  1  0.38303600  0.43645400  0.03607600  1
  C  1038  1  0.34828100  0.42288500  0.03604000  1
  C  1039  1  0.34110300  0.39306100  0.01798100  1
  C  1040  1  0.36745400  0.37776800  0.99987353  1
  C  1049  1  0.42845700  0.37898300  0.98123350  1
  C  1051  1  0.32271200  0.43460100  0.05608700  1
  C  1053  1  0.77004500  0.42780600  0.49870600  1
  C  1054  1  0.74040000  0.43508400  0.51689000  1
  C  1055  1  0.72628400  0.40927000  0.53612400  1
  C  1056  1  0.73988300  0.37452700  0.53605100  1
  C  1057  1  0.76967600  0.36737800  0.51795000  1
  C  1058  1  0.78495700  0.39377000  0.49987800  1
  C  1067  1  0.78383400  0.45487700  0.48141600  1
  C  1069  1  0.72815500  0.34892800  0.55606700  1
  C  1071  1  0.36606200  0.76101400  0.49869400  1
  C  1072  1  0.39568700  0.75363400  0.51688200  1
  C  1073  1  0.40990800  0.77939500  0.53610600  1
  C  1074  1  0.39646300  0.81419000  0.53597500  1
  C  1075  1  0.36669700  0.82147300  0.51789400  1
  C  1076  1  0.35128900  0.79511900  0.49986700  1
  C  1085  1  0.35212700  0.73397100  0.48143400  1
  C  1087  1  0.40842900  0.83983300  0.55581400  1
  C  1089  1  0.02913900  0.59810700  0.52062300  1
  C  1090  1  0.05362600  0.59557100  0.54453100  1
  C  1091  1  0.09054700  0.59782400  0.54015700  1
  C  1092  1  0.10471700  0.60101700  0.51144100  1
  C  1093  1  0.08059600  0.60358700  0.48750200  1
  C  1094  1  0.04358600  0.60314500  0.49195600  1
  C  1103  1  0.99260243  0.59908900  0.52695000  1
  C  1105  1  0.14009400  0.60929300  0.50633300  1
  C  1107  1  0.57179600  0.13372200  0.02056700  1
  C  1108  1  0.56926700  0.10924900  0.04448600  1
  C  1109  1  0.57155400  0.07232500  0.04014000  1
  C  1110  1  0.57483300  0.05814700  0.01143600  1
  C  1111  1  0.57743600  0.08224400  0.98748450  1
  C  1112  1  0.57694400  0.11925700  0.99191853  1
  C  1121  1  0.57279900  0.17026200  0.02688000  1
  C  1123  1  0.58304800  0.02275500  0.00635400  1
  C  1125  1  0.02923800  0.59180100  0.01818700  1
  C  1126  1  0.05363100  0.59371600  0.99418553  1
  C  1127  1  0.09052600  0.59080300  0.99852053  1
  C  1128  1  0.10462400  0.58738100  0.02725400  1
  C  1129  1  0.08060100  0.58535800  0.05123700  1
  C  1130  1  0.04365700  0.58637900  0.04680800  1
  C  1139  1  0.99265943  0.59251900  0.01223800  1
  C  1141  1  0.13977600  0.57875000  0.03255900  1
  C  1143  1  0.57094000  0.05569600  0.51822600  1
  C  1144  1  0.56905600  0.08002700  0.49418100  1
  C  1145  1  0.57200300  0.11692500  0.49844000  1
  C  1146  1  0.57544700  0.13112200  0.52713800  1
  C  1147  1  0.57751200  0.10715100  0.55116100  1
  C  1148  1  0.57636700  0.07018200  0.54683100  1
  C  1157  1  0.57013000  0.01909100  0.51235000  1
  C  1159  1  0.58435400  0.16627700  0.53230200  1
  C  1161  1  0.35799000  0.59163600  0.23673300  1
  C  1162  1  0.38668600  0.59276600  0.25717600  1
  C  1163  1  0.38176500  0.59024300  0.28823400  1
  C  1164  1  0.34768100  0.58793100  0.30043900  1
  C  1165  1  0.31889100  0.58702700  0.28039800  1
  C  1166  1  0.32382200  0.58820000  0.24924300  1
  C  1175  1  0.36533800  0.59088800  0.20589400  1
  C  1177  1  0.34162300  0.57933700  0.33011200  1
  C  1179  1  0.78151200  0.59620700  0.23700900  1
  C  1180  1  0.75242200  0.59624200  0.25701900  1
  C  1181  1  0.75696800  0.59939000  0.28810300  1
  C  1182  1  0.79094700  0.60144500  0.30062700  1
  C  1183  1  0.82001100  0.60145500  0.28095100  1
  C  1184  1  0.81550700  0.59937300  0.24986500  1
  C  1193  1  0.77538000  0.59521700  0.20606200  1
  C  1195  1  0.79697900  0.61066400  0.33013700  1
  C  1197  1  0.56646500  0.80695400  0.73695700  1
  C  1198  1  0.56661200  0.77759100  0.75668400  1
  C  1199  1  0.56368300  0.78165200  0.78783400  1
  C  1200  1  0.56142700  0.81541300  0.80071800  1
  C  1201  1  0.56104900  0.84478100  0.78133000  1
  C  1202  1  0.56314400  0.84073300  0.75019000  1
  C  1211  1  0.56745000  0.80125900  0.70593500  1
  C  1213  1  0.55315100  0.82094000  0.83049600  1
  C  1215  1  0.57110400  0.38331300  0.73679300  1
  C  1216  1  0.57010700  0.41170100  0.75755600  1
  C  1217  1  0.57282100  0.40627100  0.78854200  1
  C  1218  1  0.57510000  0.37195400  0.80029600  1
  C  1219  1  0.57553200  0.34347400  0.77998600  1
  C  1220  1  0.57445600  0.34892400  0.74890300  1
  C  1229  1  0.57183400  0.39115400  0.70604000  1
  C  1231  1  0.58435600  0.36530600  0.82972800  1
  N  38  1  0.78594400  0.91342800  0.69608700  1
  N  39  1  0.81112200  0.05174700  0.57033700  1
  N  40  1  0.63569100  0.03142700  0.72203200  1
  N  41  1  0.80137700  0.16321800  0.71524500  1
  N  79  1  0.29834500  0.17049600  0.69627700  1
  N  80  1  0.27727400  0.03330100  0.57007300  1
  N  81  1  0.43844300  0.04166000  0.73221600  1
  N  82  1  0.28130100  0.92080800  0.71544800  1
  N  120  1  0.91346100  0.29787600  0.19611900  1
  N  121  1  0.05191000  0.27268300  0.07062500  1
  N  122  1  0.03142600  0.44818600  0.22215400  1
  N  123  1  0.16321500  0.28219400  0.21531400  1
  N  161  1  0.17047000  0.78533500  0.19627600  1
  N  162  1  0.03336400  0.80654800  0.06987700  1
  N  163  1  0.04167700  0.64538300  0.23211900  1
  N  164  1  0.92079200  0.80265900  0.21544300  1
  N  202  1  0.80243200  0.16295000  0.26453300  1
  N  203  1  0.81987800  0.04269000  0.40374000  1
  N  204  1  0.63526200  0.05094800  0.26018300  1
  N  205  1  0.78516700  0.91323300  0.28308000  1
  N  243  1  0.28140700  0.92054300  0.26414100  1
  N  244  1  0.27109000  0.03841700  0.40584500  1
  N  245  1  0.43946800  0.04422200  0.25042800  1
  N  246  1  0.29771000  0.17027600  0.28281500  1
  N  284  1  0.92079800  0.80261900  0.76452500  1
  N  285  1  0.04101000  0.81987300  0.90360200  1
  N  286  1  0.03294900  0.63515200  0.76014700  1
  N  287  1  0.17050100  0.78507000  0.78306200  1
  N  325  1  0.16324100  0.28121800  0.76404300  1
  N  326  1  0.04521000  0.27098600  0.90595500  1
  N  327  1  0.03948300  0.43962800  0.75060600  1
  N  328  1  0.91354300  0.29783000  0.78277000  1
  N  654  1  0.31229800  0.46609600  0.47494100  1
  N  655  1  0.33747600  0.60441500  0.34919100  1
  N  656  1  0.16204500  0.58409500  0.50088600  1
  N  657  1  0.32773100  0.71588600  0.49409900  1
  N  695  1  0.82469900  0.72316400  0.47513100  1
  N  696  1  0.80362800  0.58596900  0.34892700  1
  N  697  1  0.96479740  0.59432800  0.51107000  1
  N  698  1  0.80765500  0.47347600  0.49430200  1
  N  736  1  0.43981500  0.85054400  0.97497250  1
  N  737  1  0.57826400  0.82535100  0.84947900  1
  N  738  1  0.55778000  0.00085400  0.00100800  1
  N  739  1  0.68956900  0.83486200  0.99416753  1
  N  777  1  0.69682400  0.33800300  0.97512950  1
  N  778  1  0.55971800  0.35921600  0.84873100  1
  N  779  1  0.56803100  0.19805100  0.01097300  1
  N  780  1  0.44714600  0.35532700  0.99429653  1
  N  818  1  0.32878600  0.71561800  0.04338700  1
  N  819  1  0.34623200  0.59535800  0.18259400  1
  N  820  1  0.16161600  0.60361600  0.03903700  1
  N  821  1  0.31152100  0.46590100  0.06193400  1
  N  859  1  0.80776100  0.47321100  0.04299500  1
  N  860  1  0.79744400  0.59108500  0.18469900  1
  N  861  1  0.96582240  0.59689000  0.02928200  1
  N  862  1  0.82406400  0.72294400  0.06166900  1
  N  900  1  0.44715200  0.35528700  0.54337900  1
  N  901  1  0.56736400  0.37254100  0.68245600  1
  N  902  1  0.55930300  0.18782000  0.53900100  1
  N  903  1  0.69685500  0.33773800  0.56191600  1
  N  941  1  0.68959500  0.83388600  0.54289700  1
  N  942  1  0.57156400  0.82365400  0.68480900  1
  N  943  1  0.56583700  0.99229607  0.52946000  1
  N  944  1  0.43989700  0.85049800  0.56162400  1
  O  335  1  0.86664000  0.90879200  0.70218600  1
  O  337  1  0.91558000  0.88427100  0.74135100  1
  O  338  1  0.78220200  0.82605000  0.74087100  1
  O  339  1  0.83332500  0.79642500  0.77528900  1
  O  353  1  0.21748900  0.17521900  0.70205400  1
  O  355  1  0.16854700  0.19960300  0.74131600  1
  O  356  1  0.30188600  0.25792700  0.74087600  1
  O  357  1  0.25071300  0.28756200  0.77522000  1
  O  371  1  0.90880200  0.21720400  0.20207400  1
  O  373  1  0.88428700  0.16820400  0.24117100  1
  O  374  1  0.82607300  0.30158800  0.24089200  1
  O  375  1  0.79646200  0.25039800  0.27526100  1
  O  389  1  0.17516200  0.86617200  0.20201200  1
  O  391  1  0.19954000  0.91518500  0.24120000  1
  O  392  1  0.25789100  0.78185700  0.24093900  1
  O  393  1  0.28749500  0.83309700  0.27523800  1
  O  407  1  0.21714300  0.17530200  0.27750500  1
  O  409  1  0.16805900  0.20003300  0.23853300  1
  O  410  1  0.30156400  0.25800400  0.23870700  1
  O  411  1  0.25034800  0.28785400  0.20454200  1
  O  425  1  0.86609900  0.90883200  0.27747200  1
  O  427  1  0.91527700  0.88419700  0.23856100  1
  O  428  1  0.78201400  0.82569400  0.23882200  1
  O  429  1  0.83330200  0.79610300  0.20456000  1
  O  443  1  0.17489000  0.86598800  0.77753500  1
  O  445  1  0.19953100  0.91524500  0.73872400  1
  O  446  1  0.25803100  0.78198100  0.73875100  1
  O  447  1  0.28760900  0.83335000  0.70455700  1
  O  461  1  0.90851500  0.21727400  0.77757500  1
  O  463  1  0.88374700  0.16809500  0.73870600  1
  O  464  1  0.82579700  0.30161300  0.73866000  1
  O  465  1  0.79595600  0.25032100  0.70456100  1
  O  479  1  0.58594000  0.04757700  0.78517700  1
  O  481  1  0.51591100  0.04244900  0.79428500  1
  O  482  1  0.56634200  0.05574700  0.68052300  1
  O  483  1  0.49626600  0.06314900  0.69098500  1
  O  497  1  0.04755700  0.49792000  0.28517200  1
  O  499  1  0.04237800  0.56796000  0.29423500  1
  O  500  1  0.05594600  0.51744500  0.18051700  1
  O  501  1  0.06325000  0.58756300  0.19095100  1
  O  515  1  0.58587000  0.03550300  0.19578300  1
  O  517  1  0.51575000  0.04159200  0.18677300  1
  O  518  1  0.56628700  0.02780400  0.30051300  1
  O  519  1  0.49620900  0.02093600  0.28992300  1
  O  533  1  0.04832600  0.58588000  0.69565600  1
  O  535  1  0.04212700  0.51573600  0.68679200  1
  O  536  1  0.05619100  0.56659000  0.80039400  1
  O  537  1  0.06253300  0.49645400  0.79005600  1
  O  551  1  0.88394600  0.03419400  0.52738800  1
  O  553  1  0.89429100  0.03972900  0.46858700  1
  O  554  1  0.75902100  0.03079900  0.51202500  1
  O  555  1  0.76990800  0.02563000  0.45296500  1
  O  569  1  0.20189200  0.05065600  0.52695000  1
  O  571  1  0.19237100  0.04428400  0.46783900  1
  O  572  1  0.32708500  0.05230000  0.51271900  1
  O  573  1  0.31736700  0.05520100  0.45389600  1
  O  587  1  0.03368900  0.19998700  0.02639600  1
  O  589  1  0.03965300  0.19137900  0.96716700  1
  O  590  1  0.03083200  0.32538500  0.01341200  1
  O  591  1  0.02861000  0.31656000  0.95444100  1
  O  605  1  0.05004800  0.88183200  0.02802300  1
  O  607  1  0.04407700  0.89314700  0.96934200  1
  O  608  1  0.05232700  0.75712100  0.01128200  1
  O  609  1  0.05816000  0.76903900  0.95231900  1
  O  951  1  0.39299400  0.46146000  0.48104000  1
  O  953  1  0.44193400  0.43693900  0.52020500  1
  O  954  1  0.30855600  0.37871800  0.51972500  1
  O  955  1  0.35967900  0.34909300  0.55414300  1
  O  969  1  0.74384300  0.72788700  0.48090800  1
  O  971  1  0.69490100  0.75227100  0.52017000  1
  O  972  1  0.82824000  0.81059500  0.51973000  1
  O  973  1  0.77706700  0.84023000  0.55407400  1
  O  987  1  0.43515600  0.76987200  0.98092750  1
  O  989  1  0.41064100  0.72087200  0.02002500  1
  O  990  1  0.35242700  0.85425600  0.01974600  1
  O  991  1  0.32281600  0.80306600  0.05411500  1
  O  1005  1  0.70151600  0.41884000  0.98086550  1
  O  1007  1  0.72589400  0.46785300  0.02005400  1
  O  1008  1  0.78424500  0.33452500  0.01979300  1
  O  1009  1  0.81384900  0.38576500  0.05409200  1
  O  1023  1  0.74349700  0.72797000  0.05635900  1
  O  1025  1  0.69441300  0.75270100  0.01738700  1
  O  1026  1  0.82791800  0.81067200  0.01756100  1
  O  1027  1  0.77670200  0.84052200  0.98339550  1
  O  1041  1  0.39245300  0.46150000  0.05632600  1
  O  1043  1  0.44163100  0.43686500  0.01741500  1
  O  1044  1  0.30836800  0.37836200  0.01767600  1
  O  1045  1  0.35965600  0.34877100  0.98341350  1
  O  1059  1  0.70124400  0.41865600  0.55638900  1
  O  1061  1  0.72588500  0.46791300  0.51757800  1
  O  1062  1  0.78438500  0.33464900  0.51760500  1
  O  1063  1  0.81396300  0.38601800  0.48341100  1
  O  1077  1  0.43486900  0.76994200  0.55642900  1
  O  1079  1  0.41010100  0.72076300  0.51756000  1
  O  1080  1  0.35215100  0.85428100  0.51751400  1
  O  1081  1  0.32231000  0.80298900  0.48341500  1
  O  1095  1  0.11229400  0.60024500  0.56403100  1
  O  1097  1  0.04226500  0.59511700  0.57313900  1
  O  1098  1  0.09269600  0.60841500  0.45937700  1
  O  1099  1  0.02262000  0.61581700  0.46983900  1
  O  1113  1  0.57391100  0.05058800  0.06402600  1
  O  1115  1  0.56873200  0.12062800  0.07308900  1
  O  1116  1  0.58230000  0.07011300  0.95937050  1
  O  1117  1  0.58960400  0.14023100  0.96980450  1
  O  1131  1  0.11222400  0.58817100  0.97463650  1
  O  1133  1  0.04210400  0.59426000  0.96562650  1
  O  1134  1  0.09264100  0.58047200  0.07936700  1
  O  1135  1  0.02256300  0.57360400  0.06877700  1
  O  1149  1  0.57468000  0.13854800  0.47451000  1
  O  1151  1  0.56848100  0.06840400  0.46564600  1
  O  1152  1  0.58254500  0.11925800  0.57924800  1
  O  1153  1  0.58888700  0.04912200  0.56891000  1
  O  1167  1  0.41030000  0.58686200  0.30624200  1
  O  1169  1  0.42064500  0.59239700  0.24744100  1
  O  1170  1  0.28537500  0.58346700  0.29087900  1
  O  1171  1  0.29626200  0.57829800  0.23181900  1
  O  1185  1  0.72824600  0.60332400  0.30580400  1
  O  1187  1  0.71872500  0.59695200  0.24669300  1
  O  1188  1  0.85343900  0.60496800  0.29157300  1
  O  1189  1  0.84372100  0.60786900  0.23275000  1
  O  1203  1  0.56004300  0.75265500  0.80525000  1
  O  1205  1  0.56600700  0.74404700  0.74602100  1
  O  1206  1  0.55718600  0.87805300  0.79226600  1
  O  1207  1  0.55496400  0.86922800  0.73329500  1
  O  1221  1  0.57640200  0.43450000  0.80687700  1
  O  1223  1  0.57043100  0.44581500  0.74819600  1
  O  1224  1  0.57868100  0.30978900  0.79013600  1
  O  1225  1  0.58451400  0.32170700  0.73117300  1
