# generated using pymatgen
data_H18C17N2
_symmetry_space_group_name_H-M   'P 1'
_cell_length_a   28.17320000
_cell_length_b   28.17320000
_cell_length_c   28.17320000
_cell_angle_alpha   90.00000000
_cell_angle_beta   90.00000000
_cell_angle_gamma   90.00000000
_symmetry_Int_Tables_number   1
_chemical_formula_structural   H18C17N2
_chemical_formula_sum   'H576 C544 N64'
_cell_volume   22361.89144786
_cell_formula_units_Z   32
loop_
 _symmetry_equiv_pos_site_id
 _symmetry_equiv_pos_as_xyz
  1  'x, y, z'
loop_
 _atom_site_type_symbol
 _atom_site_label
 _atom_site_symmetry_multiplicity
 _atom_site_fract_x
 _atom_site_fract_y
 _atom_site_fract_z
 _atom_site_occupancy
  H  5  1  0.17808000  0.12901900  0.23364000  1
  H  6  1  0.23043700  0.13012200  0.20028900  1
  H  9  1  0.22784800  0.12083800  0.11218700  1
  H  10  1  0.17725500  0.09755600  0.08304400  1
  H  11  1  0.23802100  0.20387300  0.13224600  1
  H  12  1  0.19038300  0.24374600  0.12962400  1
  H  15  1  0.10534400  0.15571300  0.07314700  1
  H  16  1  0.11055200  0.21440000  0.09376900  1
  H  18  1  0.09937400  0.08930100  0.13157100  1
  H  19  1  0.10015200  0.10059600  0.19233800  1
  H  21  1  0.11679500  0.23367300  0.17788700  1
  H  22  1  0.11425100  0.19047700  0.22311200  1
  H  27  1  0.81441900  0.86372500  0.23379000  1
  H  28  1  0.76216000  0.86251800  0.20028500  1
  H  31  1  0.76498900  0.87171800  0.11218900  1
  H  32  1  0.81563300  0.89501700  0.08315800  1
  H  33  1  0.75480600  0.78870000  0.13235900  1
  H  34  1  0.80249000  0.74886800  0.12984000  1
  H  37  1  0.88758500  0.83688700  0.07349800  1
  H  38  1  0.88228500  0.77823200  0.09421700  1
  H  40  1  0.89339500  0.90341900  0.13193300  1
  H  41  1  0.89243700  0.89216000  0.19271900  1
  H  43  1  0.87597800  0.75908300  0.17828700  1
  H  44  1  0.87838800  0.80235500  0.22346400  1
  H  49  1  0.81476700  0.12918800  0.75928900  1
  H  50  1  0.76243400  0.13025500  0.79268200  1
  H  53  1  0.76511700  0.12094500  0.88077000  1
  H  54  1  0.81574300  0.09773300  0.90989300  1
  H  55  1  0.75481700  0.20397400  0.86069400  1
  H  56  1  0.80240800  0.24390900  0.86332000  1
  H  59  1  0.88758500  0.15595100  0.91973900  1
  H  60  1  0.88231700  0.21462900  0.89911300  1
  H  62  1  0.89360800  0.08954800  0.86127600  1
  H  63  1  0.89274600  0.10087700  0.80050900  1
  H  65  1  0.87598100  0.23391800  0.81504800  1
  H  66  1  0.87855800  0.19073800  0.76981300  1
  H  71  1  0.17821000  0.86377100  0.75898400  1
  H  72  1  0.23047400  0.86265300  0.79248700  1
  H  75  1  0.22762900  0.87191400  0.88059600  1
  H  76  1  0.17693700  0.89509900  0.90961600  1
  H  77  1  0.23798500  0.78890600  0.86039600  1
  H  78  1  0.19039400  0.74896000  0.86294400  1
  H  81  1  0.10511200  0.83682700  0.91929600  1
  H  82  1  0.11050200  0.77817900  0.89858800  1
  H  84  1  0.09916100  0.90332300  0.86084600  1
  H  85  1  0.10013700  0.89201100  0.80007200  1
  H  87  1  0.11685400  0.75901900  0.81454400  1
  H  88  1  0.11434800  0.80225500  0.76934100  1
  H  93  1  0.12734400  0.17967400  0.76670700  1
  H  94  1  0.12946300  0.22783600  0.80552800  1
  H  97  1  0.11757400  0.21707700  0.89259300  1
  H  98  1  0.10415700  0.16176400  0.91890200  1
  H  99  1  0.20416500  0.23220000  0.86630900  1
  H  100  1  0.24543000  0.18543000  0.86609600  1
  H  103  1  0.16182400  0.09411600  0.91967900  1
  H  104  1  0.21867900  0.10471300  0.89793100  1
  H  106  1  0.09267600  0.08998400  0.86267400  1
  H  107  1  0.10087200  0.09841000  0.80184000  1
  H  109  1  0.23410700  0.11412600  0.81327300  1
  H  110  1  0.18910500  0.11272800  0.76912800  1
  H  115  1  0.86522600  0.81325500  0.76653700  1
  H  116  1  0.86323200  0.76502800  0.80529000  1
  H  119  1  0.87539900  0.77566300  0.89224100  1
  H  120  1  0.88910400  0.83087500  0.91865000  1
  H  121  1  0.78869300  0.76074800  0.86652900  1
  H  122  1  0.74754700  0.80762200  0.86647900  1
  H  125  1  0.83177300  0.89867300  0.91975000  1
  H  126  1  0.77474300  0.88838000  0.89846000  1
  H  128  1  0.90045100  0.90278700  0.86233700  1
  H  129  1  0.89186200  0.89432500  0.80154900  1
  H  131  1  0.75868600  0.87879300  0.81363500  1
  H  132  1  0.80350800  0.88021200  0.76931300  1
  H  137  1  0.12753300  0.81315900  0.22629100  1
  H  138  1  0.12952300  0.76496800  0.18748900  1
  H  141  1  0.11731800  0.77570200  0.10052500  1
  H  142  1  0.10362300  0.83095300  0.07420400  1
  H  143  1  0.20401100  0.76072600  0.12622700  1
  H  144  1  0.24518300  0.80757600  0.12629300  1
  H  147  1  0.16096800  0.89871900  0.07316800  1
  H  148  1  0.21801000  0.88838700  0.09441600  1
  H  150  1  0.09232900  0.90281900  0.13060800  1
  H  151  1  0.10095100  0.89431100  0.19138400  1
  H  153  1  0.23409400  0.87870000  0.17921000  1
  H  154  1  0.18929100  0.88010600  0.22355500  1
  H  159  1  0.86564500  0.17914500  0.22605900  1
  H  160  1  0.86362200  0.22741600  0.18737400  1
  H  163  1  0.87533500  0.21685400  0.10023900  1
  H  164  1  0.88850000  0.16155900  0.07376900  1
  H  165  1  0.78885200  0.23220400  0.12674800  1
  H  166  1  0.74740500  0.18559200  0.12691900  1
  H  169  1  0.83042700  0.09409500  0.07293200  1
  H  170  1  0.77369300  0.10494500  0.09496100  1
  H  172  1  0.89980900  0.08965800  0.12958100  1
  H  173  1  0.89196500  0.09776200  0.19047900  1
  H  175  1  0.75862900  0.11403400  0.17957300  1
  H  176  1  0.80373500  0.11243900  0.22360600  1
  H  181  1  0.67959600  0.62256700  0.72885900  1
  H  182  1  0.73097500  0.63073400  0.69401800  1
  H  185  1  0.73063400  0.62598800  0.60998000  1
  H  186  1  0.68190300  0.60403100  0.57667900  1
  H  187  1  0.73733900  0.70720400  0.63935600  1
  H  188  1  0.68869700  0.74582200  0.63420200  1
  H  191  1  0.60891200  0.66120300  0.56963400  1
  H  192  1  0.61104500  0.71774200  0.59640000  1
  H  194  1  0.60351000  0.58857700  0.62106200  1
  H  195  1  0.60134100  0.59328000  0.68264200  1
  H  197  1  0.60943400  0.72726600  0.68481700  1
  H  198  1  0.61168100  0.67964200  0.72372300  1
  H  203  1  0.31299600  0.37032000  0.72864600  1
  H  204  1  0.26171500  0.36218100  0.69364900  1
  H  207  1  0.26233400  0.36702300  0.60959300  1
  H  208  1  0.31117800  0.38901200  0.57648800  1
  H  209  1  0.25549600  0.28579300  0.63887700  1
  H  210  1  0.30413300  0.24715700  0.63382900  1
  H  213  1  0.38414200  0.33180300  0.56959100  1
  H  214  1  0.38189500  0.27524100  0.59630100  1
  H  216  1  0.38943700  0.40438800  0.62113300  1
  H  217  1  0.39140400  0.39958900  0.68271600  1
  H  219  1  0.38328600  0.26565000  0.68473200  1
  H  220  1  0.38093600  0.31325900  0.72364500  1
  H  225  1  0.31324400  0.62253100  0.26397200  1
  H  226  1  0.26188300  0.63069500  0.29884100  1
  H  229  1  0.26228200  0.62595300  0.38289900  1
  H  230  1  0.31105100  0.60401700  0.41614700  1
  H  231  1  0.25551800  0.70715400  0.35349300  1
  H  232  1  0.30414100  0.74580100  0.35861400  1
  H  235  1  0.38399300  0.66123800  0.42315700  1
  H  236  1  0.38182700  0.71776700  0.39637300  1
  H  238  1  0.38941300  0.58859800  0.37173300  1
  H  239  1  0.39154900  0.59330500  0.31015000  1
  H  241  1  0.38341800  0.72725500  0.30793100  1
  H  242  1  0.38114900  0.67960300  0.26906000  1
  H  247  1  0.67996200  0.37023800  0.26414200  1
  H  248  1  0.73120900  0.36212800  0.29918600  1
  H  251  1  0.73054200  0.36696900  0.38321900  1
  H  252  1  0.68168700  0.38894100  0.41631800  1
  H  253  1  0.73741400  0.28573300  0.35395600  1
  H  254  1  0.68877500  0.24709200  0.35897900  1
  H  257  1  0.60872700  0.33172100  0.42317900  1
  H  258  1  0.61099200  0.27516300  0.39646200  1
  H  260  1  0.60344200  0.40431000  0.37162300  1
  H  261  1  0.60150400  0.39949300  0.31003800  1
  H  263  1  0.60962500  0.26559000  0.30802000  1
  H  264  1  0.61201100  0.31320400  0.26911600  1
  H  269  1  0.62165800  0.67865600  0.27438000  1
  H  270  1  0.62508700  0.72562200  0.31461900  1
  H  273  1  0.61527300  0.71307100  0.40091300  1
  H  274  1  0.60970000  0.65682600  0.42745200  1
  H  275  1  0.69661600  0.73733500  0.36474400  1
  H  276  1  0.74368200  0.69695700  0.36735300  1
  H  279  1  0.68118600  0.59647500  0.42437800  1
  H  280  1  0.73199700  0.61584800  0.39289500  1
  H  282  1  0.60300200  0.58599700  0.37763900  1
  H  283  1  0.60262200  0.58922300  0.31621100  1
  H  285  1  0.73168800  0.61329600  0.30170400  1
  H  286  1  0.67878700  0.61491400  0.27120900  1
  H  291  1  0.37118600  0.31415300  0.27392100  1
  H  292  1  0.36774300  0.26715600  0.31413200  1
  H  295  1  0.37756800  0.27965400  0.40041200  1
  H  296  1  0.38319000  0.33588200  0.42698700  1
  H  297  1  0.29618600  0.25547400  0.36431100  1
  H  298  1  0.24915800  0.29590900  0.36693400  1
  H  301  1  0.31180900  0.39629100  0.42398800  1
  H  302  1  0.26095700  0.37699700  0.39252500  1
  H  304  1  0.38998800  0.40674500  0.37713500  1
  H  305  1  0.39028600  0.40345400  0.31569900  1
  H  307  1  0.26118000  0.37955600  0.30137000  1
  H  308  1  0.31404800  0.37793400  0.27080100  1
  H  313  1  0.62167600  0.31419100  0.71883200  1
  H  314  1  0.62512600  0.26719800  0.67861700  1
  H  317  1  0.61529700  0.27970500  0.59232900  1
  H  318  1  0.60967900  0.33593900  0.56576500  1
  H  319  1  0.69667600  0.25551800  0.62844500  1
  H  320  1  0.74370300  0.29595000  0.62582500  1
  H  323  1  0.68105500  0.39634100  0.56877800  1
  H  324  1  0.73190800  0.37703600  0.60023000  1
  H  326  1  0.60287800  0.40678700  0.61561700  1
  H  327  1  0.60258000  0.40350800  0.67705100  1
  H  329  1  0.73167800  0.37960900  0.69139500  1
  H  330  1  0.67880800  0.37797600  0.72195600  1
  H  335  1  0.37120000  0.67871900  0.71852000  1
  H  336  1  0.36776800  0.72570000  0.67829700  1
  H  339  1  0.37759600  0.71319200  0.59201600  1
  H  340  1  0.38319000  0.65696500  0.56544200  1
  H  341  1  0.29623300  0.73741400  0.62815000  1
  H  342  1  0.24918100  0.69701300  0.62552400  1
  H  345  1  0.31174200  0.59658800  0.56845900  1
  H  346  1  0.26091200  0.61591200  0.59993900  1
  H  348  1  0.38991700  0.58611000  0.61523000  1
  H  349  1  0.39026800  0.58931900  0.67666100  1
  H  351  1  0.26120200  0.61331700  0.69113500  1
  H  352  1  0.31409500  0.61495300  0.72164300  1
  H  363  1  0.27786600  0.19307500  0.20310800  1
  H  364  1  0.32603400  0.24175200  0.24818100  1
  H  367  1  0.15625900  0.38572500  0.35554400  1
  H  368  1  0.09949200  0.38267600  0.33002400  1
  H  369  1  0.18728000  0.42808800  0.28389400  1
  H  370  1  0.13765100  0.45836500  0.30745100  1
  H  371  1  0.13092200  0.42281300  0.25614000  1
  H  374  1  0.06023900  0.29581600  0.23084700  1
  H  375  1  0.06279200  0.35178300  0.25794600  1
  H  376  1  0.04929300  0.31138500  0.33799800  1
  H  377  1  0.04547900  0.25627900  0.30766300  1
  H  378  1  0.00272600  0.30107200  0.29701700  1
  H  389  1  0.71482800  0.79949400  0.20320800  1
  H  390  1  0.66666667  0.75092600  0.24848200  1
  H  393  1  0.83673100  0.60746400  0.35625300  1
  H  394  1  0.89347000  0.61050900  0.33067300  1
  H  395  1  0.80573000  0.56471000  0.28482400  1
  H  396  1  0.85546200  0.53463900  0.30841900  1
  H  397  1  0.86203500  0.57000600  0.25696800  1
  H  400  1  0.93254200  0.69701700  0.23122900  1
  H  401  1  0.93016100  0.64123000  0.25870700  1
  H  402  1  0.94351000  0.68221600  0.33848600  1
  H  403  1  0.94720900  0.73712200  0.30776600  1
  H  404  1  0.99007200  0.69236000  0.29745100  1
  H  415  1  0.71496000  0.19320300  0.78980000  1
  H  416  1  0.66680000  0.24180500  0.74461500  1
  H  419  1  0.83665700  0.38558300  0.63706300  1
  H  420  1  0.89341600  0.38254400  0.66260500  1
  H  421  1  0.80566300  0.42823700  0.70854900  1
  H  422  1  0.85534500  0.45837500  0.68492700  1
  H  423  1  0.86199600  0.42298400  0.73635200  1
  H  426  1  0.93247500  0.29618500  0.76221700  1
  H  427  1  0.93002900  0.35194400  0.73469500  1
  H  428  1  0.94363800  0.31091400  0.65497000  1
  H  429  1  0.94745700  0.25605700  0.68576900  1
  H  430  1  0.99015000  0.30097600  0.69611200  1
  H  441  1  0.27789900  0.79967100  0.78951300  1
  H  442  1  0.32607200  0.75105800  0.74434200  1
  H  445  1  0.15625800  0.60733200  0.63666900  1
  H  446  1  0.09948300  0.61037400  0.66217200  1
  H  447  1  0.18719600  0.56467800  0.70818400  1
  H  448  1  0.13753100  0.53454300  0.68452300  1
  H  449  1  0.13083900  0.56993900  0.73594400  1
  H  452  1  0.06031300  0.69683200  0.76166000  1
  H  453  1  0.06275700  0.64104500  0.73419100  1
  H  454  1  0.04937700  0.68201000  0.65440200  1
  H  455  1  0.04560900  0.73691300  0.68511900  1
  H  456  1  0.00279600  0.69209700  0.69542700  1
  H  467  1  0.19299500  0.27351700  0.79549700  1
  H  468  1  0.24406300  0.32308200  0.75728300  1
  H  471  1  0.40560500  0.16645600  0.66128400  1
  H  472  1  0.39346600  0.10606100  0.67106300  1
  H  473  1  0.42443200  0.11491800  0.75520300  1
  H  474  1  0.43646400  0.17565400  0.74338000  1
  H  475  1  0.46738000  0.13069500  0.71209500  1
  H  478  1  0.30107900  0.05811300  0.76453100  1
  H  479  1  0.35724400  0.06076100  0.73790300  1
  H  480  1  0.26226700  0.05215600  0.68497000  1
  H  481  1  0.30384200  0.00589100  0.69442600  1
  H  482  1  0.31889300  0.05431800  0.65728800  1
  H  493  1  0.79963600  0.71935700  0.79580200  1
  H  494  1  0.74850600  0.66982400  0.75765600  1
  H  497  1  0.58698700  0.82635300  0.66174900  1
  H  498  1  0.59940300  0.88677200  0.67103800  1
  H  499  1  0.56827100  0.87868300  0.75524300  1
  H  500  1  0.55600700  0.81791600  0.74384200  1
  H  501  1  0.52531800  0.86277400  0.71218400  1
  H  504  1  0.69171800  0.93490300  0.76464200  1
  H  505  1  0.63555100  0.93228300  0.73801000  1
  H  506  1  0.73053800  0.94055000  0.68505200  1
  H  507  1  0.68905200  0.98692400  0.69438000  1
  H  508  1  0.67390300  0.93841700  0.65738700  1
  H  519  1  0.19316500  0.71927200  0.19696900  1
  H  520  1  0.24429600  0.66972500  0.23515300  1
  H  523  1  0.40579700  0.82628200  0.33106300  1
  H  524  1  0.39334900  0.88670100  0.32181900  1
  H  525  1  0.42444600  0.87867500  0.23759300  1
  H  526  1  0.43673800  0.81790500  0.24895100  1
  H  527  1  0.46742300  0.86275600  0.28061900  1
  H  530  1  0.30113300  0.93479600  0.22812000  1
  H  531  1  0.35719000  0.93223700  0.25498300  1
  H  532  1  0.26199400  0.94045400  0.30755800  1
  H  533  1  0.30349200  0.98684600  0.29838500  1
  H  534  1  0.31852400  0.93835300  0.33544500  1
  H  545  1  0.80026400  0.27327900  0.19766800  1
  H  546  1  0.74915500  0.32292400  0.23574800  1
  H  549  1  0.58712900  0.16658800  0.33130300  1
  H  550  1  0.59936000  0.10616000  0.32184000  1
  H  551  1  0.56852300  0.11462200  0.23758200  1
  H  552  1  0.55641900  0.17539400  0.24913300  1
  H  553  1  0.52548900  0.13053600  0.28055400  1
  H  556  1  0.69193800  0.05796000  0.22857400  1
  H  557  1  0.63565700  0.06069300  0.25495100  1
  H  558  1  0.73038900  0.05215500  0.30833200  1
  H  559  1  0.68884600  0.00588400  0.29877400  1
  H  560  1  0.67363700  0.05438500  0.33574700  1
  H  571  1  0.95404500  0.20353800  0.08873400  1
  H  572  1  0.03387700  0.20009000  0.08689100  1
  H  575  1  0.07595100  0.08717700  0.30381800  1
  H  576  1  0.03118800  0.09658300  0.34604300  1
  H  577  1  0.10160000  0.17250600  0.31318000  1
  H  578  1  0.10281400  0.14128400  0.36770400  1
  H  579  1  0.05551200  0.18085400  0.35554400  1
  H  582  1  0.90340500  0.13013800  0.31476200  1
  H  583  1  0.95301900  0.12829900  0.35227700  1
  H  584  1  0.91715900  0.04681500  0.28883600  1
  H  585  1  0.91018400  0.05094700  0.35117000  1
  H  586  1  0.96738700  0.04278900  0.32650000  1
  H  597  1  0.03859900  0.78830600  0.08952000  1
  H  598  1  0.95885400  0.79216800  0.08752100  1
  H  601  1  0.91740700  0.90637900  0.30406900  1
  H  602  1  0.96168700  0.89599000  0.34657400  1
  H  603  1  0.89009800  0.82151800  0.31294500  1
  H  604  1  0.88907500  0.85258700  0.36755500  1
  H  605  1  0.93570800  0.81216900  0.35561100  1
  H  608  1  0.08920600  0.86129400  0.31563500  1
  H  609  1  0.03947800  0.86357200  0.35296700  1
  H  610  1  0.02606300  0.94927400  0.32720100  1
  H  611  1  0.07648300  0.94477700  0.28983700  1
  H  612  1  0.08302700  0.94048600  0.35220700  1
  H  623  1  0.03882900  0.20408200  0.90393700  1
  H  624  1  0.95900400  0.20044900  0.90591400  1
  H  627  1  0.91775900  0.08640300  0.68908400  1
  H  628  1  0.96158000  0.09778600  0.64634500  1
  H  629  1  0.88921400  0.17092800  0.68116500  1
  H  630  1  0.88827000  0.14035700  0.62628300  1
  H  631  1  0.93440600  0.18131400  0.63829800  1
  H  634  1  0.08928700  0.13124700  0.67772200  1
  H  635  1  0.03963100  0.12953800  0.64026100  1
  H  636  1  0.02538100  0.04388400  0.66568900  1
  H  637  1  0.07566900  0.04781200  0.70329200  1
  H  638  1  0.08253000  0.05222200  0.64096400  1
  H  649  1  0.95411200  0.78821700  0.90329800  1
  H  650  1  0.03388100  0.79199400  0.90526800  1
  H  653  1  0.07536100  0.90612300  0.68867600  1
  H  654  1  0.03105400  0.89577000  0.64618900  1
  H  655  1  0.10256100  0.82122700  0.67982700  1
  H  656  1  0.10360000  0.85226700  0.62520400  1
  H  657  1  0.05692300  0.81191300  0.63718400  1
  H  660  1  0.90346800  0.86146000  0.67727500  1
  H  661  1  0.95315800  0.86359700  0.63988500  1
  H  662  1  0.96686600  0.94925300  0.66565400  1
  H  663  1  0.91648100  0.94490100  0.70308300  1
  H  664  1  0.90984300  0.94064900  0.64072200  1
  H  675  1  0.12792000  0.95898900  0.21740900  1
  H  676  1  0.13279800  0.04024000  0.22508300  1
  H  679  1  0.32238500  0.08167400  0.06821000  1
  H  680  1  0.36435000  0.03618500  0.07476600  1
  H  681  1  0.37659900  0.05980400  0.16020400  1
  H  682  1  0.33655800  0.10781900  0.15165100  1
  H  683  1  0.39052000  0.10571000  0.11948100  1
  H  686  1  0.34461100  0.95793200  0.05245300  1
  H  687  1  0.31843600  0.90875700  0.08012900  1
  H  688  1  0.39394200  0.97145200  0.12694700  1
  H  689  1  0.40235000  0.91402500  0.10297100  1
  H  690  1  0.36566300  0.92177300  0.15343600  1
  H  701  1  0.12799400  0.03397200  0.77534300  1
  H  702  1  0.13263300  0.95266100  0.76773000  1
  H  705  1  0.32230700  0.91058900  0.92424000  1
  H  706  1  0.36431100  0.95606100  0.91783300  1
  H  707  1  0.37646400  0.93277300  0.83228700  1
  H  708  1  0.33637600  0.88476600  0.84068200  1
  H  709  1  0.39036700  0.88668700  0.87281200  1
  H  712  1  0.34466600  0.03426000  0.94046100  1
  H  713  1  0.31854300  0.08356500  0.91297000  1
  H  714  1  0.39395900  0.02094200  0.86591500  1
  H  715  1  0.40243200  0.07828500  0.89006600  1
  H  716  1  0.36572000  0.07072700  0.83958900  1
  H  727  1  0.86394200  0.03398000  0.21774500  1
  H  728  1  0.85950100  0.95261100  0.22529500  1
  H  731  1  0.67026100  0.91031900  0.06833100  1
  H  732  1  0.62832800  0.95588700  0.07452200  1
  H  733  1  0.61603200  0.93293300  0.16013800  1
  H  734  1  0.65604500  0.88482700  0.15196700  1
  H  735  1  0.60209300  0.88672200  0.11976600  1
  H  738  1  0.64803400  0.03400700  0.05175100  1
  H  739  1  0.67424700  0.08334500  0.07909600  1
  H  740  1  0.59871100  0.02097700  0.12629400  1
  H  741  1  0.59039100  0.07831900  0.10209200  1
  H  742  1  0.62709600  0.07070900  0.15257200  1
  H  753  1  0.86505300  0.95905700  0.77558800  1
  H  754  1  0.86026800  0.04031700  0.76798500  1
  H  757  1  0.67047000  0.08201600  0.92447100  1
  H  758  1  0.62853700  0.03648400  0.91801400  1
  H  759  1  0.61638000  0.05981300  0.83248300  1
  H  760  1  0.65639000  0.10787500  0.84092300  1
  H  761  1  0.60238800  0.10585000  0.87303200  1
  H  764  1  0.64828600  0.95830400  0.94057500  1
  H  765  1  0.67449900  0.90905900  0.91306600  1
  H  766  1  0.59900900  0.97157900  0.86600400  1
  H  767  1  0.59060400  0.91422000  0.89014000  1
  H  768  1  0.62732700  0.92184100  0.83968100  1
  H  779  1  0.24990000  0.13477600  0.95884700  1
  H  780  1  0.24862400  0.13529700  0.03998300  1
  H  783  1  0.10259600  0.32648700  0.08385300  1
  H  784  1  0.08718500  0.35922400  0.03330700  1
  H  785  1  0.16869700  0.39648300  0.03282800  1
  H  786  1  0.18337500  0.36339100  0.08450800  1
  H  787  1  0.13800300  0.40691200  0.08673700  1
  H  790  1  0.13622900  0.34078400  0.90610200  1
  H  791  1  0.12015500  0.37477500  0.95564900  1
  H  792  1  0.06005900  0.29603200  0.90986800  1
  H  793  1  0.04975500  0.35792200  0.90598900  1
  H  794  1  0.04291500  0.32847700  0.96113000  1
  H  805  1  0.74261000  0.13510200  0.03398100  1
  H  806  1  0.74403000  0.13573600  0.95276000  1
  H  809  1  0.89189000  0.32616500  0.90995300  1
  H  810  1  0.90554100  0.35981700  0.96039500  1
  H  811  1  0.82366600  0.39594400  0.95845000  1
  H  812  1  0.81062800  0.36206700  0.90682300  1
  H  813  1  0.85550800  0.40612400  0.90515400  1
  H  816  1  0.85666500  0.34058700  0.08715300  1
  H  817  1  0.87262000  0.37476000  0.03769600  1
  H  818  1  0.93294300  0.29606000  0.08332200  1
  H  819  1  0.94306600  0.35796800  0.08739100  1
  H  820  1  0.95005200  0.32870200  0.03217400  1
  H  831  1  0.24960900  0.85776200  0.03392900  1
  H  832  1  0.24862100  0.85710500  0.95266400  1
  H  835  1  0.10075400  0.66641300  0.90960900  1
  H  836  1  0.08779300  0.63233500  0.95994800  1
  H  837  1  0.17011300  0.59745100  0.95769400  1
  H  838  1  0.18255800  0.63165700  0.90613400  1
  H  839  1  0.13830000  0.58698000  0.90443700  1
  H  842  1  0.13476200  0.65300400  0.08707900  1
  H  843  1  0.12025500  0.61818700  0.03762000  1
  H  844  1  0.05804600  0.69645300  0.08146200  1
  H  845  1  0.04864700  0.63445400  0.08587600  1
  H  846  1  0.04226000  0.66318000  0.03031000  1
  H  857  1  0.74301100  0.85757400  0.95881200  1
  H  858  1  0.74409400  0.85693500  0.04008700  1
  H  861  1  0.89344800  0.66666667  0.08246600  1
  H  862  1  0.90450500  0.63162500  0.03237400  1
  H  863  1  0.82180900  0.59819600  0.03713900  1
  H  864  1  0.81116100  0.63327900  0.08851900  1
  H  865  1  0.85475600  0.58794200  0.08974900  1
  H  868  1  0.85812000  0.65319500  0.90554100  1
  H  869  1  0.87221200  0.61814400  0.95495000  1
  H  870  1  0.93506900  0.69612300  0.91146500  1
  H  871  1  0.94408200  0.63407400  0.90691100  1
  H  872  1  0.95053400  0.66261900  0.96256400  1
  H  883  1  0.45460200  0.69432300  0.57952600  1
  H  884  1  0.53500100  0.69453200  0.58089200  1
  H  887  1  0.57241300  0.57304500  0.79505300  1
  H  888  1  0.52612100  0.58096000  0.83596500  1
  H  889  1  0.59808600  0.65711700  0.80776100  1
  H  890  1  0.59471800  0.62637500  0.86240100  1
  H  891  1  0.54899300  0.66647000  0.84626200  1
  H  894  1  0.39868700  0.61228400  0.80071800  1
  H  895  1  0.44665800  0.61085400  0.84036200  1
  H  896  1  0.41797500  0.52996500  0.77252500  1
  H  897  1  0.40477100  0.53245600  0.83395600  1
  H  898  1  0.46427500  0.52676300  0.81488100  1
  H  909  1  0.53832700  0.29853900  0.57976700  1
  H  910  1  0.45795300  0.29835800  0.58100200  1
  H  913  1  0.42045300  0.42009100  0.79508900  1
  H  914  1  0.46649600  0.41171000  0.83619200  1
  H  915  1  0.39400200  0.33625500  0.80748700  1
  H  916  1  0.39749100  0.36676300  0.86224800  1
  H  917  1  0.44290300  0.32631800  0.84609100  1
  H  920  1  0.59392300  0.38029000  0.80112700  1
  H  921  1  0.54587700  0.38174600  0.84067500  1
  H  922  1  0.52844500  0.46590000  0.81525700  1
  H  923  1  0.57484100  0.46267400  0.77300100  1
  H  924  1  0.58789600  0.46008300  0.83446000  1
  H  935  1  0.53827000  0.69424100  0.41334300  1
  H  936  1  0.45787100  0.69455000  0.41192000  1
  H  939  1  0.42035300  0.57329700  0.19769500  1
  H  940  1  0.46678000  0.58093100  0.15688200  1
  H  941  1  0.39517700  0.65752900  0.18485200  1
  H  942  1  0.39842800  0.62666300  0.13027100  1
  H  943  1  0.44436900  0.66652000  0.14638600  1
  H  946  1  0.59423800  0.61214200  0.19218900  1
  H  947  1  0.54629200  0.61074700  0.15251600  1
  H  948  1  0.57484100  0.52985100  0.22040100  1
  H  949  1  0.58809800  0.53230700  0.15897900  1
  H  950  1  0.52857000  0.52668800  0.17800900  1
  H  961  1  0.45454200  0.29846600  0.41297400  1
  H  962  1  0.53492000  0.29826700  0.41174200  1
  H  965  1  0.57248400  0.41993800  0.19764800  1
  H  966  1  0.52641200  0.41162900  0.15656300  1
  H  967  1  0.59881400  0.33606200  0.18522200  1
  H  968  1  0.59536000  0.36660000  0.13047500  1
  H  969  1  0.54989100  0.32621400  0.14662000  1
  H  972  1  0.39898200  0.38019800  0.19160900  1
  H  973  1  0.44703100  0.38166100  0.15207100  1
  H  974  1  0.46444100  0.46581900  0.17748500  1
  H  975  1  0.41803200  0.46258900  0.21972500  1
  H  976  1  0.40499800  0.45998700  0.15826300  1
  H  987  1  0.64227300  0.45681400  0.71607800  1
  H  988  1  0.64272400  0.53919700  0.72066700  1
  H  991  1  0.81718800  0.58899600  0.55107700  1
  H  992  1  0.85925300  0.54350600  0.55029200  1
  H  993  1  0.87820000  0.55857700  0.63609700  1
  H  994  1  0.83766800  0.60696300  0.63557900  1
  H  995  1  0.88891200  0.60841900  0.59920800  1
  H  998  1  0.82267900  0.46105900  0.51803100  1
  H  999  1  0.81458600  0.41263300  0.55540700  1
  H  1000  1  0.90001800  0.47323300  0.54443600  1
  H  1001  1  0.89497500  0.41422700  0.56401100  1
  H  1002  1  0.88556100  0.46140700  0.60436200  1
  H  1013  1  0.64241200  0.53612300  0.27695700  1
  H  1014  1  0.64291200  0.45371100  0.27227800  1
  H  1017  1  0.81722000  0.40379200  0.44195900  1
  H  1018  1  0.85926000  0.44930600  0.44286100  1
  H  1019  1  0.87832000  0.43436300  0.35705900  1
  H  1020  1  0.83781400  0.38595500  0.35746000  1
  H  1021  1  0.88901500  0.38447500  0.39389200  1
  H  1024  1  0.82262600  0.53169000  0.47517100  1
  H  1025  1  0.81454700  0.58016500  0.43784900  1
  H  1026  1  0.89999700  0.51958600  0.44882000  1
  H  1027  1  0.89494300  0.57862400  0.42933000  1
  H  1028  1  0.88559300  0.53150200  0.38890100  1
  H  1039  1  0.35046500  0.53618300  0.71586500  1
  H  1040  1  0.34999200  0.45378200  0.72054300  1
  H  1043  1  0.17569900  0.40387300  0.55085000  1
  H  1044  1  0.13363300  0.44936300  0.54998700  1
  H  1045  1  0.11460100  0.43436000  0.63578500  1
  H  1046  1  0.15513300  0.38597300  0.63534500  1
  H  1047  1  0.10392400  0.38448900  0.59892400  1
  H  1050  1  0.17024500  0.53169000  0.51768000  1
  H  1051  1  0.17833200  0.58020700  0.55495300  1
  H  1052  1  0.09286900  0.51965300  0.54403100  1
  H  1053  1  0.09794300  0.57868100  0.56354600  1
  H  1054  1  0.10729400  0.53153700  0.60395300  1
  H  1065  1  0.35059200  0.45676700  0.27668700  1
  H  1066  1  0.35016700  0.53917900  0.27215500  1
  H  1069  1  0.17580000  0.58898900  0.44178900  1
  H  1070  1  0.13369000  0.54353800  0.44255900  1
  H  1071  1  0.11474600  0.55867300  0.35676100  1
  H  1072  1  0.15532000  0.60702400  0.35730400  1
  H  1073  1  0.10408200  0.60850400  0.39368300  1
  H  1076  1  0.17000200  0.46105900  0.47470600  1
  H  1077  1  0.17818600  0.41263300  0.43733400  1
  H  1078  1  0.09276700  0.47334700  0.44800700  1
  H  1079  1  0.09780900  0.41430900  0.42852400  1
  H  1080  1  0.10741800  0.46142800  0.38814500  1
  H  1091  1  0.75454300  0.64201100  0.46254200  1
  H  1092  1  0.75719500  0.64961000  0.54346300  1
  H  1095  1  0.59116500  0.82806000  0.57737100  1
  H  1096  1  0.57919200  0.86040600  0.52591500  1
  H  1097  1  0.66951900  0.86885000  0.58623100  1
  H  1098  1  0.62264100  0.91070600  0.58241900  1
  H  1099  1  0.65940000  0.90035900  0.53248500  1
  H  1102  1  0.63549400  0.84274100  0.40317000  1
  H  1103  1  0.61369000  0.87592100  0.45097500  1
  H  1104  1  0.53986400  0.82404900  0.45205400  1
  H  1105  1  0.56269800  0.79243700  0.40250700  1
  H  1106  1  0.54818400  0.85335700  0.39703700  1
  H  1117  1  0.23813100  0.64228400  0.53044700  1
  H  1118  1  0.23564300  0.64979800  0.44933800  1
  H  1121  1  0.40177200  0.82806700  0.41543700  1
  H  1122  1  0.41365600  0.86049500  0.46686200  1
  H  1123  1  0.32336000  0.86873700  0.40647100  1
  H  1124  1  0.37017100  0.91066700  0.41028400  1
  H  1125  1  0.33339200  0.90030900  0.46019600  1
  H  1128  1  0.35747400  0.84276200  0.58963100  1
  H  1129  1  0.37919000  0.87597400  0.54180900  1
  H  1130  1  0.45307200  0.82417700  0.54064900  1
  H  1131  1  0.43031700  0.79253000  0.59021000  1
  H  1132  1  0.44477700  0.85346400  0.59568000  1
  H  1143  1  0.75466400  0.35065400  0.53073100  1
  H  1144  1  0.75713100  0.34329100  0.44970000  1
  H  1147  1  0.59083800  0.16507100  0.41573200  1
  H  1148  1  0.57894700  0.13263900  0.46715300  1
  H  1149  1  0.66916800  0.12427100  0.40666300  1
  H  1150  1  0.62228600  0.08242200  0.41050000  1
  H  1151  1  0.65913700  0.09268400  0.46038100  1
  H  1154  1  0.63540200  0.15011300  0.58985800  1
  H  1155  1  0.61358300  0.11697900  0.54202900  1
  H  1156  1  0.53975400  0.16886700  0.54103200  1
  H  1157  1  0.56261300  0.20041800  0.59060400  1
  H  1158  1  0.54809200  0.13949400  0.59600600  1
  H  1169  1  0.23813400  0.35058700  0.46195700  1
  H  1170  1  0.23583800  0.34336000  0.54304800  1
  H  1173  1  0.40254600  0.16517400  0.57674000  1
  H  1174  1  0.41351000  0.13216300  0.52548200  1
  H  1175  1  0.32394100  0.12514900  0.58705100  1
  H  1176  1  0.37035500  0.08281000  0.58291600  1
  H  1177  1  0.33301300  0.09313000  0.53341800  1
  H  1180  1  0.35748500  0.15028100  0.40284400  1
  H  1181  1  0.37889200  0.11689800  0.45068400  1
  H  1182  1  0.45310400  0.16827400  0.45199300  1
  H  1183  1  0.43058300  0.20010800  0.40244600  1
  H  1184  1  0.44471000  0.13909800  0.39692000  1
  C  1  1  0.18279300  0.19209900  0.18741700  1
  C  2  1  0.19948500  0.20652500  0.13607500  1
  C  3  1  0.19252600  0.13783000  0.19864800  1
  C  4  1  0.17068300  0.10420200  0.16031700  1
  C  7  1  0.18940500  0.12179400  0.11094900  1
  C  8  1  0.17669700  0.17435200  0.09752700  1
  C  13  1  0.12119500  0.17801300  0.10080200  1
  C  14  1  0.10027800  0.16467900  0.15085100  1
  C  17  1  0.11525100  0.11190800  0.15895700  1
  C  20  1  0.12685100  0.19736500  0.18722800  1
  C  23  1  0.80991900  0.80058300  0.18762100  1
  C  24  1  0.79333500  0.78608400  0.13625700  1
  C  25  1  0.80008700  0.85485500  0.19876700  1
  C  26  1  0.82200500  0.88846100  0.16046000  1
  C  29  1  0.80343000  0.87079900  0.11105900  1
  C  30  1  0.81618000  0.81824200  0.09772500  1
  C  35  1  0.87166200  0.81463900  0.10115300  1
  C  36  1  0.89247900  0.82804900  0.15122300  1
  C  39  1  0.87745400  0.88081900  0.15928300  1
  C  42  1  0.86586200  0.79539100  0.18756800  1
  C  45  1  0.81003600  0.19227100  0.80551400  1
  C  46  1  0.79335000  0.20667700  0.85686000  1
  C  47  1  0.80034200  0.13798800  0.79429400  1
  C  48  1  0.82224600  0.10436800  0.83260300  1
  C  51  1  0.80355400  0.12195100  0.88199100  1
  C  52  1  0.81619800  0.17453500  0.89539700  1
  C  57  1  0.87169700  0.17823600  0.89209600  1
  C  58  1  0.89259300  0.16492800  0.84203400  1
  C  61  1  0.87767100  0.11214800  0.83391700  1
  C  64  1  0.86596500  0.19759900  0.80569500  1
  C  67  1  0.18282900  0.80064400  0.80515900  1
  C  68  1  0.19945800  0.78619700  0.85651600  1
  C  69  1  0.19256000  0.85493300  0.79401000  1
  C  70  1  0.17058200  0.88852200  0.83230500  1
  C  73  1  0.18919300  0.87090600  0.88171700  1
  C  74  1  0.17655300  0.81831000  0.89504900  1
  C  79  1  0.12107100  0.81459700  0.89164500  1
  C  80  1  0.10022800  0.82795300  0.84157600  1
  C  83  1  0.11515200  0.88073800  0.83350800  1
  C  86  1  0.12689800  0.79533700  0.80523700  1
  C  89  1  0.19213000  0.17944900  0.80933600  1
  C  90  1  0.20781000  0.19393100  0.86092800  1
  C  91  1  0.13705500  0.18997300  0.80274200  1
  C  92  1  0.10464600  0.16389900  0.84049000  1
  C  95  1  0.12419900  0.17919300  0.89046000  1
  C  96  1  0.17787700  0.16855700  0.89953900  1
  C  101  1  0.18210300  0.11314100  0.89242300  1
  C  102  1  0.16759400  0.09514000  0.84153400  1
  C  105  1  0.11380700  0.10923900  0.83629100  1
  C  108  1  0.19756800  0.12400800  0.80538600  1
  C  111  1  0.80061900  0.81346800  0.80948900  1
  C  112  1  0.78511800  0.79902900  0.86114500  1
  C  113  1  0.85565400  0.80289800  0.80260000  1
  C  114  1  0.88824500  0.82888300  0.84023500  1
  C  117  1  0.86887200  0.81356000  0.89026100  1
  C  118  1  0.81527500  0.82431200  0.89963200  1
  C  123  1  0.81116800  0.87975800  0.89261800  1
  C  124  1  0.82539100  0.89772900  0.84162600  1
  C  127  1  0.87913000  0.88354900  0.83608200  1
  C  130  1  0.79519200  0.86891400  0.80560200  1
  C  133  1  0.19214300  0.81339700  0.18332000  1
  C  134  1  0.20760700  0.79899700  0.13163900  1
  C  135  1  0.13710400  0.80283700  0.19021700  1
  C  136  1  0.10450400  0.82888000  0.15262000  1
  C  139  1  0.12385400  0.81359900  0.10256500  1
  C  140  1  0.17745100  0.82433700  0.09318700  1
  C  145  1  0.18156900  0.87976900  0.10026400  1
  C  146  1  0.16739000  0.89768600  0.15127400  1
  C  149  1  0.11364900  0.88354200  0.15683200  1
  C  152  1  0.19758800  0.86883300  0.18725600  1
  C  155  1  0.80079300  0.17925700  0.18356300  1
  C  156  1  0.78507200  0.19393800  0.13204100  1
  C  157  1  0.85591300  0.18957100  0.19006700  1
  C  158  1  0.88817000  0.16349200  0.15218300  1
  C  161  1  0.86857700  0.17898500  0.10229300  1
  C  162  1  0.81483500  0.16855600  0.09331100  1
  C  167  1  0.81038000  0.11315100  0.10031400  1
  C  168  1  0.82501100  0.09496400  0.15109600  1
  C  171  1  0.87887100  0.10884100  0.15616800  1
  C  174  1  0.79521300  0.12382000  0.18739800  1
  C  177  1  0.67947200  0.69025500  0.68920500  1
  C  178  1  0.69845500  0.70871200  0.63988500  1
  C  179  1  0.69245900  0.63561500  0.69458600  1
  C  180  1  0.67273900  0.60373700  0.65386600  1
  C  183  1  0.69226100  0.62609100  0.60700900  1
  C  184  1  0.67850300  0.67928400  0.59777400  1
  C  189  1  0.62280100  0.68109000  0.60003800  1
  C  190  1  0.60036500  0.66171000  0.64764700  1
  C  193  1  0.61717900  0.60889800  0.65127800  1
  C  196  1  0.62341200  0.69162900  0.68896000  1
  C  199  1  0.31322400  0.30266400  0.68892800  1
  C  200  1  0.29437800  0.28426600  0.63952600  1
  C  201  1  0.30023000  0.35730100  0.69432300  1
  C  202  1  0.32009100  0.38921000  0.65369900  1
  C  205  1  0.30071500  0.36691300  0.60675700  1
  C  206  1  0.31446800  0.31372600  0.59750400  1
  C  211  1  0.37015700  0.31189500  0.59993500  1
  C  212  1  0.39246900  0.33121800  0.64762300  1
  C  215  1  0.37566200  0.38402800  0.65127800  1
  C  218  1  0.36929100  0.30128500  0.68885000  1
  C  221  1  0.31337100  0.69023000  0.30361200  1
  C  222  1  0.29440200  0.70868400  0.35294100  1
  C  223  1  0.30039900  0.63558600  0.29825200  1
  C  224  1  0.32015900  0.60371900  0.33896000  1
  C  227  1  0.30065800  0.62607400  0.38582800  1
  C  228  1  0.31438700  0.67928000  0.39504900  1
  C  233  1  0.37008600  0.68111200  0.39275300  1
  C  234  1  0.39251100  0.66173200  0.34514300  1
  C  237  1  0.37571900  0.60891200  0.34152200  1
  C  240  1  0.36943600  0.69161500  0.30382200  1
  C  243  1  0.67971300  0.30259000  0.30387300  1
  C  244  1  0.69852900  0.28420100  0.35328300  1
  C  245  1  0.69269700  0.35723000  0.29847800  1
  C  246  1  0.67281000  0.38914300  0.33909100  1
  C  249  1  0.69216100  0.36685200  0.38604800  1
  C  250  1  0.67841800  0.31366200  0.39528700  1
  C  255  1  0.62272700  0.31181800  0.39283800  1
  C  256  1  0.60042900  0.33113700  0.34513900  1
  C  259  1  0.61723500  0.38394600  0.34148800  1
  C  262  1  0.62363500  0.30121700  0.30391800  1
  C  265  1  0.68959900  0.68037300  0.31195400  1
  C  266  1  0.70535500  0.69953400  0.36201100  1
  C  267  1  0.63369100  0.68802600  0.30991700  1
  C  268  1  0.60554700  0.65881800  0.34912500  1
  C  271  1  0.62599900  0.67620600  0.39791000  1
  C  272  1  0.68124700  0.67175200  0.40275500  1
  C  277  1  0.69350300  0.61774700  0.39426500  1
  C  278  1  0.67387800  0.59580000  0.34670100  1
  C  281  1  0.61878000  0.60471600  0.34740500  1
  C  284  1  0.69534900  0.62500500  0.30489900  1
  C  287  1  0.30324300  0.31244200  0.31151900  1
  C  288  1  0.28748300  0.29328700  0.36158100  1
  C  289  1  0.35915700  0.30475800  0.30945400  1
  C  290  1  0.38734700  0.33391200  0.34866800  1
  C  293  1  0.36687300  0.31652900  0.39744200  1
  C  294  1  0.31163400  0.32102700  0.40231800  1
  C  299  1  0.29944800  0.37504800  0.39386700  1
  C  300  1  0.31905600  0.39699400  0.34629800  1
  C  303  1  0.37415000  0.38802100  0.34693600  1
  C  306  1  0.29752000  0.36782500  0.30450200  1
  C  309  1  0.68961600  0.31248700  0.68123600  1
  C  310  1  0.70538000  0.29333000  0.63117400  1
  C  311  1  0.63370900  0.30480100  0.68329800  1
  C  312  1  0.60552600  0.33395800  0.64408400  1
  C  315  1  0.62599200  0.31657900  0.59531000  1
  C  316  1  0.68122900  0.32107300  0.59043700  1
  C  321  1  0.69341400  0.37509400  0.59889500  1
  C  322  1  0.67380300  0.39704400  0.64646200  1
  C  325  1  0.61871200  0.38806700  0.64581900  1
  C  328  1  0.69534200  0.36787400  0.68825700  1
  C  331  1  0.30326500  0.68043400  0.68093100  1
  C  332  1  0.28750800  0.69960500  0.63087600  1
  C  333  1  0.35917100  0.68810100  0.68298600  1
  C  334  1  0.38733300  0.65892000  0.64376800  1
  C  337  1  0.36688100  0.67632400  0.59499100  1
  C  338  1  0.31163600  0.67185100  0.59013200  1
  C  343  1  0.29940700  0.61783500  0.59858700  1
  C  344  1  0.31902600  0.59587800  0.64614200  1
  C  347  1  0.37411800  0.60481600  0.64546400  1
  C  350  1  0.29753600  0.62505100  0.68795500  1
  C  353  1  0.21084600  0.22343100  0.22135800  1
  C  354  1  0.19159900  0.26137800  0.24838100  1
  C  355  1  0.22123600  0.29146800  0.27570500  1
  C  356  1  0.27169200  0.28564100  0.27692300  1
  C  357  1  0.29047900  0.24847800  0.24918500  1
  C  358  1  0.26106400  0.21847000  0.22275600  1
  C  360  1  0.15175900  0.33726800  0.29936100  1
  C  361  1  0.12240800  0.30773400  0.27158900  1
  C  365  1  0.13734600  0.38240900  0.32195400  1
  C  366  1  0.14913700  0.42566300  0.29023400  1
  C  372  1  0.07075500  0.31423900  0.26337700  1
  C  373  1  0.04019800  0.29449000  0.30435800  1
  C  379  1  0.78186700  0.76924200  0.22155000  1
  C  380  1  0.80117300  0.73142900  0.24872300  1
  C  381  1  0.77156300  0.70137900  0.27611600  1
  C  382  1  0.72110400  0.70715800  0.27732400  1
  C  383  1  0.70228400  0.74425700  0.24951400  1
  C  384  1  0.73165300  0.77417900  0.22294400  1
  C  386  1  0.84106500  0.65564100  0.29980000  1
  C  387  1  0.87041900  0.68521500  0.27207600  1
  C  391  1  0.85560700  0.61066200  0.32263000  1
  C  392  1  0.84387600  0.56724800  0.29110000  1
  C  398  1  0.92208500  0.67878700  0.26388700  1
  C  399  1  0.95258300  0.69890200  0.30473300  1
  C  405  1  0.78196300  0.22360500  0.77158800  1
  C  406  1  0.80122200  0.26148500  0.74447700  1
  C  407  1  0.77159500  0.29151600  0.71707900  1
  C  408  1  0.72113900  0.28568100  0.71585000  1
  C  409  1  0.70235500  0.24854000  0.74362500  1
  C  410  1  0.73175600  0.21860500  0.77015000  1
  C  412  1  0.84106500  0.33734300  0.69344300  1
  C  413  1  0.87042300  0.30781000  0.72121000  1
  C  417  1  0.85555800  0.38236700  0.67066900  1
  C  418  1  0.84380500  0.42574500  0.70223800  1
  C  424  1  0.92205400  0.31436700  0.72951900  1
  C  425  1  0.95269600  0.29430100  0.68876100  1
  C  431  1  0.21089000  0.76933400  0.77120100  1
  C  432  1  0.19164300  0.73142200  0.74412600  1
  C  433  1  0.22127700  0.70138300  0.71675200  1
  C  434  1  0.27172900  0.70720800  0.71554500  1
  C  435  1  0.29051300  0.74435600  0.74331300  1
  C  436  1  0.26110500  0.77430000  0.76982400  1
  C  438  1  0.15181400  0.65557300  0.69304500  1
  C  439  1  0.12245400  0.68508700  0.72083000  1
  C  443  1  0.13733500  0.61055200  0.67026100  1
  C  444  1  0.14905800  0.56717400  0.70184400  1
  C  450  1  0.07079200  0.67860900  0.72900500  1
  C  451  1  0.04028000  0.69868500  0.68815400  1
  C  457  1  0.22412700  0.20751300  0.77568700  1
  C  458  1  0.26474200  0.18990200  0.75079500  1
  C  459  1  0.29687100  0.22090500  0.72728700  1
  C  460  1  0.28947100  0.27088200  0.72586700  1
  C  461  1  0.25099200  0.28786100  0.75342900  1
  C  462  1  0.21928500  0.25752300  0.77635500  1
  C  464  1  0.34742000  0.15402500  0.70686300  1
  C  465  1  0.31494600  0.12279500  0.72876000  1
  C  469  1  0.39480400  0.14076000  0.68821400  1
  C  470  1  0.43316300  0.14046700  0.72742900  1
  C  476  1  0.32008800  0.07051800  0.73303000  1
  C  477  1  0.29993000  0.04412000  0.68946000  1
  C  483  1  0.76844300  0.78535300  0.77605700  1
  C  484  1  0.72788700  0.80301800  0.75113200  1
  C  485  1  0.69573200  0.77200300  0.72767000  1
  C  486  1  0.70307900  0.72200900  0.72625400  1
  C  487  1  0.74160500  0.70504600  0.75377300  1
  C  488  1  0.77333800  0.73535800  0.77668100  1
  C  490  1  0.64519100  0.83889300  0.70728600  1
  C  491  1  0.67773600  0.87013900  0.72905800  1
  C  495  1  0.59788400  0.85222100  0.68847300  1
  C  496  1  0.55947500  0.85297400  0.72763800  1
  C  502  1  0.67268900  0.92243700  0.73317500  1
  C  503  1  0.69288900  0.94867100  0.68952400  1
  C  509  1  0.22434200  0.78526000  0.21671700  1
  C  510  1  0.26488800  0.80293000  0.24167700  1
  C  511  1  0.29704300  0.77192500  0.26515200  1
  C  512  1  0.28967800  0.72193100  0.26656600  1
  C  513  1  0.25121800  0.70495000  0.23898500  1
  C  514  1  0.21950100  0.73526300  0.21605000  1
  C  516  1  0.34756300  0.83883300  0.28557600  1
  C  517  1  0.31501100  0.87006400  0.26379300  1
  C  521  1  0.39487500  0.85216400  0.30436000  1
  C  522  1  0.43326300  0.85294900  0.26517500  1
  C  528  1  0.32004500  0.92236200  0.25966900  1
  C  529  1  0.29965400  0.94859300  0.30323200  1
  C  535  1  0.76892200  0.20733000  0.21733700  1
  C  536  1  0.72823800  0.18977400  0.24214800  1
  C  537  1  0.69609100  0.22082800  0.26556200  1
  C  538  1  0.70354400  0.27080300  0.26698100  1
  C  539  1  0.74217000  0.28771200  0.23958300  1
  C  540  1  0.77389100  0.25732900  0.21673300  1
  C  542  1  0.64541500  0.15400900  0.28589400  1
  C  543  1  0.67794200  0.12272500  0.26415300  1
  C  547  1  0.59801200  0.14077500  0.30452000  1
  C  548  1  0.55972300  0.14027700  0.26523500  1
  C  554  1  0.67279500  0.07044000  0.25996800  1
  C  555  1  0.69274300  0.04412100  0.30368300  1
  C  561  1  0.94184900  0.17292800  0.15730300  1
  C  562  1  0.96894200  0.15943100  0.19786400  1
  C  563  1  0.01961800  0.15849400  0.19717000  1
  C  564  1  0.04620800  0.17067400  0.15567800  1
  C  565  1  0.01878800  0.18903200  0.11780200  1
  C  566  1  0.96923300  0.19082300  0.11892200  1
  C  568  1  0.01971300  0.12944500  0.27836200  1
  C  569  1  0.96945300  0.13007500  0.27876200  1
  C  573  1  0.05116100  0.11363300  0.31765300  1
  C  574  1  0.07962300  0.15492200  0.33981700  1
  C  580  1  0.93884300  0.11477900  0.31882700  1
  C  581  1  0.93320600  0.06024800  0.32142500  1
  C  587  1  0.05088000  0.81922900  0.15793500  1
  C  588  1  0.02379200  0.83285900  0.19845800  1
  C  589  1  0.97311600  0.83411900  0.19765700  1
  C  590  1  0.94653100  0.82198300  0.15614600  1
  C  591  1  0.97392600  0.80334900  0.11839200  1
  C  592  1  0.02345300  0.80125800  0.11962500  1
  C  594  1  0.97303800  0.86322100  0.27882100  1
  C  595  1  0.02329500  0.86208200  0.27939100  1
  C  599  1  0.94160800  0.87942100  0.31797500  1
  C  600  1  0.91221100  0.83860200  0.33979200  1
  C  606  1  0.05391200  0.87700400  0.31959300  1
  C  607  1  0.06009200  0.93147000  0.32230800  1
  C  613  1  0.05099500  0.17349200  0.83536100  1
  C  614  1  0.02387300  0.16006700  0.79479100  1
  C  615  1  0.97320100  0.15894300  0.79559300  1
  C  616  1  0.94664400  0.17099900  0.83714700  1
  C  617  1  0.97407100  0.18941400  0.87498400  1
  C  618  1  0.02361900  0.19125600  0.87380600  1
  C  620  1  0.97301300  0.12999400  0.71436000  1
  C  621  1  0.02327300  0.13098700  0.71378800  1
  C  625  1  0.94150500  0.11380200  0.67525900  1
  C  626  1  0.91139100  0.15440900  0.65402200  1
  C  632  1  0.05385600  0.11587900  0.67363000  1
  C  633  1  0.05954600  0.06136500  0.67078600  1
  C  639  1  0.94186000  0.81920400  0.83490300  1
  C  640  1  0.96893500  0.83279800  0.79436800  1
  C  641  1  0.01960600  0.83396300  0.79513500  1
  C  642  1  0.04619000  0.82182400  0.83664300  1
  C  643  1  0.01880300  0.80318900  0.87440200  1
  C  644  1  0.96927200  0.80119000  0.87320900  1
  C  646  1  0.01968300  0.86304700  0.71395900  1
  C  647  1  0.96942500  0.86204300  0.71344000  1
  C  651  1  0.05112100  0.87919000  0.67479000  1
  C  652  1  0.08046000  0.83832500  0.65297900  1
  C  658  1  0.93880300  0.87706800  0.67327800  1
  C  659  1  0.93279100  0.93155200  0.67058800  1
  C  665  1  0.17718800  0.95042800  0.16024700  1
  C  666  1  0.21769300  0.97585600  0.14344000  1
  C  667  1  0.22016200  0.02609500  0.14736800  1
  C  668  1  0.18295000  0.05214000  0.16957600  1
  C  669  1  0.15466300  0.02476900  0.20074000  1
  C  670  1  0.15118700  0.97549800  0.19539500  1
  C  672  1  0.29830900  0.02536800  0.11101800  1
  C  673  1  0.29616400  0.97530600  0.10742600  1
  C  677  1  0.33724100  0.05637800  0.09358500  1
  C  678  1  0.36174400  0.08420800  0.13401300  1
  C  684  1  0.33325900  0.94402500  0.08680700  1
  C  685  1  0.37660600  0.93759700  0.11979300  1
  C  691  1  0.17736300  0.04239900  0.83242600  1
  C  692  1  0.21771700  0.01683100  0.84938200  1
  C  693  1  0.22009600  0.96659200  0.84534600  1
  C  694  1  0.18283400  0.94061700  0.82313300  1
  C  695  1  0.15442600  0.96809000  0.79216400  1
  C  696  1  0.15117900  0.01738400  0.79739300  1
  C  698  1  0.29825300  0.96709600  0.88168500  1
  C  699  1  0.29617300  0.01714400  0.88544400  1
  C  703  1  0.33716800  0.93597100  0.89895700  1
  C  704  1  0.36160600  0.90828200  0.85839400  1
  C  710  1  0.33333333  0.04830400  0.90615900  1
  C  711  1  0.37666300  0.05479100  0.87318100  1
  C  717  1  0.81520400  0.04223100  0.16010500  1
  C  718  1  0.77487800  0.01667300  0.14307100  1
  C  719  1  0.77245000  0.96644700  0.14718700  1
  C  720  1  0.80963800  0.94052100  0.16957900  1
  C  721  1  0.83775000  0.96800500  0.20079500  1
  C  722  1  0.84101600  0.01729700  0.19548800  1
  C  724  1  0.69435800  0.96693700  0.11071400  1
  C  725  1  0.69651300  0.01697100  0.10681000  1
  C  729  1  0.65541400  0.93581800  0.09350500  1
  C  730  1  0.63087600  0.90831700  0.13413900  1
  C  736  1  0.65941400  0.04812800  0.08600800  1
  C  737  1  0.61610000  0.05477200  0.11899500  1
  C  743  1  0.81563000  0.95048800  0.83261700  1
  C  744  1  0.77521900  0.97598800  0.84953100  1
  C  745  1  0.77279100  0.02623100  0.84555900  1
  C  746  1  0.81001800  0.05227800  0.82337100  1
  C  747  1  0.83848100  0.02486100  0.79241300  1
  C  748  1  0.84181800  0.97557200  0.79762300  1
  C  750  1  0.69462500  0.02558000  0.88187700  1
  C  751  1  0.69676900  0.97553000  0.88558600  1
  C  755  1  0.65565900  0.05662800  0.89916300  1
  C  756  1  0.63118800  0.08431200  0.85861000  1
  C  762  1  0.65966900  0.94429800  0.90626900  1
  C  763  1  0.61634800  0.93775300  0.87327000  1
  C  769  1  0.19425500  0.18545700  0.94821300  1
  C  770  1  0.17618300  0.22609800  0.97229600  1
  C  771  1  0.17651100  0.22750300  0.02263800  1
  C  772  1  0.19475800  0.18834100  0.04863000  1
  C  773  1  0.22818300  0.16022400  0.02370400  1
  C  774  1  0.22842800  0.15936800  0.97419500  1
  C  776  1  0.13719300  0.30364700  0.02121200  1
  C  777  1  0.13764100  0.30283900  0.97089800  1
  C  781  1  0.11685400  0.34191600  0.05119700  1
  C  782  1  0.15431700  0.37960500  0.06461100  1
  C  788  1  0.11666900  0.33967600  0.93962000  1
  C  789  1  0.06386000  0.32976000  0.92855600  1
  C  795  1  0.79842500  0.18559700  0.04470100  1
  C  796  1  0.81663100  0.22620500  0.02067700  1
  C  797  1  0.81639600  0.22765300  0.97033700  1
  C  798  1  0.79812400  0.18853400  0.94428400  1
  C  799  1  0.76472700  0.16036300  0.96918300  1
  C  800  1  0.76418000  0.15965000  0.01868300  1
  C  802  1  0.85596600  0.30367500  0.97193800  1
  C  803  1  0.85540500  0.30281300  0.02225000  1
  C  807  1  0.87658800  0.34183800  0.94200900  1
  C  808  1  0.83899900  0.37887800  0.92721100  1
  C  814  1  0.87624000  0.33962900  0.05364100  1
  C  815  1  0.92906700  0.32983300  0.06472700  1
  C  821  1  0.19362800  0.80748000  0.04442800  1
  C  822  1  0.17552500  0.76684200  0.02035700  1
  C  823  1  0.17607800  0.76525900  0.97002100  1
  C  824  1  0.19449700  0.80432100  0.94398900  1
  C  825  1  0.22790600  0.83241200  0.96895300  1
  C  826  1  0.22785100  0.83351200  0.01845400  1
  C  828  1  0.13657400  0.68920100  0.97153300  1
  C  829  1  0.13678200  0.69019500  0.02184300  1
  C  833  1  0.11639700  0.65084200  0.94155100  1
  C  834  1  0.15447300  0.61438900  0.92653700  1
  C  840  1  0.11583300  0.65339800  0.05318400  1
  C  841  1  0.06268600  0.66258400  0.06322500  1
  C  847  1  0.79907500  0.80737700  0.94835200  1
  C  848  1  0.81726200  0.76677100  0.97241700  1
  C  849  1  0.81674800  0.76519500  0.02274900  1
  C  850  1  0.79828000  0.80423600  0.04876900  1
  C  851  1  0.76492200  0.83236200  0.02376100  1
  C  852  1  0.76463400  0.83319600  0.97424900  1
  C  854  1  0.85638500  0.68919700  0.02120200  1
  C  855  1  0.85616500  0.69021300  0.97089100  1
  C  859  1  0.87672000  0.65092400  0.05119500  1
  C  860  1  0.83846700  0.61530500  0.06767300  1
  C  866  1  0.87694700  0.65336600  0.93949600  1
  C  867  1  0.93017500  0.66223200  0.92960300  1
  C  873  1  0.44145900  0.66446500  0.64807700  1
  C  874  1  0.46771400  0.64909900  0.68852700  1
  C  875  1  0.51833300  0.64883300  0.68929700  1
  C  876  1  0.54587700  0.66441500  0.64966300  1
  C  877  1  0.51912800  0.68213000  0.61089600  1
  C  878  1  0.46945700  0.68211300  0.61012200  1
  C  880  1  0.51648400  0.61526600  0.76876600  1
  C  881  1  0.46624800  0.61531500  0.76774700  1
  C  885  1  0.54682800  0.59885300  0.80864800  1
  C  886  1  0.57389600  0.64003700  0.83271000  1
  C  892  1  0.43438800  0.59790200  0.80595000  1
  C  893  1  0.43023200  0.54319300  0.80679500  1
  C  899  1  0.55139600  0.32836500  0.64834700  1
  C  900  1  0.52507000  0.34372000  0.68875700  1
  C  901  1  0.47444700  0.34402600  0.68943900  1
  C  902  1  0.44695700  0.32848000  0.64975600  1
  C  903  1  0.47377300  0.31079400  0.61102000  1
  C  904  1  0.52343700  0.31075800  0.61034200  1
  C  906  1  0.47617900  0.37753600  0.76893300  1
  C  907  1  0.52642200  0.37740500  0.76802100  1
  C  911  1  0.44577800  0.39405200  0.80873000  1
  C  912  1  0.41827300  0.35302400  0.83256800  1
  C  918  1  0.55823600  0.39472300  0.80630200  1
  C  919  1  0.56247800  0.44942400  0.80722800  1
  C  925  1  0.55142500  0.66436900  0.34480700  1
  C  926  1  0.52517600  0.64902800  0.30434100  1
  C  927  1  0.47455700  0.64883300  0.30352900  1
  C  928  1  0.44700300  0.66443600  0.34314400  1
  C  929  1  0.47374800  0.68210900  0.38193400  1
  C  930  1  0.52341600  0.68200300  0.38276100  1
  C  932  1  0.47642800  0.61528300  0.22405600  1
  C  933  1  0.52666400  0.61525100  0.22511600  1
  C  937  1  0.44609400  0.59896300  0.18412800  1
  C  938  1  0.41929200  0.64025700  0.15995900  1
  C  944  1  0.55852700  0.59779500  0.18694100  1
  C  945  1  0.56262300  0.54308000  0.18611600  1
  C  951  1  0.44148300  0.32832200  0.34440600  1
  C  952  1  0.46781700  0.34367100  0.30400000  1
  C  953  1  0.51844300  0.34394700  0.30331400  1
  C  954  1  0.54593400  0.32839600  0.34299700  1
  C  955  1  0.51910700  0.31070600  0.38172400  1
  C  956  1  0.46943900  0.31070100  0.38240900  1
  C  958  1  0.51671400  0.37744400  0.22381700  1
  C  959  1  0.46647200  0.37733700  0.22473400  1
  C  963  1  0.54712300  0.39393500  0.18401100  1
  C  964  1  0.57456000  0.35287800  0.16015300  1
  C  970  1  0.43466500  0.39463700  0.18643900  1
  C  971  1  0.43040900  0.44933800  0.18550500  1
  C  977  1  0.68510100  0.44966500  0.65398300  1
  C  978  1  0.72098700  0.47649900  0.63037600  1
  C  979  1  0.72222900  0.52674900  0.63438300  1
  C  980  1  0.68702200  0.55178300  0.66067000  1
  C  981  1  0.66326500  0.52390600  0.69501200  1
  C  982  1  0.66242700  0.47430200  0.69166800  1
  C  984  1  0.79622500  0.52875400  0.59012100  1
  C  985  1  0.79403100  0.47893000  0.58399800  1
  C  989  1  0.83370000  0.56151900  0.57279600  1
  C  990  1  0.86134300  0.58538600  0.61373900  1
  C  996  1  0.82658700  0.44952300  0.55457700  1
  C  997  1  0.88005300  0.44979300  0.56789800  1
  C  1003  1  0.68523300  0.54321100  0.33906100  1
  C  1004  1  0.72104300  0.51634500  0.36273800  1
  C  1005  1  0.72230700  0.46610300  0.35865300  1
  C  1006  1  0.68711700  0.44108900  0.33231500  1
  C  1007  1  0.66330800  0.46901000  0.29804900  1
  C  1008  1  0.66253400  0.51860600  0.30137400  1
  C  1010  1  0.79627400  0.46407600  0.40297200  1
  C  1011  1  0.79404900  0.51388900  0.40916500  1
  C  1015  1  0.83374600  0.43131100  0.42029700  1
  C  1016  1  0.86145000  0.40751100  0.37935700  1
  C  1022  1  0.82656600  0.54327900  0.43864700  1
  C  1023  1  0.88004200  0.54305500  0.42537600  1
  C  1029  1  0.30771200  0.54327200  0.65372100  1
  C  1030  1  0.27185400  0.51642000  0.63009200  1
  C  1031  1  0.27060900  0.46617300  0.63414500  1
  C  1032  1  0.30579500  0.44115700  0.66047900  1
  C  1033  1  0.32954200  0.46905600  0.69480200  1
  C  1034  1  0.33041300  0.51864900  0.69139800  1
  C  1036  1  0.19662100  0.46414300  0.58986900  1
  C  1037  1  0.19882300  0.51396000  0.58370400  1
  C  1041  1  0.15916300  0.43136700  0.57253300  1
  C  1042  1  0.13147800  0.40753300  0.61346600  1
  C  1048  1  0.16631200  0.54332100  0.55419300  1
  C  1049  1  0.11283700  0.54310800  0.56748300  1
  C  1055  1  0.30773500  0.44961500  0.33875800  1
  C  1056  1  0.27189400  0.47646000  0.36242200  1
  C  1057  1  0.27069600  0.52671700  0.35844700  1
  C  1058  1  0.30590100  0.55175800  0.33216700  1
  C  1059  1  0.32974500  0.52387000  0.29790100  1
  C  1060  1  0.33046900  0.47426300  0.30111900  1
  C  1062  1  0.19669800  0.52875100  0.40271200  1
  C  1063  1  0.19886500  0.47892300  0.40882100  1
  C  1067  1  0.15925500  0.56153700  0.42005900  1
  C  1068  1  0.13162800  0.58545700  0.37913300  1
  C  1074  1  0.16620700  0.44953000  0.43814300  1
  C  1075  1  0.11278600  0.44985300  0.42464100  1
  C  1081  1  0.69828800  0.69123100  0.45020100  1
  C  1082  1  0.67830800  0.73163500  0.47302000  1
  C  1083  1  0.67701900  0.73393100  0.52336600  1
  C  1084  1  0.69830200  0.69712700  0.55053400  1
  C  1085  1  0.73470900  0.67199700  0.52639700  1
  C  1086  1  0.73321100  0.66730100  0.47706300  1
  C  1088  1  0.63243100  0.80693300  0.51865600  1
  C  1089  1  0.63532000  0.80555600  0.46842000  1
  C  1093  1  0.60781900  0.84428800  0.54640600  1
  C  1094  1  0.64225600  0.88358100  0.56292900  1
  C  1100  1  0.61384200  0.84048300  0.43531800  1
  C  1101  1  0.56277600  0.82654800  0.42090400  1
  C  1107  1  0.29460300  0.69130900  0.54267500  1
  C  1108  1  0.31462600  0.73166700  0.51981300  1
  C  1109  1  0.31590800  0.73393100  0.46946400  1
  C  1110  1  0.29461700  0.69712700  0.44230000  1
  C  1111  1  0.25840300  0.67181900  0.46653900  1
  C  1112  1  0.25956900  0.66746400  0.51589500  1
  C  1114  1  0.36048800  0.80694800  0.47413500  1
  C  1115  1  0.35762000  0.80558800  0.52437400  1
  C  1119  1  0.38506800  0.84430600  0.44636700  1
  C  1120  1  0.35058400  0.88352800  0.42978100  1
  C  1126  1  0.37909400  0.84053300  0.55746200  1
  C  1127  1  0.43018900  0.82664400  0.57182400  1
  C  1133  1  0.69824500  0.30163000  0.54297000  1
  C  1134  1  0.67820500  0.26128200  0.52009400  1
  C  1135  1  0.67683500  0.25907400  0.46974400  1
  C  1136  1  0.69807500  0.29593900  0.44262300  1
  C  1137  1  0.73450700  0.32102000  0.46675200  1
  C  1138  1  0.73309000  0.32564000  0.51608600  1
  C  1140  1  0.63221400  0.18608400  0.47441200  1
  C  1141  1  0.63521400  0.18735600  0.52464400  1
  C  1145  1  0.60754200  0.14878600  0.44664100  1
  C  1146  1  0.64194300  0.10951400  0.42999400  1
  C  1152  1  0.61373900  0.15240100  0.55772100  1
  C  1153  1  0.56268000  0.16633000  0.57216800  1
  C  1159  1  0.29460500  0.30158400  0.44978600  1
  C  1160  1  0.31469500  0.26128400  0.47269400  1
  C  1161  1  0.31607400  0.25910400  0.52304300  1
  C  1162  1  0.29484900  0.29599000  0.55014700  1
  C  1163  1  0.25856900  0.32122700  0.52594700  1
  C  1164  1  0.25959300  0.32546500  0.47657300  1
  C  1166  1  0.36068300  0.18609900  0.51838300  1
  C  1167  1  0.35771900  0.18738900  0.46814700  1
  C  1171  1  0.38532000  0.14878800  0.54616800  1
  C  1172  1  0.35073500  0.10997600  0.56348900  1
  C  1178  1  0.37904800  0.15235300  0.43506200  1
  C  1179  1  0.43024200  0.16597000  0.42079000  1
  N  359  1  0.19871200  0.32691200  0.29945700  1
  N  362  1  0.14458800  0.27195300  0.24851000  1
  N  385  1  0.79411600  0.66598700  0.29993400  1
  N  388  1  0.84819300  0.72091200  0.24891500  1
  N  411  1  0.79412300  0.32694000  0.69329700  1
  N  414  1  0.84822800  0.27207800  0.74434600  1
  N  437  1  0.19875600  0.66597000  0.69294200  1
  N  440  1  0.14463600  0.72083700  0.74394800  1
  N  463  1  0.33590400  0.20073200  0.70738500  1
  N  466  1  0.27624000  0.14315100  0.74868700  1
  N  489  1  0.65669900  0.79218200  0.70778600  1
  N  492  1  0.71644300  0.84978300  0.74899200  1
  N  515  1  0.33606800  0.79212200  0.28504800  1
  N  518  1  0.27632300  0.84969400  0.24383900  1
  N  541  1  0.65699300  0.20070000  0.28538100  1
  N  544  1  0.71671700  0.14303000  0.24430400  1
  N  567  1  0.04120800  0.14364600  0.23767100  1
  N  570  1  0.94748500  0.14515600  0.23862500  1
  N  593  1  0.95153200  0.84918600  0.23807600  1
  N  596  1  0.04527000  0.84688300  0.23929500  1
  N  619  1  0.95158500  0.14399200  0.75515000  1
  N  622  1  0.04528800  0.14603500  0.75392200  1
  N  645  1  0.04118500  0.84897700  0.75469200  1
  N  648  1  0.94745400  0.84687600  0.75354900  1
  N  671  1  0.26031500  0.04717800  0.13104400  1
  N  674  1  0.25620300  0.95427900  0.12411000  1
  N  697  1  0.26023000  0.94541300  0.86158500  1
  N  700  1  0.25625900  0.03828300  0.86878300  1
  N  723  1  0.73232400  0.94526400  0.13093100  1
  N  726  1  0.73641300  0.03811200  0.12351000  1
  N  749  1  0.73262900  0.04734300  0.86181900  1
  N  752  1  0.73671100  0.95445700  0.86890700  1
  N  775  1  0.15693800  0.26604800  0.04397700  1
  N  778  1  0.15691800  0.26406200  0.94965100  1
  N  801  1  0.83612400  0.26617000  0.94908600  1
  N  804  1  0.83593600  0.26409000  0.04341000  1
  N  827  1  0.15654600  0.72666200  0.94872400  1
  N  830  1  0.15611600  0.72897300  0.04302200  1
  N  853  1  0.83635500  0.72662300  0.04402900  1
  N  856  1  0.83669600  0.72893000  0.94973600  1
  N  879  1  0.53894800  0.63196600  0.72954400  1
  N  882  1  0.44542000  0.63236300  0.72785800  1
  N  905  1  0.45376800  0.36089300  0.72965400  1
  N  908  1  0.54731400  0.36038500  0.72814900  1
  N  931  1  0.45395300  0.63201200  0.26325800  1
  N  934  1  0.54748100  0.63226400  0.26502600  1
  N  957  1  0.53912600  0.36079700  0.26309400  1
  N  960  1  0.44557600  0.36033200  0.26460700  1
  N  983  1  0.76009800  0.54892900  0.61464100  1
  N  986  1  0.75665900  0.45651900  0.60477000  1
  N  1009  1  0.76017600  0.44391800  0.37839100  1
  N  1012  1  0.75668700  0.53631100  0.38839000  1
  N  1035  1  0.23273100  0.44398600  0.61442400  1
  N  1038  1  0.23619800  0.53638600  0.60445400  1
  N  1061  1  0.23284000  0.54890500  0.37820300  1
  N  1064  1  0.23620900  0.45649100  0.38802100  1
  N  1087  1  0.65379900  0.77126100  0.54325700  1
  N  1090  1  0.65767500  0.76773300  0.44873100  1
  N  1113  1  0.33911200  0.77126500  0.44955800  1
  N  1116  1  0.33525800  0.76777900  0.54408400  1
  N  1139  1  0.65355700  0.22178900  0.44983900  1
  N  1142  1  0.65761400  0.22513900  0.54435800  1
  N  1165  1  0.33933400  0.22180700  0.54295600  1
  N  1168  1  0.33527000  0.22513700  0.44843300  1
