# generated using pymatgen
data_H22C37(N5O2)2
_symmetry_space_group_name_H-M   'P 1'
_cell_length_a   56.85160000
_cell_length_b   56.85160000
_cell_length_c   107.27000000
_cell_angle_alpha   90.00000000
_cell_angle_beta   90.00000000
_cell_angle_gamma   90.00000000
_symmetry_Int_Tables_number   1
_chemical_formula_structural   H22C37(N5O2)2
_chemical_formula_sum   'H1408 C2368 N640 O256'
_cell_volume   346707.84140801
_cell_formula_units_Z   64
loop_
 _symmetry_equiv_pos_site_id
 _symmetry_equiv_pos_as_xyz
  1  'x, y, z'
loop_
 _atom_site_type_symbol
 _atom_site_label
 _atom_site_symmetry_multiplicity
 _atom_site_fract_x
 _atom_site_fract_y
 _atom_site_fract_z
 _atom_site_occupancy
  H  26  1  0.15395700  0.39010100  0.01292500  1
  H  27  1  0.11879000  0.38921000  0.02472200  1
  H  28  1  0.19245500  0.40602700  0.04536000  1
  H  29  1  0.15719800  0.40577400  0.05708800  1
  H  30  1  0.11923900  0.44306200  0.05063200  1
  H  31  1  0.09948700  0.47609900  0.04208900  1
  H  32  1  0.04999900  0.43114300  0.02520700  1
  H  33  1  0.07004200  0.39826500  0.03342000  1
  H  34  1  0.06561300  0.38403100  0.05785500  1
  H  35  1  0.04293600  0.34915300  0.05571800  1
  H  36  1  0.09943900  0.31676800  0.03693900  1
  H  37  1  0.12232800  0.35108400  0.03950500  1
  H  38  1  0.13492000  0.36740500  0.06586600  1
  H  39  1  0.08918100  0.42555900  0.06772400  1
  H  40  1  0.09339200  0.42655200  0.08951300  1
  H  41  1  0.13864600  0.36795300  0.08798300  1
  H  44  1  0.07142700  0.49138300  0.02656800  1
  H  45  1  0.19546300  0.39932700  0.01123200  1
  H  47  1  0.05723500  0.30109100  0.03566000  1
  H  49  1  0.11531200  0.41458800  0.10810500  1
  H  75  1  0.37000700  0.63385900  0.51292100  1
  H  76  1  0.40516700  0.63475800  0.52472200  1
  H  77  1  0.33150200  0.61790700  0.54534900  1
  H  78  1  0.36675500  0.61817200  0.55708200  1
  H  79  1  0.40471800  0.58089800  0.55063300  1
  H  80  1  0.42445400  0.54786300  0.54207600  1
  H  81  1  0.47392000  0.59282700  0.52518200  1
  H  82  1  0.45389000  0.62570200  0.53341000  1
  H  83  1  0.45834200  0.63992200  0.55785300  1
  H  84  1  0.48102200  0.67479700  0.55571800  1
  H  85  1  0.42451600  0.70719700  0.53695000  1
  H  86  1  0.40162400  0.67288300  0.53951600  1
  H  87  1  0.38902300  0.65654200  0.56586800  1
  H  88  1  0.43480700  0.59843100  0.56772400  1
  H  89  1  0.43061700  0.59744500  0.58951300  1
  H  90  1  0.38531400  0.65600400  0.58798500  1
  H  93  1  0.45256800  0.53251600  0.52660100  1
  H  94  1  0.32849900  0.62469800  0.51122000  1
  H  96  1  0.46670800  0.72287800  0.53566700  1
  H  98  1  0.40871800  0.60939900  0.60811000  1
  H  124  1  0.88349400  0.90392800  0.26289400  1
  H  125  1  0.88439200  0.86876000  0.27469100  1
  H  126  1  0.86756500  0.94242000  0.29533000  1
  H  127  1  0.86782900  0.90716100  0.30705700  1
  H  128  1  0.83055000  0.86918500  0.30064500  1
  H  129  1  0.79749700  0.84942900  0.29212300  1
  H  130  1  0.84243000  0.80000300  0.27517200  1
  H  131  1  0.87531900  0.82005200  0.28336800  1
  H  132  1  0.88955800  0.81556900  0.30781800  1
  H  133  1  0.92441700  0.79286600  0.30567400  1
  H  134  1  0.95682900  0.84934600  0.28689100  1
  H  135  1  0.92253100  0.87226200  0.28946500  1
  H  136  1  0.90624300  0.88490300  0.31581600  1
  H  137  1  0.84813600  0.83912500  0.31772200  1
  H  138  1  0.84721600  0.84331800  0.33951300  1
  H  139  1  0.90577200  0.88862000  0.33793300  1
  H  142  1  0.78196500  0.82115700  0.27686100  1
  H  143  1  0.87432000  0.94543100  0.26120400  1
  H  145  1  0.97244000  0.80709900  0.28559300  1
  H  147  1  0.85927000  0.86509000  0.35811200  1
  H  173  1  0.64046000  0.12002800  0.76289300  1
  H  174  1  0.63955400  0.15519300  0.77468900  1
  H  175  1  0.65640700  0.08153900  0.79532600  1
  H  176  1  0.65613100  0.11679600  0.80705300  1
  H  177  1  0.69340100  0.15475900  0.80063700  1
  H  178  1  0.72645600  0.17452200  0.79212100  1
  H  179  1  0.68152700  0.22397400  0.77518800  1
  H  180  1  0.64863600  0.20392200  0.78337800  1
  H  181  1  0.63439500  0.20838500  0.80782300  1
  H  182  1  0.59954000  0.23109600  0.80567800  1
  H  183  1  0.56712900  0.17463600  0.78687800  1
  H  184  1  0.60142000  0.15171300  0.78945200  1
  H  185  1  0.61769600  0.13905500  0.81581500  1
  H  186  1  0.67583600  0.18479700  0.81771700  1
  H  187  1  0.67677600  0.18058100  0.83950600  1
  H  188  1  0.61818800  0.13531900  0.83793100  1
  H  191  1  0.74199500  0.20280900  0.77687200  1
  H  192  1  0.64952900  0.07851800  0.76119400  1
  H  194  1  0.55152000  0.21688600  0.78559000  1
  H  196  1  0.66473000  0.15877000  0.85810100  1
  H  222  1  0.37005400  0.38806300  0.01082200  1
  H  223  1  0.40528300  0.38862000  0.99911300  1
  H  224  1  0.33141200  0.40485200  0.97854800  1
  H  225  1  0.36677600  0.40597100  0.96690500  1
  H  226  1  0.40478200  0.44310400  0.97326300  1
  H  227  1  0.42450700  0.47612500  0.98184900  1
  H  228  1  0.47379800  0.43111700  0.99885200  1
  H  229  1  0.45377600  0.39825400  0.99059300  1
  H  230  1  0.45854300  0.38428800  0.96615900  1
  H  231  1  0.48125100  0.34939900  0.96822900  1
  H  232  1  0.42447200  0.31657100  0.98655600  1
  H  233  1  0.40157300  0.35088500  0.98404900  1
  H  234  1  0.38893900  0.36759000  0.95802100  1
  H  235  1  0.43493700  0.42554100  0.95620300  1
  H  236  1  0.43076500  0.42657000  0.93440800  1
  H  237  1  0.38523300  0.36817900  0.93590800  1
  H  240  1  0.45249700  0.49140400  0.99743500  1
  H  241  1  0.32811700  0.39170600  0.01238500  1
  H  243  1  0.46679100  0.30109400  0.98803900  1
  H  245  1  0.40885900  0.41467400  0.91579600  1
  H  271  1  0.15390800  0.63588900  0.51081900  1
  H  272  1  0.11867800  0.63533400  0.49911300  1
  H  273  1  0.19254900  0.61909400  0.47854000  1
  H  274  1  0.15718400  0.61798100  0.46689900  1
  H  275  1  0.11918300  0.58084700  0.47326300  1
  H  276  1  0.09945800  0.54782600  0.48184700  1
  H  277  1  0.05015000  0.59283300  0.49884000  1
  H  278  1  0.07017300  0.62569500  0.49058200  1
  H  279  1  0.06542000  0.63966700  0.46615300  1
  H  280  1  0.04271500  0.67455600  0.46822100  1
  H  281  1  0.09948800  0.70737500  0.48655400  1
  H  282  1  0.12238600  0.67305900  0.48404700  1
  H  283  1  0.13501900  0.65635900  0.45802500  1
  H  284  1  0.08903400  0.59839600  0.45619900  1
  H  285  1  0.09322000  0.59737100  0.43440200  1
  H  286  1  0.13873600  0.65577200  0.43591200  1
  H  289  1  0.07145000  0.53253700  0.49742000  1
  H  290  1  0.19584300  0.63223200  0.51238200  1
  H  292  1  0.05717000  0.72285900  0.48803200  1
  H  294  1  0.11515600  0.60926500  0.41579500  1
  H  320  1  0.63841600  0.90390200  0.76083700  1
  H  321  1  0.63898400  0.86866500  0.74913900  1
  H  322  1  0.65518300  0.94252700  0.72855000  1
  H  323  1  0.65630800  0.90715600  0.71691500  1
  H  324  1  0.69345200  0.86913600  0.72324000  1
  H  325  1  0.72649500  0.84938500  0.73177900  1
  H  326  1  0.68152700  0.80012700  0.74884000  1
  H  327  1  0.64864300  0.82017400  0.74062100  1
  H  328  1  0.63464500  0.81537900  0.71619400  1
  H  329  1  0.59977000  0.79265600  0.71827700  1
  H  330  1  0.56693900  0.84942300  0.73660900  1
  H  331  1  0.60124200  0.87233900  0.73408600  1
  H  332  1  0.61789100  0.88499700  0.70806900  1
  H  333  1  0.67585200  0.83902100  0.70619600  1
  H  334  1  0.67681400  0.84320700  0.68439800  1
  H  335  1  0.61841500  0.88871900  0.68595600  1
  H  338  1  0.74192400  0.82128200  0.74719800  1
  H  339  1  0.64203400  0.94584600  0.76239000  1
  H  341  1  0.55151600  0.80705000  0.73811100  1
  H  343  1  0.66481800  0.86500200  0.66578700  1
  H  369  1  0.88554200  0.12005500  0.26083700  1
  H  370  1  0.88497600  0.15529500  0.24913700  1
  H  371  1  0.86878400  0.08143200  0.22854600  1
  H  372  1  0.86765900  0.11680500  0.21691400  1
  H  373  1  0.83051400  0.15482200  0.22324000  1
  H  374  1  0.79747400  0.17456600  0.23178700  1
  H  375  1  0.84244200  0.22381600  0.24885200  1
  H  376  1  0.87532600  0.20377800  0.24062700  1
  H  377  1  0.88931500  0.20858200  0.21619400  1
  H  378  1  0.92418800  0.23130700  0.21827800  1
  H  379  1  0.95702600  0.17454000  0.23660600  1
  H  380  1  0.92272600  0.15162100  0.23408300  1
  H  381  1  0.90607800  0.13896900  0.20806800  1
  H  382  1  0.84810800  0.18493600  0.20619500  1
  H  383  1  0.84714700  0.18074800  0.18439800  1
  H  384  1  0.90555500  0.13524700  0.18595600  1
  H  387  1  0.78201100  0.20269300  0.24718700  1
  H  388  1  0.88195500  0.07810900  0.26238400  1
  H  390  1  0.97245200  0.21690800  0.23810700  1
  H  392  1  0.85914500  0.15894000  0.16578700  1
  H  418  1  0.86995400  0.63397300  0.01104600  1
  H  419  1  0.90514000  0.63490900  0.99926300  1
  H  420  1  0.83158900  0.61752100  0.97864200  1
  H  421  1  0.86687200  0.61782900  0.96692400  1
  H  422  1  0.90511700  0.58084000  0.97308600  1
  H  423  1  0.92556900  0.54777700  0.98108400  1
  H  424  1  0.97434000  0.59280300  0.99850700  1
  H  425  1  0.95362100  0.62569400  0.99077900  1
  H  426  1  0.95847000  0.63989000  0.96629900  1
  H  427  1  0.98109400  0.67479700  0.96843400  1
  H  428  1  0.92433100  0.70728500  0.98694800  1
  H  429  1  0.90149700  0.67291800  0.98437500  1
  H  430  1  0.88876800  0.65638000  0.95816100  1
  H  431  1  0.93527000  0.59885200  0.95623100  1
  H  432  1  0.93105200  0.59786900  0.93444500  1
  H  433  1  0.88504200  0.65586900  0.93603900  1
  H  436  1  0.95771600  0.53083600  0.99274600  1
  H  437  1  0.82849900  0.62447100  0.01274200  1
  H  439  1  0.96653900  0.72300500  0.98832800  1
  H  441  1  0.90879500  0.60951500  0.91589500  1
  H  467  1  0.65399700  0.38998000  0.51105100  1
  H  468  1  0.61881800  0.38903500  0.49926400  1
  H  469  1  0.69236900  0.40645800  0.47865200  1
  H  470  1  0.65709100  0.40614000  0.46693400  1
  H  471  1  0.61883500  0.44311300  0.47307400  1
  H  472  1  0.59839100  0.47617500  0.48107900  1
  H  473  1  0.54965500  0.43114700  0.49853100  1
  H  474  1  0.57036700  0.39825800  0.49079700  1
  H  475  1  0.56548800  0.38407200  0.46629900  1
  H  476  1  0.54286200  0.34916700  0.46843900  1
  H  477  1  0.59963100  0.31666100  0.48693200  1
  H  478  1  0.62246600  0.35102800  0.48436300  1
  H  479  1  0.63520400  0.36758300  0.45816300  1
  H  480  1  0.58865500  0.42506800  0.45623200  1
  H  481  1  0.59285200  0.42604400  0.43444700  1
  H  482  1  0.63891400  0.36808600  0.43604100  1
  H  485  1  0.56615100  0.49312200  0.49267000  1
  H  486  1  0.69545600  0.39941700  0.51275600  1
  H  488  1  0.55743200  0.30094100  0.48832400  1
  H  490  1  0.61509200  0.41440900  0.41589100  1
  H  516  1  0.14045900  0.12002900  0.76103900  1
  H  517  1  0.13956100  0.15519000  0.74923900  1
  H  518  1  0.15636600  0.08151800  0.72860700  1
  H  519  1  0.15610100  0.11677000  0.71687500  1
  H  520  1  0.19339600  0.15474800  0.72328600  1
  H  521  1  0.22644900  0.17450400  0.73180700  1
  H  522  1  0.18151800  0.22394100  0.74875000  1
  H  523  1  0.14862900  0.20389400  0.74055500  1
  H  524  1  0.13439100  0.20836700  0.71610300  1
  H  525  1  0.09953600  0.23107500  0.71824900  1
  H  526  1  0.06712200  0.17460700  0.73704100  1
  H  527  1  0.10141600  0.15168600  0.73446700  1
  H  528  1  0.11769700  0.13904000  0.70811200  1
  H  529  1  0.17582100  0.18479900  0.70620400  1
  H  530  1  0.17675000  0.18058900  0.68441400  1
  H  531  1  0.11817500  0.13531200  0.68599500  1
  H  534  1  0.24198300  0.20278000  0.74706600  1
  H  535  1  0.14963400  0.07852700  0.76273400  1
  H  537  1  0.05151600  0.21685600  0.73833500  1
  H  539  1  0.16472700  0.15871400  0.66582700  1
  H  565  1  0.38350000  0.90393000  0.26104100  1
  H  566  1  0.38440800  0.86877000  0.24924000  1
  H  567  1  0.36757400  0.94243700  0.22861100  1
  H  568  1  0.36785200  0.90718600  0.21687900  1
  H  569  1  0.33056700  0.86922000  0.22329400  1
  H  570  1  0.29751300  0.84945900  0.23181000  1
  H  571  1  0.34243900  0.79999800  0.24873700  1
  H  572  1  0.37533000  0.82004900  0.24054700  1
  H  573  1  0.38957000  0.81559300  0.21609800  1
  H  574  1  0.42442200  0.79287600  0.21824400  1
  H  575  1  0.45683500  0.84932500  0.23705400  1
  H  576  1  0.42254700  0.87225300  0.23447900  1
  H  577  1  0.40627700  0.88491600  0.20811300  1
  H  578  1  0.34812000  0.83919300  0.20620900  1
  H  579  1  0.34717400  0.84342500  0.18442000  1
  H  580  1  0.40578100  0.88866200  0.18599700  1
  H  583  1  0.28197600  0.82117100  0.24706000  1
  H  584  1  0.37442900  0.94543600  0.26274400  1
  H  586  1  0.47243900  0.80707300  0.23833900  1
  H  588  1  0.35918900  0.86533800  0.16583700  1
  H  614  1  0.65394600  0.63603800  0.01312000  1
  H  615  1  0.61870000  0.63550500  0.02481200  1
  H  616  1  0.69247600  0.61873500  0.04536200  1
  H  617  1  0.65708400  0.61765000  0.05698800  1
  H  618  1  0.61877900  0.58080100  0.05094500  1
  H  619  1  0.59834500  0.54775600  0.04291400  1
  H  620  1  0.54978200  0.59282000  0.02535400  1
  H  621  1  0.57048700  0.62569900  0.03311900  1
  H  622  1  0.56529300  0.63963500  0.05760100  1
  H  623  1  0.54264100  0.67455200  0.05552900  1
  H  624  1  0.59967300  0.70748500  0.03748300  1
  H  625  1  0.62251900  0.67312100  0.03999300  1
  H  626  1  0.63529800  0.65619900  0.06585900  1
  H  627  1  0.58853900  0.59887800  0.06775300  1
  H  628  1  0.59272000  0.59786200  0.08954400  1
  H  629  1  0.63900700  0.65564500  0.08797600  1
  H  632  1  0.56627100  0.53083400  0.03118800  1
  H  633  1  0.69586000  0.63216500  0.01155900  1
  H  635  1  0.55734700  0.72300000  0.03588900  1
  H  637  1  0.61497400  0.60943500  0.10811800  1
  H  663  1  0.87000500  0.38792200  0.51312500  1
  H  664  1  0.90525300  0.38845100  0.52481700  1
  H  665  1  0.83148000  0.40523700  0.54536700  1
  H  666  1  0.86687100  0.40631600  0.55699300  1
  H  667  1  0.90517400  0.44316200  0.55094400  1
  H  668  1  0.92561100  0.47620800  0.54291300  1
  H  669  1  0.97418100  0.43113600  0.52536200  1
  H  670  1  0.95347300  0.39826100  0.53312600  1
  H  671  1  0.95865700  0.38432300  0.55760800  1
  H  672  1  0.98130900  0.34940600  0.55553600  1
  H  673  1  0.92428000  0.31648000  0.53748300  1
  H  674  1  0.90143600  0.35084800  0.53999300  1
  H  675  1  0.88865700  0.36776400  0.56585800  1
  H  676  1  0.93540700  0.42509600  0.56776000  1
  H  677  1  0.93121300  0.42611100  0.58955200  1
  H  678  1  0.88493700  0.36831800  0.58797600  1
  H  681  1  0.95767700  0.49312000  0.53118100  1
  H  682  1  0.82809400  0.39181300  0.51155900  1
  H  684  1  0.96660400  0.30096200  0.53589300  1
  H  686  1  0.90892900  0.41453900  0.60811800  1
  H  712  1  0.38554400  0.12005200  0.26314200  1
  H  713  1  0.38497600  0.15528400  0.27484600  1
  H  714  1  0.36880200  0.08140700  0.29542700  1
  H  715  1  0.36767600  0.11677300  0.30706600  1
  H  716  1  0.33051800  0.15478900  0.30073900  1
  H  717  1  0.29747400  0.17454000  0.29220000  1
  H  718  1  0.34244100  0.22381600  0.27515200  1
  H  719  1  0.37532300  0.20377100  0.28337100  1
  H  720  1  0.38932200  0.20855300  0.30779900  1
  H  721  1  0.42419400  0.23128100  0.30571500  1
  H  722  1  0.45702500  0.17452700  0.28737300  1
  H  723  1  0.42272500  0.15160600  0.28989500  1
  H  724  1  0.40608300  0.13894400  0.31591700  1
  H  725  1  0.34810800  0.18490200  0.31779200  1
  H  726  1  0.34714200  0.18070200  0.33958900  1
  H  727  1  0.40555700  0.13521300  0.33803000  1
  H  730  1  0.28204500  0.20265000  0.27678500  1
  H  731  1  0.38194000  0.07810900  0.26158400  1
  H  733  1  0.47244400  0.21690100  0.28587500  1
  H  735  1  0.35911000  0.15881700  0.35819100  1
  H  761  1  0.13840800  0.90390400  0.76314400  1
  H  762  1  0.13897600  0.86867200  0.77484800  1
  H  763  1  0.15514000  0.94254800  0.79543000  1
  H  764  1  0.15626800  0.90718100  0.80706800  1
  H  765  1  0.19342800  0.86916200  0.80074300  1
  H  766  1  0.22647200  0.84941800  0.79219700  1
  H  767  1  0.18150400  0.80015700  0.77514000  1
  H  768  1  0.14862100  0.82019300  0.78336500  1
  H  769  1  0.13463200  0.81540000  0.80779700  1
  H  770  1  0.09976300  0.79266900  0.80571400  1
  H  771  1  0.06692300  0.84942200  0.78737500  1
  H  772  1  0.10121900  0.87234800  0.78989900  1
  H  773  1  0.11786000  0.88500400  0.81591700  1
  H  774  1  0.17584600  0.83905800  0.81779300  1
  H  775  1  0.17681100  0.84325800  0.83959000  1
  H  776  1  0.11838600  0.88873400  0.83803000  1
  H  779  1  0.24193500  0.82128700  0.77680000  1
  H  780  1  0.14197800  0.94585000  0.76159000  1
  H  782  1  0.05150300  0.80705200  0.78587700  1
  H  784  1  0.16484100  0.86515700  0.85819100  1
  H  810  1  0.65419200  0.88987400  0.51293600  1
  H  811  1  0.61897400  0.88874300  0.52468600  1
  H  812  1  0.69223900  0.90732700  0.54530300  1
  H  813  1  0.65687800  0.90679500  0.55699200  1
  H  814  1  0.61815800  0.94305300  0.55151200  1
  H  815  1  0.59821900  0.97616200  0.54314800  1
  H  816  1  0.55093200  0.93117700  0.52459300  1
  H  817  1  0.57117300  0.89824300  0.53266300  1
  H  818  1  0.56509200  0.88381600  0.55697800  1
  H  819  1  0.54292200  0.84865300  0.55476100  1
  H  820  1  0.60094800  0.81625800  0.53733700  1
  H  821  1  0.62328200  0.85093100  0.53995700  1
  H  822  1  0.63604900  0.86785200  0.56554000  1
  H  823  1  0.58707000  0.92323100  0.56777700  1
  H  824  1  0.58863600  0.92161500  0.58965800  1
  H  825  1  0.63731700  0.86590700  0.58769900  1
  H  828  1  0.57088800  0.99175300  0.52735000  1
  H  829  1  0.69548900  0.90009600  0.51124500  1
  H  831  1  0.55967600  0.79953400  0.53568700  1
  H  833  1  0.59723200  0.89753600  0.60812300  1
  H  859  1  0.86977800  0.13409600  0.01293100  1
  H  860  1  0.90498700  0.13523300  0.02468600  1
  H  861  1  0.83171900  0.11660300  0.04528700  1
  H  862  1  0.86707500  0.11714200  0.05698200  1
  H  863  1  0.90580300  0.08090500  0.05151700  1
  H  864  1  0.92572700  0.04779800  0.04313800  1
  H  865  1  0.97298500  0.09279400  0.02456900  1
  H  866  1  0.95275700  0.12572300  0.03265300  1
  H  867  1  0.95886400  0.14013700  0.05697700  1
  H  868  1  0.98103400  0.17529900  0.05476400  1
  H  869  1  0.92299900  0.20771100  0.03735700  1
  H  870  1  0.90066600  0.17303900  0.03997300  1
  H  871  1  0.88789500  0.15609700  0.06554000  1
  H  872  1  0.93692500  0.10077700  0.06777800  1
  H  873  1  0.93538600  0.10241400  0.08965900  1
  H  874  1  0.88664500  0.15806600  0.08769700  1
  H  877  1  0.95311300  0.03214900  0.02738300  1
  H  878  1  0.82847600  0.12394800  0.01123200  1
  H  880  1  0.96425700  0.22444000  0.03570300  1
  H  882  1  0.92677900  0.12651800  0.10811700  1
  H  908  1  0.38457100  0.40428000  0.76292600  1
  H  909  1  0.38578000  0.36905000  0.77466500  1
  H  910  1  0.36643800  0.44215600  0.79524400  1
  H  911  1  0.36706100  0.40677500  0.80692200  1
  H  912  1  0.33120100  0.36774300  0.80175900  1
  H  913  1  0.29812700  0.34707500  0.79390900  1
  H  914  1  0.34316000  0.30062500  0.77478300  1
  H  915  1  0.37605100  0.32156500  0.78239700  1
  H  916  1  0.39043400  0.31498500  0.80674900  1
  H  917  1  0.42564700  0.29290300  0.80454800  1
  H  918  1  0.45816800  0.35125100  0.78749600  1
  H  919  1  0.42341800  0.37349700  0.79009800  1
  H  920  1  0.40617700  0.38637200  0.81549300  1
  H  921  1  0.35158500  0.33654300  0.81774000  1
  H  922  1  0.35324100  0.33805000  0.83961400  1
  H  923  1  0.40818700  0.38758400  0.83765300  1
  H  926  1  0.28121400  0.31533000  0.78193900  1
  H  927  1  0.37402800  0.44548800  0.76122200  1
  H  929  1  0.47497500  0.31001600  0.78572200  1
  H  931  1  0.37724000  0.34693600  0.85805200  1
  H  957  1  0.13938800  0.61967600  0.26292300  1
  H  958  1  0.13816600  0.65490100  0.27466300  1
  H  959  1  0.15754000  0.58180200  0.29523900  1
  H  960  1  0.15689900  0.61718400  0.30691800  1
  H  961  1  0.19274900  0.65620800  0.30175400  1
  H  962  1  0.22582300  0.67688100  0.29390900  1
  H  963  1  0.18079300  0.72335300  0.27479700  1
  H  964  1  0.14790100  0.70240700  0.28240300  1
  H  965  1  0.13351800  0.70897200  0.30675200  1
  H  966  1  0.09830800  0.73106300  0.30454700  1
  H  967  1  0.06579000  0.67272800  0.28748100  1
  H  968  1  0.10053100  0.65047600  0.29008500  1
  H  969  1  0.11776500  0.63757700  0.31549300  1
  H  970  1  0.17238000  0.68738900  0.31773200  1
  H  971  1  0.17074200  0.68587500  0.33960500  1
  H  972  1  0.11577500  0.63636200  0.33765600  1
  H  975  1  0.24273500  0.70860600  0.28192500  1
  H  976  1  0.14981700  0.57846000  0.26121000  1
  H  978  1  0.04897800  0.71395500  0.28571600  1
  H  980  1  0.14674400  0.67700400  0.35804700  1
  H  1006  1  0.86986800  0.88769000  0.51080300  1
  H  1007  1  0.90514600  0.88810800  0.49914500  1
  H  1008  1  0.83160500  0.90603900  0.47863100  1
  H  1009  1  0.86707800  0.90697800  0.46702800  1
  H  1010  1  0.90589100  0.94310100  0.47236300  1
  H  1011  1  0.92581700  0.97619400  0.48075900  1
  H  1012  1  0.97285500  0.93116200  0.49945900  1
  H  1013  1  0.95262700  0.89824300  0.49135000  1
  H  1014  1  0.95908800  0.88408200  0.46705600  1
  H  1015  1  0.98128100  0.84890100  0.46919700  1
  H  1016  1  0.92295700  0.81604900  0.48609300  1
  H  1017  1  0.90062200  0.85072800  0.48354200  1
  H  1018  1  0.88776000  0.86809100  0.45834100  1
  H  1019  1  0.93709700  0.92315200  0.45615000  1
  H  1020  1  0.93555300  0.92157300  0.43426600  1
  H  1021  1  0.88649200  0.86619500  0.43618600  1
  H  1024  1  0.95302500  0.99175300  0.49665400  1
  H  1025  1  0.82804100  0.89202700  0.51237600  1
  H  1027  1  0.96430100  0.79949000  0.48796100  1
  H  1029  1  0.92677900  0.89765600  0.41578300  1
  H  1055  1  0.65409700  0.13624700  0.01080300  1
  H  1056  1  0.61882000  0.13583600  0.99914100  1
  H  1057  1  0.69236000  0.11791800  0.97862300  1
  H  1058  1  0.65688700  0.11698500  0.96702600  1
  H  1059  1  0.61807900  0.08085200  0.97236800  1
  H  1060  1  0.59816400  0.04775800  0.98077600  1
  H  1061  1  0.55109800  0.09279300  0.99944900  1
  H  1062  1  0.57132000  0.12571100  0.99133900  1
  H  1063  1  0.56488600  0.13988000  0.96704500  1
  H  1064  1  0.54269500  0.17506200  0.96918000  1
  H  1065  1  0.60100500  0.20789400  0.98610900  1
  H  1066  1  0.62333800  0.17321400  0.98355500  1
  H  1067  1  0.63618100  0.15587700  0.95834700  1
  H  1068  1  0.58688700  0.10077700  0.95613800  1
  H  1069  1  0.58844600  0.10236900  0.93425800  1
  H  1070  1  0.63745800  0.15778400  0.93618800  1
  H  1073  1  0.57089300  0.03215500  0.99661500  1
  H  1074  1  0.69592200  0.13189700  0.01237200  1
  H  1076  1  0.55966000  0.22446100  0.98796400  1
  H  1078  1  0.59716300  0.12639400  0.91578900  1
  H  1104  1  0.13717000  0.40415700  0.26081300  1
  H  1105  1  0.13755100  0.36886200  0.24917000  1
  H  1106  1  0.15614300  0.44227400  0.22869200  1
  H  1107  1  0.15703100  0.40676900  0.21710300  1
  H  1108  1  0.19280400  0.36764100  0.22213400  1
  H  1109  1  0.22586200  0.34698000  0.23001100  1
  H  1110  1  0.18079500  0.30072800  0.24925000  1
  H  1111  1  0.14791500  0.32166400  0.24160200  1
  H  1112  1  0.13378200  0.31474600  0.21729100  1
  H  1113  1  0.09855100  0.29264200  0.21942200  1
  H  1114  1  0.06559800  0.35127800  0.23595800  1
  H  1115  1  0.10035400  0.37352300  0.23342000  1
  H  1116  1  0.11800100  0.38646400  0.20840100  1
  H  1117  1  0.17238600  0.33639000  0.20619400  1
  H  1118  1  0.17076600  0.33789500  0.18431200  1
  H  1119  1  0.11604800  0.38768800  0.18624300  1
  H  1122  1  0.24275300  0.31544400  0.24213700  1
  H  1123  1  0.14183700  0.44594100  0.26239600  1
  H  1125  1  0.04893000  0.30997700  0.23793800  1
  H  1127  1  0.14686400  0.34690300  0.16586100  1
  H  1153  1  0.38678000  0.61980100  0.76081200  1
  H  1154  1  0.38639700  0.65510000  0.74917100  1
  H  1155  1  0.36783100  0.58168800  0.72868600  1
  H  1156  1  0.36694100  0.61719400  0.71710000  1
  H  1157  1  0.33116000  0.65632100  0.72213600  1
  H  1158  1  0.29810200  0.67697400  0.73001500  1
  H  1159  1  0.34316500  0.72323000  0.74925400  1
  H  1160  1  0.37604700  0.70230000  0.74160400  1
  H  1161  1  0.39018200  0.70921600  0.71729400  1
  H  1162  1  0.42541300  0.73131900  0.71942400  1
  H  1163  1  0.45836700  0.67267900  0.73595600  1
  H  1164  1  0.42361000  0.65043700  0.73342100  1
  H  1165  1  0.40595300  0.63749600  0.70839800  1
  H  1166  1  0.35156800  0.68757400  0.70619800  1
  H  1167  1  0.35317500  0.68606500  0.68431600  1
  H  1168  1  0.40789500  0.63626800  0.68624100  1
  H  1171  1  0.28120900  0.70853600  0.74212400  1
  H  1172  1  0.38215800  0.57801300  0.76238900  1
  H  1174  1  0.47503800  0.71397800  0.73793600  1
  H  1176  1  0.37703800  0.67704100  0.66585700  1
  H  1202  1  0.36970300  0.13422300  0.51102900  1
  H  1203  1  0.40494000  0.13540300  0.49929500  1
  H  1204  1  0.33181600  0.11618000  0.47870000  1
  H  1205  1  0.36720700  0.11677100  0.46702700  1
  H  1206  1  0.40626600  0.08085700  0.47218000  1
  H  1207  1  0.42696800  0.04777900  0.48000400  1
  H  1208  1  0.47340900  0.09280200  0.49914100  1
  H  1209  1  0.45243700  0.12569400  0.49155400  1
  H  1210  1  0.45900000  0.14009100  0.46719400  1
  H  1211  1  0.48110800  0.17528500  0.46941100  1
  H  1212  1  0.42280800  0.20779700  0.48651300  1
  H  1213  1  0.40053400  0.17306900  0.48389500  1
  H  1214  1  0.38763000  0.15589900  0.45848500  1
  H  1215  1  0.43736300  0.10121700  0.45619000  1
  H  1216  1  0.43580300  0.10290000  0.43431600  1
  H  1217  1  0.38636900  0.15793000  0.43632500  1
  H  1220  1  0.45872600  0.03086100  0.49196600  1
  H  1221  1  0.32846900  0.12367600  0.51272600  1
  H  1223  1  0.46408000  0.22456700  0.48828100  1
  H  1225  1  0.42690200  0.12690900  0.41588300  1
  H  1251  1  0.15424200  0.88971800  0.01103700  1
  H  1252  1  0.11901300  0.88853400  0.99929000  1
  H  1253  1  0.19213900  0.90780500  0.97871600  1
  H  1254  1  0.15675600  0.90720500  0.96703500  1
  H  1255  1  0.11767900  0.94309900  0.97217200  1
  H  1256  1  0.09698500  0.97617400  0.98000300  1
  H  1257  1  0.05058700  0.93115000  0.99916000  1
  H  1258  1  0.07155100  0.89825900  0.99157200  1
  H  1259  1  0.06495600  0.88387300  0.96720300  1
  H  1260  1  0.04284700  0.84867800  0.96941300  1
  H  1261  1  0.10116000  0.81614500  0.98649100  1
  H  1262  1  0.12343200  0.85087600  0.98388100  1
  H  1263  1  0.13634100  0.86806500  0.95848700  1
  H  1264  1  0.08655200  0.92268400  0.95618400  1
  H  1265  1  0.08809000  0.92098200  0.93431400  1
  H  1266  1  0.13758500  0.86601000  0.93632800  1
  H  1269  1  0.06513500  0.99309000  0.99189800  1
  H  1270  1  0.19547900  0.90019100  0.01274400  1
  H  1272  1  0.05990300  0.79937000  0.98826200  1
  H  1274  1  0.09699900  0.89694500  0.91588900  1
  H  1300  1  0.63937500  0.61967400  0.26100700  1
  H  1301  1  0.63816600  0.65489900  0.24926300  1
  H  1302  1  0.65749000  0.58178100  0.22869200  1
  H  1303  1  0.65686600  0.61715900  0.21700900  1
  H  1304  1  0.69274400  0.65619200  0.22217200  1
  H  1305  1  0.72581700  0.67685700  0.23002300  1
  H  1306  1  0.68078600  0.72331800  0.24914300  1
  H  1307  1  0.64789300  0.70237900  0.24152900  1
  H  1308  1  0.63351400  0.70895600  0.21717600  1
  H  1309  1  0.59830300  0.73104200  0.21937700  1
  H  1310  1  0.56577800  0.67269800  0.23643100  1
  H  1311  1  0.60052300  0.65044900  0.23383000  1
  H  1312  1  0.61776800  0.63757500  0.20843100  1
  H  1313  1  0.67236400  0.68739800  0.20619100  1
  H  1314  1  0.67070600  0.68590800  0.18431800  1
  H  1315  1  0.61575200  0.63638100  0.18627100  1
  H  1318  1  0.74273000  0.70860800  0.24199100  1
  H  1319  1  0.64992300  0.57847100  0.26271600  1
  H  1321  1  0.54897500  0.71393600  0.23820500  1
  H  1323  1  0.64671300  0.67704000  0.16588100  1
  H  1349  1  0.88458000  0.40428400  0.76100900  1
  H  1350  1  0.88580000  0.36906400  0.74926600  1
  H  1351  1  0.86644500  0.44217400  0.72869700  1
  H  1352  1  0.86708500  0.40679600  0.71701300  1
  H  1353  1  0.83122000  0.36777100  0.72217800  1
  H  1354  1  0.79814600  0.34709600  0.73002200  1
  H  1355  1  0.84317600  0.30061800  0.74912900  1
  H  1356  1  0.87606800  0.32156300  0.74152300  1
  H  1357  1  0.89044900  0.31500100  0.71717600  1
  H  1358  1  0.92565500  0.29290800  0.71938000  1
  H  1359  1  0.95818000  0.35123900  0.73644700  1
  H  1360  1  0.92344100  0.37349300  0.73384300  1
  H  1361  1  0.90620300  0.38639200  0.70843000  1
  H  1362  1  0.85158500  0.33658100  0.70620000  1
  H  1363  1  0.85322100  0.33808400  0.68432800  1
  H  1364  1  0.90819200  0.38759300  0.68626700  1
  H  1367  1  0.78123400  0.31536800  0.74200300  1
  H  1368  1  0.87414200  0.44549600  0.76272800  1
  H  1370  1  0.97498700  0.31000900  0.73821200  1
  H  1372  1  0.87720300  0.34694000  0.66588400  1
  H  1398  1  0.15414300  0.13646000  0.51314900  1
  H  1399  1  0.11884600  0.13606100  0.52479100  1
  H  1400  1  0.19226700  0.11750500  0.54526900  1
  H  1401  1  0.15676300  0.11659900  0.55685700  1
  H  1402  1  0.11758800  0.08081400  0.55187200  1
  H  1403  1  0.09690000  0.04775400  0.54401600  1
  H  1404  1  0.05073700  0.09280900  0.52471300  1
  H  1405  1  0.07169600  0.12569000  0.53234200  1
  H  1406  1  0.06473200  0.13982100  0.55667700  1
  H  1407  1  0.04259800  0.17503200  0.55453800  1
  H  1408  1  0.10120100  0.20801300  0.53798700  1
  H  1409  1  0.12347600  0.17327800  0.54053400  1
  H  1410  1  0.13649300  0.15565600  0.56554700  1
  H  1411  1  0.08638100  0.10131800  0.56779700  1
  H  1412  1  0.08791900  0.10296800  0.58967500  1
  H  1413  1  0.13775400  0.15764200  0.58770300  1
  H  1416  1  0.06522700  0.03085600  0.53198500  1
  H  1417  1  0.19593600  0.13186800  0.51157000  1
  H  1419  1  0.05985600  0.22461600  0.53599200  1
  H  1421  1  0.09699900  0.12682300  0.60812400  1
  H  1447  1  0.36980500  0.88751400  0.01315200  1
  H  1448  1  0.40510200  0.88790600  0.02479400  1
  H  1449  1  0.33168100  0.90645200  0.04527600  1
  H  1450  1  0.36718600  0.90735100  0.05686300  1
  H  1451  1  0.40636500  0.94315000  0.05187300  1
  H  1452  1  0.42705900  0.97620600  0.04401900  1
  H  1453  1  0.47323000  0.93114500  0.02472400  1
  H  1454  1  0.45226500  0.89826800  0.03235100  1
  H  1455  1  0.45920900  0.88413100  0.05668800  1
  H  1456  1  0.48134100  0.84891900  0.05454900  1
  H  1457  1  0.42275000  0.81595600  0.03797600  1
  H  1458  1  0.40047800  0.85069200  0.04052200  1
  H  1459  1  0.38748100  0.86829000  0.06554100  1
  H  1460  1  0.43754900  0.92266800  0.06780700  1
  H  1461  1  0.43599600  0.92100400  0.08968600  1
  H  1462  1  0.38621100  0.86629400  0.08769700  1
  H  1465  1  0.45872700  0.99309700  0.03198500  1
  H  1466  1  0.32801200  0.89212200  0.01157700  1
  H  1468  1  0.46409400  0.79934600  0.03599100  1
  H  1470  1  0.42697100  0.89704200  0.10811700  1
  H  1496  1  0.88679800  0.61979600  0.76316900  1
  H  1497  1  0.88641400  0.65508600  0.77481500  1
  H  1498  1  0.86784500  0.58166100  0.79528700  1
  H  1499  1  0.86695700  0.61716100  0.80688000  1
  H  1500  1  0.83116900  0.65628400  0.80184300  1
  H  1501  1  0.79810900  0.67693900  0.79396500  1
  H  1502  1  0.84317400  0.72321200  0.77473900  1
  H  1503  1  0.87605600  0.70227900  0.78238700  1
  H  1504  1  0.89018700  0.70919200  0.80669700  1
  H  1505  1  0.92541600  0.73130000  0.80456500  1
  H  1506  1  0.95837200  0.67266900  0.78802800  1
  H  1507  1  0.92362000  0.65042100  0.79056500  1
  H  1508  1  0.90596700  0.63747500  0.81559000  1
  H  1509  1  0.85158200  0.68755100  0.81778900  1
  H  1510  1  0.85319600  0.68605200  0.83967000  1
  H  1511  1  0.90791600  0.63626000  0.83774900  1
  H  1514  1  0.78121600  0.70847800  0.78183800  1
  H  1515  1  0.88214200  0.57801300  0.76157900  1
  H  1517  1  0.97503800  0.71397100  0.78604800  1
  H  1519  1  0.87706900  0.67705200  0.85812500  1
  H  1545  1  0.63716400  0.40416100  0.26316900  1
  H  1546  1  0.63754700  0.36886700  0.27481500  1
  H  1547  1  0.65609600  0.44229200  0.29529300  1
  H  1548  1  0.65698600  0.40678900  0.30688300  1
  H  1549  1  0.69278100  0.36766200  0.30184700  1
  H  1550  1  0.72584000  0.34700900  0.29396700  1
  H  1551  1  0.68077700  0.30074400  0.27473400  1
  H  1552  1  0.64789500  0.32167200  0.28238300  1
  H  1553  1  0.63376400  0.31476000  0.30669400  1
  H  1554  1  0.59853500  0.29265300  0.30456300  1
  H  1555  1  0.56557600  0.35128600  0.28802900  1
  H  1556  1  0.60032900  0.37353400  0.29056600  1
  H  1557  1  0.61798900  0.38647400  0.31559200  1
  H  1558  1  0.67237800  0.33640200  0.31778600  1
  H  1559  1  0.67077200  0.33789900  0.33966600  1
  H  1560  1  0.61604700  0.38769000  0.33775000  1
  H  1563  1  0.74273300  0.31544600  0.28186100  1
  H  1564  1  0.64177800  0.44594500  0.26158600  1
  H  1566  1  0.54890800  0.30998600  0.28605000  1
  H  1568  1  0.64692800  0.34691000  0.35812800  1
  H  1575  1  0.12443500  0.41552500  0.14888000  1
  H  1587  1  0.39959300  0.60845800  0.64888300  1
  H  1599  1  0.85843600  0.87418600  0.39889200  1
  H  1611  1  0.66558300  0.14959700  0.89887900  1
  H  1623  1  0.39982700  0.41553600  0.87501200  1
  H  1635  1  0.12420200  0.60840100  0.37501300  1
  H  1647  1  0.66557300  0.87400300  0.62499500  1
  H  1659  1  0.85839100  0.14990400  0.12499800  1
  H  1671  1  0.89964000  0.60849400  0.87512600  1
  H  1683  1  0.62425700  0.41543600  0.37512300  1
  H  1695  1  0.16558700  0.14950000  0.62505100  1
  H  1707  1  0.35831000  0.87462900  0.12506400  1
  H  1719  1  0.62405200  0.60848600  0.14889400  1
  H  1731  1  0.89984400  0.41549000  0.64889400  1
  H  1743  1  0.35833100  0.14971100  0.39897800  1
  H  1755  1  0.16562000  0.87430000  0.89897500  1
  H  1767  1  0.00170600  0.24609100  0.03100600  1
  H  1779  1  0.52222100  0.77788800  0.53100400  1
  H  1791  1  0.02733400  0.75143000  0.28094500  1
  H  1803  1  0.49660100  0.27252700  0.78095000  1
  H  1815  1  0.52222100  0.24606900  0.99268100  1
  H  1827  1  0.00177100  0.77790400  0.49267400  1
  H  1839  1  0.49660100  0.75147900  0.74274500  1
  H  1851  1  0.02738300  0.27245800  0.24274300  1
  H  1863  1  0.02230400  0.77784600  0.99302600  1
  H  1875  1  0.50168700  0.24608600  0.49302600  1
  H  1887  1  0.99662800  0.27253200  0.74298400  1
  H  1899  1  0.52735000  0.75142600  0.24297700  1
  H  1911  1  0.50168500  0.77786700  0.03121100  1
  H  1923  1  0.02223600  0.24607200  0.53121300  1
  H  1935  1  0.52735000  0.27248100  0.28124100  1
  H  1947  1  0.99658000  0.75149300  0.78124200  1
  H  1959  1  0.98484100  0.49912200  0.99675500  1
  H  1971  1  0.53912100  0.52483600  0.49676300  1
  H  1983  1  0.77429400  0.73552900  0.24631700  1
  H  1995  1  0.74967100  0.28841200  0.74630900  1
  H  2007  1  0.53916300  0.49912400  0.02717200  1
  H  2019  1  0.98483200  0.52482200  0.52719300  1
  H  2031  1  0.74966200  0.73551600  0.77761300  1
  H  2043  1  0.77429600  0.28844900  0.27760600  1
  H  2055  1  0.24965000  0.28841200  0.77760800  1
  H  2067  1  0.27430200  0.73555300  0.27761300  1
  H  2079  1  0.27430900  0.28841700  0.24637300  1
  H  2091  1  0.24964600  0.73552700  0.74638200  1
  H  2103  1  0.48611300  0.99945600  0.49608000  1
  H  2115  1  0.03784500  0.02450200  0.99608400  1
  H  2127  1  0.03784100  0.99946700  0.52787900  1
  H  2139  1  0.48615500  0.02447400  0.02789700  1
  H  2151  1  0.26245900  0.40582100  0.99013600  1
  H  2163  1  0.26150500  0.61816300  0.49012600  1
  H  2175  1  0.86773200  0.01247600  0.24013100  1
  H  2187  1  0.65616600  0.01148700  0.74012700  1
  H  2199  1  0.76147700  0.61790500  0.03381100  1
  H  2211  1  0.76247400  0.40602400  0.53382300  1
  H  2223  1  0.15621600  0.01150100  0.78382400  1
  H  2235  1  0.36780100  0.01244900  0.28382900  1
  H  2247  1  0.76246900  0.90671300  0.49017800  1
  H  2259  1  0.76149800  0.11729400  0.99016400  1
  H  2271  1  0.36730200  0.51249400  0.74018200  1
  H  2283  1  0.15658800  0.51147000  0.24017800  1
  H  2295  1  0.26146300  0.11696300  0.53376500  1
  H  2307  1  0.26248100  0.90694000  0.03378000  1
  H  2319  1  0.65663900  0.51148600  0.28377400  1
  H  2331  1  0.86738200  0.51246600  0.78377900  1
  H  2362  1  0.15395700  0.74189400  0.01292500  1
  H  2363  1  0.11879000  0.74100300  0.02472200  1
  H  2364  1  0.19245500  0.75782000  0.04536000  1
  H  2365  1  0.15719800  0.75756700  0.05708800  1
  H  2366  1  0.11923900  0.79485500  0.05063200  1
  H  2367  1  0.09948700  0.82789200  0.04208900  1
  H  2368  1  0.04999900  0.78293600  0.02520700  1
  H  2369  1  0.07004200  0.75005800  0.03342000  1
  H  2370  1  0.06561300  0.73582400  0.05785500  1
  H  2371  1  0.04293600  0.70094600  0.05571800  1
  H  2372  1  0.09943900  0.66856100  0.03693900  1
  H  2373  1  0.12232800  0.70287700  0.03950500  1
  H  2374  1  0.13492000  0.71919800  0.06586600  1
  H  2375  1  0.08918100  0.77735200  0.06772400  1
  H  2376  1  0.09339200  0.77834500  0.08951300  1
  H  2377  1  0.13864600  0.71974600  0.08798300  1
  H  2380  1  0.07142700  0.84317600  0.02656800  1
  H  2381  1  0.19546300  0.75112000  0.01123200  1
  H  2383  1  0.05723500  0.65288400  0.03566000  1
  H  2385  1  0.11531200  0.76638100  0.10810500  1
  H  2411  1  0.37000700  0.98565200  0.51292100  1
  H  2412  1  0.40516700  0.98655100  0.52472200  1
  H  2413  1  0.33150200  0.96970000  0.54534900  1
  H  2414  1  0.36675500  0.96996500  0.55708200  1
  H  2415  1  0.40471800  0.93269100  0.55063300  1
  H  2416  1  0.42445400  0.89965600  0.54207600  1
  H  2417  1  0.47392000  0.94462000  0.52518200  1
  H  2418  1  0.45389000  0.97749500  0.53341000  1
  H  2419  1  0.45834200  0.99171500  0.55785300  1
  H  2420  1  0.48102200  0.02659010  0.55571800  1
  H  2421  1  0.42451600  0.05899010  0.53695000  1
  H  2422  1  0.40162400  0.02467610  0.53951600  1
  H  2423  1  0.38902300  0.00833509  0.56586800  1
  H  2424  1  0.43480700  0.95022400  0.56772400  1
  H  2425  1  0.43061700  0.94923800  0.58951300  1
  H  2426  1  0.38531400  0.00779709  0.58798500  1
  H  2429  1  0.45256800  0.88430900  0.52660100  1
  H  2430  1  0.32849900  0.97649100  0.51122000  1
  H  2432  1  0.46670800  0.07467110  0.53566700  1
  H  2434  1  0.40871800  0.96119200  0.60811000  1
  H  2460  1  0.88349400  0.25572100  0.26289400  1
  H  2461  1  0.88439200  0.22055300  0.27469100  1
  H  2462  1  0.86756500  0.29421300  0.29533000  1
  H  2463  1  0.86782900  0.25895400  0.30705700  1
  H  2464  1  0.83055000  0.22097800  0.30064500  1
  H  2465  1  0.79749700  0.20122200  0.29212300  1
  H  2466  1  0.84243000  0.15179600  0.27517200  1
  H  2467  1  0.87531900  0.17184500  0.28336800  1
  H  2468  1  0.88955800  0.16736200  0.30781800  1
  H  2469  1  0.92441700  0.14465900  0.30567400  1
  H  2470  1  0.95682900  0.20113900  0.28689100  1
  H  2471  1  0.92253100  0.22405500  0.28946500  1
  H  2472  1  0.90624300  0.23669600  0.31581600  1
  H  2473  1  0.84813600  0.19091800  0.31772200  1
  H  2474  1  0.84721600  0.19511100  0.33951300  1
  H  2475  1  0.90577200  0.24041300  0.33793300  1
  H  2478  1  0.78196500  0.17295000  0.27686100  1
  H  2479  1  0.87432000  0.29722400  0.26120400  1
  H  2481  1  0.97244000  0.15889200  0.28559300  1
  H  2483  1  0.85927000  0.21688300  0.35811200  1
  H  2509  1  0.64046000  0.47182100  0.76289300  1
  H  2510  1  0.63955400  0.50698600  0.77468900  1
  H  2511  1  0.65640700  0.43333200  0.79532600  1
  H  2512  1  0.65613100  0.46858900  0.80705300  1
  H  2513  1  0.69340100  0.50655200  0.80063700  1
  H  2514  1  0.72645600  0.52631500  0.79212100  1
  H  2515  1  0.68152700  0.57576700  0.77518800  1
  H  2516  1  0.64863600  0.55571500  0.78337800  1
  H  2517  1  0.63439500  0.56017800  0.80782300  1
  H  2518  1  0.59954000  0.58288900  0.80567800  1
  H  2519  1  0.56712900  0.52642900  0.78687800  1
  H  2520  1  0.60142000  0.50350600  0.78945200  1
  H  2521  1  0.61769600  0.49084800  0.81581500  1
  H  2522  1  0.67583600  0.53659000  0.81771700  1
  H  2523  1  0.67677600  0.53237400  0.83950600  1
  H  2524  1  0.61818800  0.48711200  0.83793100  1
  H  2527  1  0.74199500  0.55460200  0.77687200  1
  H  2528  1  0.64952900  0.43031100  0.76119400  1
  H  2530  1  0.55152000  0.56867900  0.78559000  1
  H  2532  1  0.66473000  0.51056300  0.85810100  1
  H  2558  1  0.37005400  0.73985600  0.01082200  1
  H  2559  1  0.40528300  0.74041300  0.99911300  1
  H  2560  1  0.33141200  0.75664500  0.97854800  1
  H  2561  1  0.36677600  0.75776400  0.96690500  1
  H  2562  1  0.40478200  0.79489700  0.97326300  1
  H  2563  1  0.42450700  0.82791800  0.98184900  1
  H  2564  1  0.47379800  0.78291000  0.99885200  1
  H  2565  1  0.45377600  0.75004700  0.99059300  1
  H  2566  1  0.45854300  0.73608100  0.96615900  1
  H  2567  1  0.48125100  0.70119200  0.96822900  1
  H  2568  1  0.42447200  0.66836400  0.98655600  1
  H  2569  1  0.40157300  0.70267800  0.98404900  1
  H  2570  1  0.38893900  0.71938300  0.95802100  1
  H  2571  1  0.43493700  0.77733400  0.95620300  1
  H  2572  1  0.43076500  0.77836300  0.93440800  1
  H  2573  1  0.38523300  0.71997200  0.93590800  1
  H  2576  1  0.45249700  0.84319700  0.99743500  1
  H  2577  1  0.32811700  0.74349900  0.01238500  1
  H  2579  1  0.46679100  0.65288700  0.98803900  1
  H  2581  1  0.40885900  0.76646700  0.91579600  1
  H  2607  1  0.15390800  0.98768200  0.51081900  1
  H  2608  1  0.11867800  0.98712700  0.49911300  1
  H  2609  1  0.19254900  0.97088700  0.47854000  1
  H  2610  1  0.15718400  0.96977400  0.46689900  1
  H  2611  1  0.11918300  0.93264000  0.47326300  1
  H  2612  1  0.09945800  0.89961900  0.48184700  1
  H  2613  1  0.05015000  0.94462600  0.49884000  1
  H  2614  1  0.07017300  0.97748800  0.49058200  1
  H  2615  1  0.06542000  0.99146000  0.46615300  1
  H  2616  1  0.04271500  0.02634910  0.46822100  1
  H  2617  1  0.09948800  0.05916810  0.48655400  1
  H  2618  1  0.12238600  0.02485210  0.48404700  1
  H  2619  1  0.13501900  0.00815209  0.45802500  1
  H  2620  1  0.08903400  0.95018900  0.45619900  1
  H  2621  1  0.09322000  0.94916400  0.43440200  1
  H  2622  1  0.13873600  0.00756509  0.43591200  1
  H  2625  1  0.07145000  0.88433000  0.49742000  1
  H  2626  1  0.19584300  0.98402500  0.51238200  1
  H  2628  1  0.05717000  0.07465210  0.48803200  1
  H  2630  1  0.11515600  0.96105800  0.41579500  1
  H  2656  1  0.63841600  0.25569500  0.76083700  1
  H  2657  1  0.63898400  0.22045800  0.74913900  1
  H  2658  1  0.65518300  0.29432000  0.72855000  1
  H  2659  1  0.65630800  0.25894900  0.71691500  1
  H  2660  1  0.69345200  0.22092900  0.72324000  1
  H  2661  1  0.72649500  0.20117800  0.73177900  1
  H  2662  1  0.68152700  0.15192000  0.74884000  1
  H  2663  1  0.64864300  0.17196700  0.74062100  1
  H  2664  1  0.63464500  0.16717200  0.71619400  1
  H  2665  1  0.59977000  0.14444900  0.71827700  1
  H  2666  1  0.56693900  0.20121600  0.73660900  1
  H  2667  1  0.60124200  0.22413200  0.73408600  1
  H  2668  1  0.61789100  0.23679000  0.70806900  1
  H  2669  1  0.67585200  0.19081400  0.70619600  1
  H  2670  1  0.67681400  0.19500000  0.68439800  1
  H  2671  1  0.61841500  0.24051200  0.68595600  1
  H  2674  1  0.74192400  0.17307500  0.74719800  1
  H  2675  1  0.64203400  0.29763900  0.76239000  1
  H  2677  1  0.55151600  0.15884300  0.73811100  1
  H  2679  1  0.66481800  0.21679500  0.66578700  1
  H  2705  1  0.88554200  0.47184800  0.26083700  1
  H  2706  1  0.88497600  0.50708800  0.24913700  1
  H  2707  1  0.86878400  0.43322500  0.22854600  1
  H  2708  1  0.86765900  0.46859800  0.21691400  1
  H  2709  1  0.83051400  0.50661500  0.22324000  1
  H  2710  1  0.79747400  0.52635900  0.23178700  1
  H  2711  1  0.84244200  0.57560900  0.24885200  1
  H  2712  1  0.87532600  0.55557100  0.24062700  1
  H  2713  1  0.88931500  0.56037500  0.21619400  1
  H  2714  1  0.92418800  0.58310000  0.21827800  1
  H  2715  1  0.95702600  0.52633300  0.23660600  1
  H  2716  1  0.92272600  0.50341400  0.23408300  1
  H  2717  1  0.90607800  0.49076200  0.20806800  1
  H  2718  1  0.84810800  0.53672900  0.20619500  1
  H  2719  1  0.84714700  0.53254100  0.18439800  1
  H  2720  1  0.90555500  0.48704000  0.18595600  1
  H  2723  1  0.78201100  0.55448600  0.24718700  1
  H  2724  1  0.88195500  0.42990200  0.26238400  1
  H  2726  1  0.97245200  0.56870100  0.23810700  1
  H  2728  1  0.85914500  0.51073300  0.16578700  1
  H  2754  1  0.86995400  0.98576600  0.01104600  1
  H  2755  1  0.90514000  0.98670200  0.99926300  1
  H  2756  1  0.83158900  0.96931400  0.97864200  1
  H  2757  1  0.86687200  0.96962200  0.96692400  1
  H  2758  1  0.90511700  0.93263300  0.97308600  1
  H  2759  1  0.92556900  0.89957000  0.98108400  1
  H  2760  1  0.97434000  0.94459600  0.99850700  1
  H  2761  1  0.95362100  0.97748700  0.99077900  1
  H  2762  1  0.95847000  0.99168300  0.96629900  1
  H  2763  1  0.98109400  0.02659010  0.96843400  1
  H  2764  1  0.92433100  0.05907810  0.98694800  1
  H  2765  1  0.90149700  0.02471110  0.98437500  1
  H  2766  1  0.88876800  0.00817309  0.95816100  1
  H  2767  1  0.93527000  0.95064500  0.95623100  1
  H  2768  1  0.93105200  0.94966200  0.93444500  1
  H  2769  1  0.88504200  0.00766209  0.93603900  1
  H  2772  1  0.95771600  0.88262900  0.99274600  1
  H  2773  1  0.82849900  0.97626400  0.01274200  1
  H  2775  1  0.96653900  0.07479810  0.98832800  1
  H  2777  1  0.90879500  0.96130800  0.91589500  1
  H  2803  1  0.65399700  0.74177300  0.51105100  1
  H  2804  1  0.61881800  0.74082800  0.49926400  1
  H  2805  1  0.69236900  0.75825100  0.47865200  1
  H  2806  1  0.65709100  0.75793300  0.46693400  1
  H  2807  1  0.61883500  0.79490600  0.47307400  1
  H  2808  1  0.59839100  0.82796800  0.48107900  1
  H  2809  1  0.54965500  0.78294000  0.49853100  1
  H  2810  1  0.57036700  0.75005100  0.49079700  1
  H  2811  1  0.56548800  0.73586500  0.46629900  1
  H  2812  1  0.54286200  0.70096000  0.46843900  1
  H  2813  1  0.59963100  0.66845400  0.48693200  1
  H  2814  1  0.62246600  0.70282100  0.48436300  1
  H  2815  1  0.63520400  0.71937600  0.45816300  1
  H  2816  1  0.58865500  0.77686100  0.45623200  1
  H  2817  1  0.59285200  0.77783700  0.43444700  1
  H  2818  1  0.63891400  0.71987900  0.43604100  1
  H  2821  1  0.56615100  0.84491500  0.49267000  1
  H  2822  1  0.69545600  0.75121000  0.51275600  1
  H  2824  1  0.55743200  0.65273400  0.48832400  1
  H  2826  1  0.61509200  0.76620200  0.41589100  1
  H  2852  1  0.14045900  0.47182200  0.76103900  1
  H  2853  1  0.13956100  0.50698300  0.74923900  1
  H  2854  1  0.15636600  0.43331100  0.72860700  1
  H  2855  1  0.15610100  0.46856300  0.71687500  1
  H  2856  1  0.19339600  0.50654100  0.72328600  1
  H  2857  1  0.22644900  0.52629700  0.73180700  1
  H  2858  1  0.18151800  0.57573400  0.74875000  1
  H  2859  1  0.14862900  0.55568700  0.74055500  1
  H  2860  1  0.13439100  0.56016000  0.71610300  1
  H  2861  1  0.09953600  0.58286800  0.71824900  1
  H  2862  1  0.06712200  0.52640000  0.73704100  1
  H  2863  1  0.10141600  0.50347900  0.73446700  1
  H  2864  1  0.11769700  0.49083300  0.70811200  1
  H  2865  1  0.17582100  0.53659200  0.70620400  1
  H  2866  1  0.17675000  0.53238200  0.68441400  1
  H  2867  1  0.11817500  0.48710500  0.68599500  1
  H  2870  1  0.24198300  0.55457300  0.74706600  1
  H  2871  1  0.14963400  0.43032000  0.76273400  1
  H  2873  1  0.05151600  0.56864900  0.73833500  1
  H  2875  1  0.16472700  0.51050700  0.66582700  1
  H  2901  1  0.38350000  0.25572300  0.26104100  1
  H  2902  1  0.38440800  0.22056300  0.24924000  1
  H  2903  1  0.36757400  0.29423000  0.22861100  1
  H  2904  1  0.36785200  0.25897900  0.21687900  1
  H  2905  1  0.33056700  0.22101300  0.22329400  1
  H  2906  1  0.29751300  0.20125200  0.23181000  1
  H  2907  1  0.34243900  0.15179100  0.24873700  1
  H  2908  1  0.37533000  0.17184200  0.24054700  1
  H  2909  1  0.38957000  0.16738600  0.21609800  1
  H  2910  1  0.42442200  0.14466900  0.21824400  1
  H  2911  1  0.45683500  0.20111800  0.23705400  1
  H  2912  1  0.42254700  0.22404600  0.23447900  1
  H  2913  1  0.40627700  0.23670900  0.20811300  1
  H  2914  1  0.34812000  0.19098600  0.20620900  1
  H  2915  1  0.34717400  0.19521800  0.18442000  1
  H  2916  1  0.40578100  0.24045500  0.18599700  1
  H  2919  1  0.28197600  0.17296400  0.24706000  1
  H  2920  1  0.37442900  0.29722900  0.26274400  1
  H  2922  1  0.47243900  0.15886600  0.23833900  1
  H  2924  1  0.35918900  0.21713100  0.16583700  1
  H  2950  1  0.65394600  0.98783100  0.01312000  1
  H  2951  1  0.61870000  0.98729800  0.02481200  1
  H  2952  1  0.69247600  0.97052800  0.04536200  1
  H  2953  1  0.65708400  0.96944300  0.05698800  1
  H  2954  1  0.61877900  0.93259400  0.05094500  1
  H  2955  1  0.59834500  0.89954900  0.04291400  1
  H  2956  1  0.54978200  0.94461300  0.02535400  1
  H  2957  1  0.57048700  0.97749200  0.03311900  1
  H  2958  1  0.56529300  0.99142800  0.05760100  1
  H  2959  1  0.54264100  0.02634510  0.05552900  1
  H  2960  1  0.59967300  0.05927810  0.03748300  1
  H  2961  1  0.62251900  0.02491410  0.03999300  1
  H  2962  1  0.63529800  0.00799209  0.06585900  1
  H  2963  1  0.58853900  0.95067100  0.06775300  1
  H  2964  1  0.59272000  0.94965500  0.08954400  1
  H  2965  1  0.63900700  0.00743809  0.08797600  1
  H  2968  1  0.56627100  0.88262700  0.03118800  1
  H  2969  1  0.69586000  0.98395800  0.01155900  1
  H  2971  1  0.55734700  0.07479310  0.03588900  1
  H  2973  1  0.61497400  0.96122800  0.10811800  1
  H  2999  1  0.87000500  0.73971500  0.51312500  1
  H  3000  1  0.90525300  0.74024400  0.52481700  1
  H  3001  1  0.83148000  0.75703000  0.54536700  1
  H  3002  1  0.86687100  0.75810900  0.55699300  1
  H  3003  1  0.90517400  0.79495500  0.55094400  1
  H  3004  1  0.92561100  0.82800100  0.54291300  1
  H  3005  1  0.97418100  0.78292900  0.52536200  1
  H  3006  1  0.95347300  0.75005400  0.53312600  1
  H  3007  1  0.95865700  0.73611600  0.55760800  1
  H  3008  1  0.98130900  0.70119900  0.55553600  1
  H  3009  1  0.92428000  0.66827300  0.53748300  1
  H  3010  1  0.90143600  0.70264100  0.53999300  1
  H  3011  1  0.88865700  0.71955700  0.56585800  1
  H  3012  1  0.93540700  0.77688900  0.56776000  1
  H  3013  1  0.93121300  0.77790400  0.58955200  1
  H  3014  1  0.88493700  0.72011100  0.58797600  1
  H  3017  1  0.95767700  0.84491300  0.53118100  1
  H  3018  1  0.82809400  0.74360600  0.51155900  1
  H  3020  1  0.96660400  0.65275500  0.53589300  1
  H  3022  1  0.90892900  0.76633200  0.60811800  1
  H  3048  1  0.38554400  0.47184500  0.26314200  1
  H  3049  1  0.38497600  0.50707700  0.27484600  1
  H  3050  1  0.36880200  0.43320000  0.29542700  1
  H  3051  1  0.36767600  0.46856600  0.30706600  1
  H  3052  1  0.33051800  0.50658200  0.30073900  1
  H  3053  1  0.29747400  0.52633300  0.29220000  1
  H  3054  1  0.34244100  0.57560900  0.27515200  1
  H  3055  1  0.37532300  0.55556400  0.28337100  1
  H  3056  1  0.38932200  0.56034600  0.30779900  1
  H  3057  1  0.42419400  0.58307400  0.30571500  1
  H  3058  1  0.45702500  0.52632000  0.28737300  1
  H  3059  1  0.42272500  0.50339900  0.28989500  1
  H  3060  1  0.40608300  0.49073700  0.31591700  1
  H  3061  1  0.34810800  0.53669500  0.31779200  1
  H  3062  1  0.34714200  0.53249500  0.33958900  1
  H  3063  1  0.40555700  0.48700600  0.33803000  1
  H  3066  1  0.28204500  0.55444300  0.27678500  1
  H  3067  1  0.38194000  0.42990200  0.26158400  1
  H  3069  1  0.47244400  0.56869400  0.28587500  1
  H  3071  1  0.35911000  0.51061000  0.35819100  1
  H  3097  1  0.13840800  0.25569700  0.76314400  1
  H  3098  1  0.13897600  0.22046500  0.77484800  1
  H  3099  1  0.15514000  0.29434100  0.79543000  1
  H  3100  1  0.15626800  0.25897400  0.80706800  1
  H  3101  1  0.19342800  0.22095500  0.80074300  1
  H  3102  1  0.22647200  0.20121100  0.79219700  1
  H  3103  1  0.18150400  0.15195000  0.77514000  1
  H  3104  1  0.14862100  0.17198600  0.78336500  1
  H  3105  1  0.13463200  0.16719300  0.80779700  1
  H  3106  1  0.09976300  0.14446200  0.80571400  1
  H  3107  1  0.06692300  0.20121500  0.78737500  1
  H  3108  1  0.10121900  0.22414100  0.78989900  1
  H  3109  1  0.11786000  0.23679700  0.81591700  1
  H  3110  1  0.17584600  0.19085100  0.81779300  1
  H  3111  1  0.17681100  0.19505100  0.83959000  1
  H  3112  1  0.11838600  0.24052700  0.83803000  1
  H  3115  1  0.24193500  0.17308000  0.77680000  1
  H  3116  1  0.14197800  0.29764300  0.76159000  1
  H  3118  1  0.05150300  0.15884500  0.78587700  1
  H  3120  1  0.16484100  0.21695000  0.85819100  1
  H  3146  1  0.65419200  0.24166700  0.51293600  1
  H  3147  1  0.61897400  0.24053600  0.52468600  1
  H  3148  1  0.69223900  0.25912000  0.54530300  1
  H  3149  1  0.65687800  0.25858800  0.55699200  1
  H  3150  1  0.61815800  0.29484600  0.55151200  1
  H  3151  1  0.59821900  0.32795500  0.54314800  1
  H  3152  1  0.55093200  0.28297000  0.52459300  1
  H  3153  1  0.57117300  0.25003600  0.53266300  1
  H  3154  1  0.56509200  0.23560900  0.55697800  1
  H  3155  1  0.54292200  0.20044600  0.55476100  1
  H  3156  1  0.60094800  0.16805100  0.53733700  1
  H  3157  1  0.62328200  0.20272400  0.53995700  1
  H  3158  1  0.63604900  0.21964500  0.56554000  1
  H  3159  1  0.58707000  0.27502400  0.56777700  1
  H  3160  1  0.58863600  0.27340800  0.58965800  1
  H  3161  1  0.63731700  0.21770000  0.58769900  1
  H  3164  1  0.57088800  0.34354600  0.52735000  1
  H  3165  1  0.69548900  0.25188900  0.51124500  1
  H  3167  1  0.55967600  0.15132700  0.53568700  1
  H  3169  1  0.59723200  0.24932900  0.60812300  1
  H  3195  1  0.86977800  0.48588900  0.01293100  1
  H  3196  1  0.90498700  0.48702600  0.02468600  1
  H  3197  1  0.83171900  0.46839600  0.04528700  1
  H  3198  1  0.86707500  0.46893500  0.05698200  1
  H  3199  1  0.90580300  0.43269800  0.05151700  1
  H  3200  1  0.92572700  0.39959100  0.04313800  1
  H  3201  1  0.97298500  0.44458700  0.02456900  1
  H  3202  1  0.95275700  0.47751600  0.03265300  1
  H  3203  1  0.95886400  0.49193000  0.05697700  1
  H  3204  1  0.98103400  0.52709200  0.05476400  1
  H  3205  1  0.92299900  0.55950400  0.03735700  1
  H  3206  1  0.90066600  0.52483200  0.03997300  1
  H  3207  1  0.88789500  0.50789000  0.06554000  1
  H  3208  1  0.93692500  0.45257000  0.06777800  1
  H  3209  1  0.93538600  0.45420700  0.08965900  1
  H  3210  1  0.88664500  0.50985900  0.08769700  1
  H  3213  1  0.95311300  0.38394200  0.02738300  1
  H  3214  1  0.82847600  0.47574100  0.01123200  1
  H  3216  1  0.96425700  0.57623300  0.03570300  1
  H  3218  1  0.92677900  0.47831100  0.10811700  1
  H  3244  1  0.38457100  0.75607300  0.76292600  1
  H  3245  1  0.38578000  0.72084300  0.77466500  1
  H  3246  1  0.36643800  0.79394900  0.79524400  1
  H  3247  1  0.36706100  0.75856800  0.80692200  1
  H  3248  1  0.33120100  0.71953600  0.80175900  1
  H  3249  1  0.29812700  0.69886800  0.79390900  1
  H  3250  1  0.34316000  0.65241800  0.77478300  1
  H  3251  1  0.37605100  0.67335800  0.78239700  1
  H  3252  1  0.39043400  0.66677800  0.80674900  1
  H  3253  1  0.42564700  0.64469600  0.80454800  1
  H  3254  1  0.45816800  0.70304400  0.78749600  1
  H  3255  1  0.42341800  0.72529000  0.79009800  1
  H  3256  1  0.40617700  0.73816500  0.81549300  1
  H  3257  1  0.35158500  0.68833600  0.81774000  1
  H  3258  1  0.35324100  0.68984300  0.83961400  1
  H  3259  1  0.40818700  0.73937700  0.83765300  1
  H  3262  1  0.28121400  0.66712300  0.78193900  1
  H  3263  1  0.37402800  0.79728100  0.76122200  1
  H  3265  1  0.47497500  0.66180900  0.78572200  1
  H  3267  1  0.37724000  0.69872900  0.85805200  1
  H  3293  1  0.13938800  0.97146900  0.26292300  1
  H  3294  1  0.13816600  0.00669409  0.27466300  1
  H  3295  1  0.15754000  0.93359500  0.29523900  1
  H  3296  1  0.15689900  0.96897700  0.30691800  1
  H  3297  1  0.19274900  0.00800109  0.30175400  1
  H  3298  1  0.22582300  0.02867410  0.29390900  1
  H  3299  1  0.18079300  0.07514610  0.27479700  1
  H  3300  1  0.14790100  0.05420010  0.28240300  1
  H  3301  1  0.13351800  0.06076510  0.30675200  1
  H  3302  1  0.09830800  0.08285610  0.30454700  1
  H  3303  1  0.06579000  0.02452110  0.28748100  1
  H  3304  1  0.10053100  0.00226909  0.29008500  1
  H  3305  1  0.11776500  0.98937000  0.31549300  1
  H  3306  1  0.17238000  0.03918210  0.31773200  1
  H  3307  1  0.17074200  0.03766810  0.33960500  1
  H  3308  1  0.11577500  0.98815500  0.33765600  1
  H  3311  1  0.24273500  0.06039910  0.28192500  1
  H  3312  1  0.14981700  0.93025300  0.26121000  1
  H  3314  1  0.04897800  0.06574810  0.28571600  1
  H  3316  1  0.14674400  0.02879710  0.35804700  1
  H  3342  1  0.86986800  0.23948300  0.51080300  1
  H  3343  1  0.90514600  0.23990100  0.49914500  1
  H  3344  1  0.83160500  0.25783200  0.47863100  1
  H  3345  1  0.86707800  0.25877100  0.46702800  1
  H  3346  1  0.90589100  0.29489400  0.47236300  1
  H  3347  1  0.92581700  0.32798700  0.48075900  1
  H  3348  1  0.97285500  0.28295500  0.49945900  1
  H  3349  1  0.95262700  0.25003600  0.49135000  1
  H  3350  1  0.95908800  0.23587500  0.46705600  1
  H  3351  1  0.98128100  0.20069400  0.46919700  1
  H  3352  1  0.92295700  0.16784200  0.48609300  1
  H  3353  1  0.90062200  0.20252100  0.48354200  1
  H  3354  1  0.88776000  0.21988400  0.45834100  1
  H  3355  1  0.93709700  0.27494500  0.45615000  1
  H  3356  1  0.93555300  0.27336600  0.43426600  1
  H  3357  1  0.88649200  0.21798800  0.43618600  1
  H  3360  1  0.95302500  0.34354600  0.49665400  1
  H  3361  1  0.82804100  0.24382000  0.51237600  1
  H  3363  1  0.96430100  0.15128300  0.48796100  1
  H  3365  1  0.92677900  0.24944900  0.41578300  1
  H  3391  1  0.65409700  0.48804000  0.01080300  1
  H  3392  1  0.61882000  0.48762900  0.99914100  1
  H  3393  1  0.69236000  0.46971100  0.97862300  1
  H  3394  1  0.65688700  0.46877800  0.96702600  1
  H  3395  1  0.61807900  0.43264500  0.97236800  1
  H  3396  1  0.59816400  0.39955100  0.98077600  1
  H  3397  1  0.55109800  0.44458600  0.99944900  1
  H  3398  1  0.57132000  0.47750400  0.99133900  1
  H  3399  1  0.56488600  0.49167300  0.96704500  1
  H  3400  1  0.54269500  0.52685500  0.96918000  1
  H  3401  1  0.60100500  0.55968700  0.98610900  1
  H  3402  1  0.62333800  0.52500700  0.98355500  1
  H  3403  1  0.63618100  0.50767000  0.95834700  1
  H  3404  1  0.58688700  0.45257000  0.95613800  1
  H  3405  1  0.58844600  0.45416200  0.93425800  1
  H  3406  1  0.63745800  0.50957700  0.93618800  1
  H  3409  1  0.57089300  0.38394800  0.99661500  1
  H  3410  1  0.69592200  0.48369000  0.01237200  1
  H  3412  1  0.55966000  0.57625400  0.98796400  1
  H  3414  1  0.59716300  0.47818700  0.91578900  1
  H  3440  1  0.13717000  0.75595000  0.26081300  1
  H  3441  1  0.13755100  0.72065500  0.24917000  1
  H  3442  1  0.15614300  0.79406700  0.22869200  1
  H  3443  1  0.15703100  0.75856200  0.21710300  1
  H  3444  1  0.19280400  0.71943400  0.22213400  1
  H  3445  1  0.22586200  0.69877300  0.23001100  1
  H  3446  1  0.18079500  0.65252100  0.24925000  1
  H  3447  1  0.14791500  0.67345700  0.24160200  1
  H  3448  1  0.13378200  0.66653900  0.21729100  1
  H  3449  1  0.09855100  0.64443500  0.21942200  1
  H  3450  1  0.06559800  0.70307100  0.23595800  1
  H  3451  1  0.10035400  0.72531600  0.23342000  1
  H  3452  1  0.11800100  0.73825700  0.20840100  1
  H  3453  1  0.17238600  0.68818300  0.20619400  1
  H  3454  1  0.17076600  0.68968800  0.18431200  1
  H  3455  1  0.11604800  0.73948100  0.18624300  1
  H  3458  1  0.24275300  0.66723700  0.24213700  1
  H  3459  1  0.14183700  0.79773400  0.26239600  1
  H  3461  1  0.04893000  0.66177000  0.23793800  1
  H  3463  1  0.14686400  0.69869600  0.16586100  1
  H  3489  1  0.38678000  0.97159400  0.76081200  1
  H  3490  1  0.38639700  0.00689309  0.74917100  1
  H  3491  1  0.36783100  0.93348100  0.72868600  1
  H  3492  1  0.36694100  0.96898700  0.71710000  1
  H  3493  1  0.33116000  0.00811409  0.72213600  1
  H  3494  1  0.29810200  0.02876710  0.73001500  1
  H  3495  1  0.34316500  0.07502310  0.74925400  1
  H  3496  1  0.37604700  0.05409310  0.74160400  1
  H  3497  1  0.39018200  0.06100910  0.71729400  1
  H  3498  1  0.42541300  0.08311210  0.71942400  1
  H  3499  1  0.45836700  0.02447210  0.73595600  1
  H  3500  1  0.42361000  0.00223009  0.73342100  1
  H  3501  1  0.40595300  0.98928900  0.70839800  1
  H  3502  1  0.35156800  0.03936710  0.70619800  1
  H  3503  1  0.35317500  0.03785810  0.68431600  1
  H  3504  1  0.40789500  0.98806100  0.68624100  1
  H  3507  1  0.28120900  0.06032910  0.74212400  1
  H  3508  1  0.38215800  0.92980600  0.76238900  1
  H  3510  1  0.47503800  0.06577110  0.73793600  1
  H  3512  1  0.37703800  0.02883410  0.66585700  1
  H  3538  1  0.36970300  0.48601600  0.51102900  1
  H  3539  1  0.40494000  0.48719600  0.49929500  1
  H  3540  1  0.33181600  0.46797300  0.47870000  1
  H  3541  1  0.36720700  0.46856400  0.46702700  1
  H  3542  1  0.40626600  0.43265000  0.47218000  1
  H  3543  1  0.42696800  0.39957200  0.48000400  1
  H  3544  1  0.47340900  0.44459500  0.49914100  1
  H  3545  1  0.45243700  0.47748700  0.49155400  1
  H  3546  1  0.45900000  0.49188400  0.46719400  1
  H  3547  1  0.48110800  0.52707800  0.46941100  1
  H  3548  1  0.42280800  0.55959000  0.48651300  1
  H  3549  1  0.40053400  0.52486200  0.48389500  1
  H  3550  1  0.38763000  0.50769200  0.45848500  1
  H  3551  1  0.43736300  0.45301000  0.45619000  1
  H  3552  1  0.43580300  0.45469300  0.43431600  1
  H  3553  1  0.38636900  0.50972300  0.43632500  1
  H  3556  1  0.45872600  0.38265400  0.49196600  1
  H  3557  1  0.32846900  0.47546900  0.51272600  1
  H  3559  1  0.46408000  0.57636000  0.48828100  1
  H  3561  1  0.42690200  0.47870200  0.41588300  1
  H  3587  1  0.15424200  0.24151100  0.01103700  1
  H  3588  1  0.11901300  0.24032700  0.99929000  1
  H  3589  1  0.19213900  0.25959800  0.97871600  1
  H  3590  1  0.15675600  0.25899800  0.96703500  1
  H  3591  1  0.11767900  0.29489200  0.97217200  1
  H  3592  1  0.09698500  0.32796700  0.98000300  1
  H  3593  1  0.05058700  0.28294300  0.99916000  1
  H  3594  1  0.07155100  0.25005200  0.99157200  1
  H  3595  1  0.06495600  0.23566600  0.96720300  1
  H  3596  1  0.04284700  0.20047100  0.96941300  1
  H  3597  1  0.10116000  0.16793800  0.98649100  1
  H  3598  1  0.12343200  0.20266900  0.98388100  1
  H  3599  1  0.13634100  0.21985800  0.95848700  1
  H  3600  1  0.08655200  0.27447700  0.95618400  1
  H  3601  1  0.08809000  0.27277500  0.93431400  1
  H  3602  1  0.13758500  0.21780300  0.93632800  1
  H  3605  1  0.06513500  0.34488300  0.99189800  1
  H  3606  1  0.19547900  0.25198400  0.01274400  1
  H  3608  1  0.05990300  0.15116300  0.98826200  1
  H  3610  1  0.09699900  0.24873800  0.91588900  1
  H  3636  1  0.63937500  0.97146700  0.26100700  1
  H  3637  1  0.63816600  0.00669209  0.24926300  1
  H  3638  1  0.65749000  0.93357400  0.22869200  1
  H  3639  1  0.65686600  0.96895200  0.21700900  1
  H  3640  1  0.69274400  0.00798509  0.22217200  1
  H  3641  1  0.72581700  0.02865010  0.23002300  1
  H  3642  1  0.68078600  0.07511110  0.24914300  1
  H  3643  1  0.64789300  0.05417210  0.24152900  1
  H  3644  1  0.63351400  0.06074910  0.21717600  1
  H  3645  1  0.59830300  0.08283510  0.21937700  1
  H  3646  1  0.56577800  0.02449110  0.23643100  1
  H  3647  1  0.60052300  0.00224209  0.23383000  1
  H  3648  1  0.61776800  0.98936800  0.20843100  1
  H  3649  1  0.67236400  0.03919110  0.20619100  1
  H  3650  1  0.67070600  0.03770110  0.18431800  1
  H  3651  1  0.61575200  0.98817400  0.18627100  1
  H  3654  1  0.74273000  0.06040110  0.24199100  1
  H  3655  1  0.64992300  0.93026400  0.26271600  1
  H  3657  1  0.54897500  0.06572910  0.23820500  1
  H  3659  1  0.64671300  0.02883310  0.16588100  1
  H  3685  1  0.88458000  0.75607700  0.76100900  1
  H  3686  1  0.88580000  0.72085700  0.74926600  1
  H  3687  1  0.86644500  0.79396700  0.72869700  1
  H  3688  1  0.86708500  0.75858900  0.71701300  1
  H  3689  1  0.83122000  0.71956400  0.72217800  1
  H  3690  1  0.79814600  0.69888900  0.73002200  1
  H  3691  1  0.84317600  0.65241100  0.74912900  1
  H  3692  1  0.87606800  0.67335600  0.74152300  1
  H  3693  1  0.89044900  0.66679400  0.71717600  1
  H  3694  1  0.92565500  0.64470100  0.71938000  1
  H  3695  1  0.95818000  0.70303200  0.73644700  1
  H  3696  1  0.92344100  0.72528600  0.73384300  1
  H  3697  1  0.90620300  0.73818500  0.70843000  1
  H  3698  1  0.85158500  0.68837400  0.70620000  1
  H  3699  1  0.85322100  0.68987700  0.68432800  1
  H  3700  1  0.90819200  0.73938600  0.68626700  1
  H  3703  1  0.78123400  0.66716100  0.74200300  1
  H  3704  1  0.87414200  0.79728900  0.76272800  1
  H  3706  1  0.97498700  0.66180200  0.73821200  1
  H  3708  1  0.87720300  0.69873300  0.66588400  1
  H  3734  1  0.15414300  0.48825300  0.51314900  1
  H  3735  1  0.11884600  0.48785400  0.52479100  1
  H  3736  1  0.19226700  0.46929800  0.54526900  1
  H  3737  1  0.15676300  0.46839200  0.55685700  1
  H  3738  1  0.11758800  0.43260700  0.55187200  1
  H  3739  1  0.09690000  0.39954700  0.54401600  1
  H  3740  1  0.05073700  0.44460200  0.52471300  1
  H  3741  1  0.07169600  0.47748300  0.53234200  1
  H  3742  1  0.06473200  0.49161400  0.55667700  1
  H  3743  1  0.04259800  0.52682500  0.55453800  1
  H  3744  1  0.10120100  0.55980600  0.53798700  1
  H  3745  1  0.12347600  0.52507100  0.54053400  1
  H  3746  1  0.13649300  0.50744900  0.56554700  1
  H  3747  1  0.08638100  0.45311100  0.56779700  1
  H  3748  1  0.08791900  0.45476100  0.58967500  1
  H  3749  1  0.13775400  0.50943500  0.58770300  1
  H  3752  1  0.06522700  0.38264900  0.53198500  1
  H  3753  1  0.19593600  0.48366100  0.51157000  1
  H  3755  1  0.05985600  0.57640900  0.53599200  1
  H  3757  1  0.09699900  0.47861600  0.60812400  1
  H  3783  1  0.36980500  0.23930700  0.01315200  1
  H  3784  1  0.40510200  0.23969900  0.02479400  1
  H  3785  1  0.33168100  0.25824500  0.04527600  1
  H  3786  1  0.36718600  0.25914400  0.05686300  1
  H  3787  1  0.40636500  0.29494300  0.05187300  1
  H  3788  1  0.42705900  0.32799900  0.04401900  1
  H  3789  1  0.47323000  0.28293800  0.02472400  1
  H  3790  1  0.45226500  0.25006100  0.03235100  1
  H  3791  1  0.45920900  0.23592400  0.05668800  1
  H  3792  1  0.48134100  0.20071200  0.05454900  1
  H  3793  1  0.42275000  0.16774900  0.03797600  1
  H  3794  1  0.40047800  0.20248500  0.04052200  1
  H  3795  1  0.38748100  0.22008300  0.06554100  1
  H  3796  1  0.43754900  0.27446100  0.06780700  1
  H  3797  1  0.43599600  0.27279700  0.08968600  1
  H  3798  1  0.38621100  0.21808700  0.08769700  1
  H  3801  1  0.45872700  0.34489000  0.03198500  1
  H  3802  1  0.32801200  0.24391500  0.01157700  1
  H  3804  1  0.46409400  0.15113900  0.03599100  1
  H  3806  1  0.42697100  0.24883500  0.10811700  1
  H  3832  1  0.88679800  0.97158900  0.76316900  1
  H  3833  1  0.88641400  0.00687909  0.77481500  1
  H  3834  1  0.86784500  0.93345400  0.79528700  1
  H  3835  1  0.86695700  0.96895400  0.80688000  1
  H  3836  1  0.83116900  0.00807709  0.80184300  1
  H  3837  1  0.79810900  0.02873210  0.79396500  1
  H  3838  1  0.84317400  0.07500510  0.77473900  1
  H  3839  1  0.87605600  0.05407210  0.78238700  1
  H  3840  1  0.89018700  0.06098510  0.80669700  1
  H  3841  1  0.92541600  0.08309310  0.80456500  1
  H  3842  1  0.95837200  0.02446210  0.78802800  1
  H  3843  1  0.92362000  0.00221409  0.79056500  1
  H  3844  1  0.90596700  0.98926800  0.81559000  1
  H  3845  1  0.85158200  0.03934410  0.81778900  1
  H  3846  1  0.85319600  0.03784510  0.83967000  1
  H  3847  1  0.90791600  0.98805300  0.83774900  1
  H  3850  1  0.78121600  0.06027110  0.78183800  1
  H  3851  1  0.88214200  0.92980600  0.76157900  1
  H  3853  1  0.97503800  0.06576410  0.78604800  1
  H  3855  1  0.87706900  0.02884510  0.85812500  1
  H  3881  1  0.63716400  0.75595400  0.26316900  1
  H  3882  1  0.63754700  0.72066000  0.27481500  1
  H  3883  1  0.65609600  0.79408500  0.29529300  1
  H  3884  1  0.65698600  0.75858200  0.30688300  1
  H  3885  1  0.69278100  0.71945500  0.30184700  1
  H  3886  1  0.72584000  0.69880200  0.29396700  1
  H  3887  1  0.68077700  0.65253700  0.27473400  1
  H  3888  1  0.64789500  0.67346500  0.28238300  1
  H  3889  1  0.63376400  0.66655300  0.30669400  1
  H  3890  1  0.59853500  0.64444600  0.30456300  1
  H  3891  1  0.56557600  0.70307900  0.28802900  1
  H  3892  1  0.60032900  0.72532700  0.29056600  1
  H  3893  1  0.61798900  0.73826700  0.31559200  1
  H  3894  1  0.67237800  0.68819500  0.31778600  1
  H  3895  1  0.67077200  0.68969200  0.33966600  1
  H  3896  1  0.61604700  0.73948300  0.33775000  1
  H  3899  1  0.74273300  0.66723900  0.28186100  1
  H  3900  1  0.64177800  0.79773800  0.26158600  1
  H  3902  1  0.54890800  0.66177900  0.28605000  1
  H  3904  1  0.64692800  0.69870300  0.35812800  1
  H  3911  1  0.12443500  0.76731800  0.14888000  1
  H  3923  1  0.39959300  0.96025100  0.64888300  1
  H  3935  1  0.85843600  0.22597900  0.39889200  1
  H  3947  1  0.66558300  0.50139000  0.89887900  1
  H  3959  1  0.39982700  0.76732900  0.87501200  1
  H  3971  1  0.12420200  0.96019400  0.37501300  1
  H  3983  1  0.66557300  0.22579600  0.62499500  1
  H  3995  1  0.85839100  0.50169700  0.12499800  1
  H  4007  1  0.89964000  0.96028700  0.87512600  1
  H  4019  1  0.62425700  0.76722900  0.37512300  1
  H  4031  1  0.16558700  0.50129300  0.62505100  1
  H  4043  1  0.35831000  0.22642200  0.12506400  1
  H  4055  1  0.62405200  0.96027900  0.14889400  1
  H  4067  1  0.89984400  0.76728300  0.64889400  1
  H  4079  1  0.35833100  0.50150400  0.39897800  1
  H  4091  1  0.16562000  0.22609300  0.89897500  1
  H  4103  1  0.00170600  0.59788400  0.03100600  1
  H  4115  1  0.52222100  0.12968100  0.53100400  1
  H  4127  1  0.02733400  0.10322300  0.28094500  1
  H  4139  1  0.49660100  0.62432000  0.78095000  1
  H  4151  1  0.52222100  0.59786200  0.99268100  1
  H  4163  1  0.00177100  0.12969700  0.49267400  1
  H  4175  1  0.49660100  0.10327200  0.74274500  1
  H  4187  1  0.02738300  0.62425100  0.24274300  1
  H  4199  1  0.02230400  0.12963900  0.99302600  1
  H  4211  1  0.50168700  0.59787900  0.49302600  1
  H  4223  1  0.99662800  0.62432500  0.74298400  1
  H  4235  1  0.52735000  0.10321900  0.24297700  1
  H  4247  1  0.50168500  0.12966000  0.03121100  1
  H  4259  1  0.02223600  0.59786500  0.53121300  1
  H  4271  1  0.52735000  0.62427400  0.28124100  1
  H  4283  1  0.99658000  0.10328600  0.78124200  1
  H  4295  1  0.98484100  0.85091500  0.99675500  1
  H  4307  1  0.53912100  0.87662900  0.49676300  1
  H  4319  1  0.77429400  0.08732210  0.24631700  1
  H  4331  1  0.74967100  0.64020500  0.74630900  1
  H  4343  1  0.53916300  0.85091700  0.02717200  1
  H  4355  1  0.98483200  0.87661500  0.52719300  1
  H  4367  1  0.74966200  0.08730910  0.77761300  1
  H  4379  1  0.77429600  0.64024200  0.27760600  1
  H  4391  1  0.24965000  0.64020500  0.77760800  1
  H  4403  1  0.27430200  0.08734610  0.27761300  1
  H  4415  1  0.27430900  0.64021000  0.24637300  1
  H  4427  1  0.24964600  0.08732010  0.74638200  1
  H  4439  1  0.48611300  0.35124900  0.49608000  1
  H  4451  1  0.03784500  0.37629500  0.99608400  1
  H  4463  1  0.03784100  0.35126000  0.52787900  1
  H  4475  1  0.48615500  0.37626700  0.02789700  1
  H  4487  1  0.26245900  0.75761400  0.99013600  1
  H  4499  1  0.26150500  0.96995600  0.49012600  1
  H  4511  1  0.86773200  0.36426900  0.24013100  1
  H  4523  1  0.65616600  0.36328000  0.74012700  1
  H  4535  1  0.76147700  0.96969800  0.03381100  1
  H  4547  1  0.76247400  0.75781700  0.53382300  1
  H  4559  1  0.15621600  0.36329400  0.78382400  1
  H  4571  1  0.36780100  0.36424200  0.28382900  1
  H  4583  1  0.76246900  0.25850600  0.49017800  1
  H  4595  1  0.76149800  0.46908700  0.99016400  1
  H  4607  1  0.36730200  0.86428700  0.74018200  1
  H  4619  1  0.15658800  0.86326300  0.24017800  1
  H  4631  1  0.26146300  0.46875600  0.53376500  1
  H  4643  1  0.26248100  0.25873300  0.03378000  1
  H  4655  1  0.65663900  0.86327900  0.28377400  1
  H  4667  1  0.86738200  0.86425900  0.78377900  1
  C  1  1  0.11671300  0.39755100  0.09114900  1
  C  2  1  0.10267200  0.41409500  0.08467500  1
  C  3  1  0.10055200  0.41373800  0.07157300  1
  C  4  1  0.11285700  0.39735900  0.06395700  1
  C  5  1  0.12626600  0.38032700  0.07066100  1
  C  6  1  0.12835100  0.38045700  0.08380800  1
  C  7  1  0.10991500  0.39566900  0.04963800  1
  C  8  1  0.09625100  0.37232500  0.04831000  1
  C  9  1  0.10546100  0.35157500  0.04273400  1
  C  10  1  0.09199500  0.33089100  0.04136300  1
  C  11  1  0.06874800  0.32941200  0.04597900  1
  C  12  1  0.05972800  0.34930700  0.05225600  1
  C  13  1  0.07322400  0.37001200  0.05344800  1
  C  14  1  0.09627500  0.41660200  0.04381200  1
  C  15  1  0.13365600  0.39606100  0.04251300  1
  C  16  1  0.13414800  0.39249200  0.02937900  1
  C  17  1  0.15513100  0.39296500  0.02233200  1
  C  18  1  0.17730500  0.39741700  0.02789400  1
  C  19  1  0.17711500  0.40183700  0.04088300  1
  C  20  1  0.15596600  0.40145200  0.04788200  1
  C  21  1  0.10448100  0.44004900  0.04541200  1
  C  22  1  0.09271500  0.45973500  0.04033000  1
  C  23  1  0.07213700  0.45733100  0.03296900  1
  C  24  1  0.06430500  0.43407900  0.03078900  1
  C  25  1  0.07623700  0.41445400  0.03587600  1
  C  42  1  0.19771500  0.39881700  0.02042800  1
  C  43  1  0.11882200  0.39911800  0.10418100  1
  C  46  1  0.05524000  0.30932800  0.04377600  1
  C  48  1  0.06119100  0.47744100  0.02792200  1
  C  50  1  0.40726700  0.62642200  0.59115200  1
  C  51  1  0.42131800  0.60988800  0.58467600  1
  C  52  1  0.42341600  0.61023200  0.57157300  1
  C  53  1  0.41108600  0.62659100  0.56395500  1
  C  54  1  0.39768800  0.64362800  0.57066200  1
  C  55  1  0.39561400  0.64350500  0.58381000  1
  C  56  1  0.41403700  0.62829200  0.54963800  1
  C  57  1  0.42770300  0.65163300  0.54831100  1
  C  58  1  0.41849100  0.67238900  0.54274200  1
  C  59  1  0.43195900  0.69307300  0.54137300  1
  C  60  1  0.45520900  0.69454500  0.54598300  1
  C  61  1  0.46422900  0.67464700  0.55225800  1
  C  62  1  0.45072900  0.65394400  0.55345100  1
  C  63  1  0.42768000  0.60736000  0.54381500  1
  C  64  1  0.39029800  0.62790800  0.54251200  1
  C  65  1  0.38980900  0.63147200  0.52937800  1
  C  66  1  0.36882800  0.63099300  0.52232800  1
  C  67  1  0.34665300  0.62653300  0.52788700  1
  C  68  1  0.34684300  0.62208900  0.54087400  1
  C  69  1  0.36798900  0.62249200  0.54787600  1
  C  70  1  0.41947300  0.58391300  0.54541100  1
  C  71  1  0.43123100  0.56422700  0.54032100  1
  C  72  1  0.45180100  0.56663600  0.53295600  1
  C  73  1  0.45962400  0.58988800  0.53077000  1
  C  74  1  0.44770200  0.60950900  0.53586700  1
  C  91  1  0.32624900  0.62511800  0.52041700  1
  C  92  1  0.40517200  0.62486000  0.60418400  1
  C  95  1  0.46872400  0.71462500  0.54377700  1
  C  97  1  0.46272000  0.54654200  0.52788200  1
  C  99  1  0.87619700  0.86667200  0.34112900  1
  C  100  1  0.85964300  0.85261900  0.33466500  1
  C  101  1  0.85994700  0.85051700  0.32156100  1
  C  102  1  0.87628400  0.86284200  0.31392900  1
  C  103  1  0.89333900  0.87624400  0.32062100  1
  C  104  1  0.89325700  0.87832300  0.33377100  1
  C  105  1  0.87794700  0.85988400  0.29961000  1
  C  106  1  0.90127800  0.84620100  0.29827300  1
  C  107  1  0.92203200  0.85539700  0.29269500  1
  C  108  1  0.94270700  0.84191400  0.29132000  1
  C  109  1  0.94417300  0.81867000  0.29593800  1
  C  110  1  0.92427400  0.80966000  0.30221500  1
  C  111  1  0.90358000  0.82317300  0.30341200  1
  C  112  1  0.85700100  0.84624300  0.29379800  1
  C  113  1  0.87755800  0.88362300  0.29248400  1
  C  114  1  0.88111500  0.88411700  0.27934800  1
  C  115  1  0.88063800  0.90510200  0.27230200  1
  C  116  1  0.87618600  0.92727700  0.27786400  1
  C  117  1  0.87175500  0.92708200  0.29085200  1
  C  118  1  0.87214900  0.90593000  0.29785000  1
  C  119  1  0.83355400  0.85443500  0.29541800  1
  C  120  1  0.81385700  0.84266900  0.29034400  1
  C  121  1  0.81624900  0.82211000  0.28296700  1
  C  122  1  0.83949900  0.81430400  0.28075900  1
  C  123  1  0.85913300  0.82623300  0.28583900  1
  C  140  1  0.87477200  0.94769300  0.27040100  1
  C  141  1  0.87468200  0.86875800  0.35416600  1
  C  144  1  0.96423300  0.80513100  0.29371900  1
  C  146  1  0.79613700  0.81112000  0.27794500  1
  C  148  1  0.64777600  0.15725200  0.84112300  1
  C  149  1  0.66433500  0.17129500  0.83466000  1
  C  150  1  0.66402000  0.17340900  0.82155600  1
  C  151  1  0.64765400  0.16111500  0.81392700  1
  C  152  1  0.63060600  0.14770400  0.82062000  1
  C  153  1  0.63070300  0.14561500  0.83376700  1
  C  154  1  0.64600100  0.16407300  0.79960800  1
  C  155  1  0.62267200  0.17775900  0.79827300  1
  C  156  1  0.60192100  0.16857500  0.79268500  1
  C  157  1  0.58125200  0.18206300  0.79131000  1
  C  158  1  0.57978500  0.20530500  0.79593300  1
  C  159  1  0.59968700  0.21431000  0.80220800  1
  C  160  1  0.62037400  0.20078900  0.80341100  1
  C  161  1  0.66695000  0.17770300  0.79379100  1
  C  162  1  0.64638300  0.14033100  0.79248300  1
  C  163  1  0.64282800  0.13983600  0.77934800  1
  C  164  1  0.64331000  0.11885100  0.77230100  1
  C  165  1  0.64776500  0.09667600  0.77786200  1
  C  166  1  0.65219200  0.09687200  0.79085000  1
  C  167  1  0.65179000  0.11802200  0.79784900  1
  C  168  1  0.69039700  0.16951200  0.79541100  1
  C  169  1  0.71009600  0.18128200  0.79034200  1
  C  170  1  0.70770700  0.20185000  0.78297100  1
  C  171  1  0.68445700  0.20966500  0.78076800  1
  C  172  1  0.66482200  0.19773200  0.78584500  1
  C  189  1  0.64922200  0.07626900  0.77039300  1
  C  190  1  0.64930100  0.15514900  0.85416000  1
  C  193  1  0.55972500  0.21884500  0.79371700  1
  C  195  1  0.72781900  0.21284200  0.77795200  1
  C  197  1  0.40730800  0.39767900  0.93275800  1
  C  198  1  0.42141300  0.41416100  0.93924600  1
  C  199  1  0.42350200  0.41379300  0.95234400  1
  C  200  1  0.41112300  0.39745200  0.95995100  1
  C  201  1  0.39764200  0.38048900  0.95323900  1
  C  202  1  0.39557400  0.38064000  0.94009400  1
  C  203  1  0.41409200  0.39570700  0.97426000  1
  C  204  1  0.42779200  0.37236900  0.97552800  1
  C  205  1  0.41850700  0.35148300  0.98092600  1
  C  206  1  0.43197700  0.33079400  0.98224900  1
  C  207  1  0.45530300  0.32944900  0.97774700  1
  C  208  1  0.46440700  0.34947600  0.97162200  1
  C  209  1  0.45089800  0.37018300  0.97047500  1
  C  210  1  0.42766900  0.41662700  0.98013300  1
  C  211  1  0.39037200  0.39596200  0.98139200  1
  C  212  1  0.38990800  0.39196800  0.99449000  1
  C  213  1  0.36887100  0.39159800  0.00148100  1
  C  214  1  0.34662000  0.39583600  0.99594400  1
  C  215  1  0.34683800  0.40106000  0.98304200  1
  C  216  1  0.36803200  0.40138500  0.97606900  1
  C  217  1  0.41949400  0.44007900  0.97852000  1
  C  218  1  0.43124500  0.45975500  0.98362000  1
  C  219  1  0.45176900  0.45732700  0.99102200  1
  C  220  1  0.45954400  0.43406700  0.99323100  1
  C  221  1  0.44762800  0.41445400  0.98812200  1
  C  238  1  0.32605000  0.39501800  0.00334600  1
  C  239  1  0.40524400  0.39923400  0.91972600  1
  C  242  1  0.46881000  0.30936300  0.97992800  1
  C  244  1  0.46268700  0.47742700  0.99609300  1
  C  246  1  0.11666000  0.62627400  0.43275600  1
  C  247  1  0.10255600  0.60979100  0.43923700  1
  C  248  1  0.10046400  0.61015000  0.45234100  1
  C  249  1  0.11283500  0.62649400  0.45994500  1
  C  250  1  0.12631500  0.64346300  0.45323700  1
  C  251  1  0.12839100  0.64331500  0.44009100  1
  C  252  1  0.10986700  0.62824200  0.47425700  1
  C  253  1  0.09616900  0.65158200  0.47552100  1
  C  254  1  0.10545300  0.67246400  0.48092300  1
  C  255  1  0.09198500  0.69315300  0.48224800  1
  C  256  1  0.06866000  0.69450400  0.47774000  1
  C  257  1  0.05955900  0.67448000  0.47161200  1
  C  258  1  0.07306600  0.65377000  0.47046600  1
  C  259  1  0.09628900  0.60732300  0.48012700  1
  C  260  1  0.13358800  0.62798400  0.48138900  1
  C  261  1  0.13405200  0.63197100  0.49448600  1
  C  262  1  0.15509100  0.63234800  0.50148100  1
  C  263  1  0.17734100  0.62811200  0.49594200  1
  C  264  1  0.17712200  0.62288600  0.48303300  1
  C  265  1  0.15592800  0.62255700  0.47606800  1
  C  266  1  0.10446400  0.58387100  0.47851300  1
  C  267  1  0.09271600  0.56419700  0.48362100  1
  C  268  1  0.07219500  0.56662200  0.49102400  1
  C  269  1  0.06441000  0.58988300  0.49322800  1
  C  270  1  0.07632400  0.60949500  0.48811400  1
  C  287  1  0.19791000  0.62892800  0.50333700  1
  C  288  1  0.11874400  0.62471400  0.41972500  1
  C  291  1  0.05515800  0.71459000  0.47992500  1
  C  293  1  0.06126700  0.54652100  0.49608900  1
  C  295  1  0.64790900  0.86665200  0.68277400  1
  C  296  1  0.66440700  0.85254200  0.68924100  1
  C  297  1  0.66407800  0.85043800  0.70234700  1
  C  298  1  0.64776200  0.86281400  0.70996700  1
  C  299  1  0.63077500  0.87629500  0.70327000  1
  C  300  1  0.63088600  0.87837400  0.69012300  1
  C  301  1  0.64605400  0.85984200  0.72428000  1
  C  302  1  0.62272400  0.84612900  0.72555600  1
  C  303  1  0.60184200  0.85540600  0.73096500  1
  C  304  1  0.58116200  0.84192500  0.73230000  1
  C  305  1  0.57982300  0.81859400  0.72780100  1
  C  306  1  0.59984600  0.80949800  0.72167000  1
  C  307  1  0.62053800  0.82302500  0.72050300  1
  C  308  1  0.66698900  0.84627000  0.73014000  1
  C  309  1  0.64631600  0.88356500  0.73141100  1
  C  310  1  0.64233900  0.88403600  0.74450800  1
  C  311  1  0.64195300  0.90508200  0.75149800  1
  C  312  1  0.64617300  0.92733100  0.74595500  1
  C  313  1  0.65140100  0.92710300  0.73304700  1
  C  314  1  0.65173500  0.90590400  0.72608600  1
  C  315  1  0.69043800  0.85443300  0.72850100  1
  C  316  1  0.71012700  0.84266500  0.73358400  1
  C  317  1  0.70772500  0.82214900  0.74099400  1
  C  318  1  0.68446400  0.81439400  0.74323000  1
  C  319  1  0.66483900  0.82631800  0.73813700  1
  C  336  1  0.64534800  0.94790800  0.75334600  1
  C  337  1  0.64942000  0.86872100  0.66973600  1
  C  340  1  0.55974500  0.80508200  0.72999000  1
  C  342  1  0.72785600  0.81115400  0.74599900  1
  C  344  1  0.87605800  0.15730900  0.18277300  1
  C  345  1  0.85955800  0.17141700  0.18924100  1
  C  346  1  0.85988600  0.17351900  0.20234600  1
  C  347  1  0.87620400  0.16114700  0.20996500  1
  C  348  1  0.89319200  0.14766700  0.20327000  1
  C  349  1  0.89308100  0.14558900  0.19012300  1
  C  350  1  0.87791200  0.16411800  0.22427900  1
  C  351  1  0.90124100  0.17783100  0.22555700  1
  C  352  1  0.92212500  0.16855600  0.23096400  1
  C  353  1  0.94280300  0.18203700  0.23229800  1
  C  354  1  0.94413800  0.20537000  0.22780000  1
  C  355  1  0.92411400  0.21446400  0.22167000  1
  C  356  1  0.90342400  0.20093500  0.22050200  1
  C  357  1  0.85697800  0.17769200  0.23014000  1
  C  358  1  0.87764900  0.14039500  0.23140900  1
  C  359  1  0.88163200  0.13992200  0.24450600  1
  C  360  1  0.88201000  0.11887700  0.25149700  1
  C  361  1  0.87778800  0.09662900  0.24595300  1
  C  362  1  0.87256800  0.09685600  0.23304300  1
  C  363  1  0.87223200  0.11805600  0.22608400  1
  C  364  1  0.83352900  0.16952600  0.22850300  1
  C  365  1  0.81383900  0.18128900  0.23358800  1
  C  366  1  0.81624400  0.20180400  0.24099800  1
  C  367  1  0.83950500  0.20955400  0.24324000  1
  C  368  1  0.85912900  0.19764300  0.23813700  1
  C  385  1  0.87862000  0.07605100  0.25334300  1
  C  386  1  0.87454800  0.15524100  0.16973600  1
  C  389  1  0.96421500  0.21888600  0.22999000  1
  C  391  1  0.79612100  0.21277700  0.24602400  1
  C  393  1  0.90733500  0.62655400  0.93285100  1
  C  394  1  0.92160200  0.61018000  0.93930200  1
  C  395  1  0.92371500  0.61051400  0.95240000  1
  C  396  1  0.91116500  0.62667000  0.96004400  1
  C  397  1  0.89757700  0.64358600  0.95335000  1
  C  398  1  0.89549400  0.64348000  0.94020600  1
  C  399  1  0.91406400  0.62829200  0.97436300  1
  C  400  1  0.92770400  0.65164200  0.97570500  1
  C  401  1  0.91840800  0.67242400  0.98120500  1
  C  402  1  0.93184100  0.69313200  0.98257600  1
  C  403  1  0.95514400  0.69459600  0.97803600  1
  C  404  1  0.96425900  0.67465600  0.97184600  1
  C  405  1  0.95079400  0.65393200  0.97065200  1
  C  406  1  0.92772400  0.60735300  0.98017100  1
  C  407  1  0.89033000  0.62781800  0.98148500  1
  C  408  1  0.88980400  0.63150900  0.99461100  1
  C  409  1  0.86881100  0.63100900  0.00164900  1
  C  410  1  0.84666700  0.62640100  0.99608400  1
  C  411  1  0.84689900  0.62184000  0.98311600  1
  C  412  1  0.86806000  0.62225300  0.97612500  1
  C  413  1  0.91980100  0.58386700  0.97836200  1
  C  414  1  0.93199600  0.56415800  0.98312600  1
  C  415  1  0.95263200  0.56655000  0.99045300  1
  C  416  1  0.95990600  0.58985300  0.99302600  1
  C  417  1  0.94763500  0.60949900  0.98818800  1
  C  434  1  0.82625400  0.62496200  0.00354100  1
  C  435  1  0.90522100  0.62497400  0.91981600  1
  C  438  1  0.96862000  0.71470600  0.98023600  1
  C  440  1  0.96468800  0.54641000  0.99476000  1
  C  442  1  0.61660000  0.39738400  0.43284500  1
  C  443  1  0.60232200  0.41374900  0.43929900  1
  C  444  1  0.60022900  0.41342500  0.45240100  1
  C  445  1  0.61280600  0.39729200  0.46004200  1
  C  446  1  0.62638500  0.38037300  0.45335400  1
  C  447  1  0.62845700  0.38046900  0.44020400  1
  C  448  1  0.60990000  0.39566100  0.47436600  1
  C  449  1  0.59625600  0.37231300  0.47570800  1
  C  450  1  0.60555500  0.35152400  0.48120000  1
  C  451  1  0.59212000  0.33081700  0.48257000  1
  C  452  1  0.56881400  0.32935900  0.47803500  1
  C  453  1  0.55969700  0.34930200  0.47184200  1
  C  454  1  0.57316400  0.37002600  0.47064800  1
  C  455  1  0.59623800  0.41659800  0.48016500  1
  C  456  1  0.63363200  0.39612600  0.48148700  1
  C  457  1  0.63415200  0.39244300  0.49461100  1
  C  458  1  0.65514400  0.39294600  0.50165200  1
  C  459  1  0.67728800  0.39756500  0.49609400  1
  C  460  1  0.67705500  0.40214900  0.48312200  1
  C  461  1  0.65590000  0.40171600  0.47612800  1
  C  462  1  0.60416000  0.44008600  0.47835800  1
  C  463  1  0.59196500  0.45979500  0.48312300  1
  C  464  1  0.57133800  0.45740100  0.49045600  1
  C  465  1  0.56407700  0.43409800  0.49303700  1
  C  466  1  0.57634400  0.41445300  0.48819800  1
  C  483  1  0.69769700  0.39901800  0.50355800  1
  C  484  1  0.61870200  0.39896000  0.41981400  1
  C  487  1  0.55533300  0.30925200  0.48023700  1
  C  489  1  0.55930000  0.47753800  0.49477600  1
  C  491  1  0.14775700  0.15725100  0.68280100  1
  C  492  1  0.16431400  0.17129900  0.68926200  1
  C  493  1  0.16400600  0.17340800  0.70236500  1
  C  494  1  0.14766200  0.16109200  0.70999900  1
  C  495  1  0.13060300  0.14769400  0.70330600  1
  C  496  1  0.13068800  0.14561200  0.69015800  1
  C  497  1  0.14599900  0.16405600  0.72431700  1
  C  498  1  0.12266900  0.17774000  0.72565400  1
  C  499  1  0.10191500  0.16855000  0.73123400  1
  C  500  1  0.08124400  0.18203500  0.73261000  1
  C  501  1  0.07977800  0.20527800  0.72798900  1
  C  502  1  0.09967700  0.21428200  0.72171000  1
  C  503  1  0.12036900  0.20076600  0.72051200  1
  C  504  1  0.16694600  0.17769600  0.73012900  1
  C  505  1  0.14638500  0.14031900  0.73144600  1
  C  506  1  0.14283400  0.13983000  0.74458200  1
  C  507  1  0.14331000  0.11884900  0.75163200  1
  C  508  1  0.14775700  0.09667100  0.74607200  1
  C  509  1  0.15218100  0.09685900  0.73308300  1
  C  510  1  0.15178700  0.11800700  0.72608200  1
  C  511  1  0.19039200  0.16950100  0.72851100  1
  C  512  1  0.21009100  0.18126700  0.73358600  1
  C  513  1  0.20769900  0.20182900  0.74095900  1
  C  514  1  0.18444900  0.20963900  0.74316500  1
  C  515  1  0.16481500  0.19770900  0.73808500  1
  C  532  1  0.14917300  0.07625900  0.75353900  1
  C  533  1  0.14928400  0.15514200  0.66976500  1
  C  536  1  0.05972200  0.21882000  0.73020900  1
  C  538  1  0.22781100  0.21281700  0.74598200  1
  C  540  1  0.37618400  0.86674000  0.18280500  1
  C  541  1  0.35962200  0.85270000  0.18926700  1
  C  542  1  0.35994000  0.85057900  0.20237000  1
  C  543  1  0.37631300  0.86286400  0.21000100  1
  C  544  1  0.39336300  0.87627200  0.20330800  1
  C  545  1  0.39326600  0.87836500  0.19016000  1
  C  546  1  0.37796600  0.85990100  0.22432000  1
  C  547  1  0.40129500  0.84621300  0.22565300  1
  C  548  1  0.42204400  0.85539200  0.23124400  1
  C  549  1  0.44271200  0.84190000  0.23261900  1
  C  550  1  0.44417700  0.81866100  0.22799500  1
  C  551  1  0.42427500  0.80966200  0.22171700  1
  C  552  1  0.40359100  0.82318500  0.22051200  1
  C  553  1  0.35701500  0.84627100  0.23013600  1
  C  554  1  0.37758600  0.88364200  0.23144700  1
  C  555  1  0.38113800  0.88413100  0.24458300  1
  C  556  1  0.38065400  0.90511200  0.25163300  1
  C  557  1  0.37620600  0.92729100  0.24607400  1
  C  558  1  0.37178400  0.92710100  0.23308500  1
  C  559  1  0.37218800  0.90595500  0.22608300  1
  C  560  1  0.33357000  0.85446600  0.22851800  1
  C  561  1  0.31387100  0.84269400  0.23358700  1
  C  562  1  0.31626000  0.82212400  0.24095500  1
  C  563  1  0.33951000  0.81430700  0.24315700  1
  C  564  1  0.35914500  0.82624000  0.23807900  1
  C  581  1  0.37474700  0.94769300  0.25354800  1
  C  582  1  0.37464700  0.86886300  0.16977000  1
  C  585  1  0.46423300  0.80511700  0.23021100  1
  C  587  1  0.29614800  0.81113400  0.24597700  1
  C  589  1  0.61657200  0.62643200  0.09115900  1
  C  590  1  0.60224100  0.61012300  0.08469800  1
  C  591  1  0.60015500  0.61046800  0.07159400  1
  C  592  1  0.61278100  0.62658200  0.06396700  1
  C  593  1  0.62644100  0.64342700  0.07066000  1
  C  594  1  0.62851000  0.64330300  0.08380800  1
  C  595  1  0.60985100  0.62825600  0.04964900  1
  C  596  1  0.59617100  0.65160000  0.04837100  1
  C  597  1  0.60554100  0.67252100  0.04305100  1
  C  598  1  0.59210400  0.69323100  0.04172600  1
  C  599  1  0.56872200  0.69456200  0.04615400  1
  C  600  1  0.55952500  0.67448900  0.05219600  1
  C  601  1  0.57300400  0.65376300  0.05334400  1
  C  602  1  0.59625600  0.60732800  0.04380400  1
  C  603  1  0.63356300  0.62792400  0.04251800  1
  C  604  1  0.63405600  0.63204300  0.02943500  1
  C  605  1  0.65510300  0.63239900  0.02244800  1
  C  606  1  0.67733000  0.62801400  0.02798300  1
  C  607  1  0.67707300  0.62264500  0.04087500  1
  C  608  1  0.65586900  0.62233700  0.04783200  1
  C  609  1  0.60414800  0.58384100  0.04562900  1
  C  610  1  0.59195800  0.56414000  0.04084800  1
  C  611  1  0.57137700  0.56654800  0.03347800  1
  C  612  1  0.56416500  0.58985800  0.03087400  1
  C  613  1  0.57642300  0.60949500  0.03573000  1
  C  630  1  0.69791000  0.62882300  0.02059700  1
  C  631  1  0.61864500  0.62486500  0.10419000  1
  C  634  1  0.55524900  0.71467100  0.04397200  1
  C  636  1  0.55933100  0.54641400  0.02915700  1
  C  638  1  0.90737400  0.39752600  0.59116200  1
  C  639  1  0.92170600  0.41384000  0.58470300  1
  C  640  1  0.92379400  0.41350300  0.57160100  1
  C  641  1  0.91117500  0.39738500  0.56397200  1
  C  642  1  0.89751300  0.38053600  0.57066100  1
  C  643  1  0.89544000  0.38065800  0.58380900  1
  C  644  1  0.91410200  0.39570700  0.54965400  1
  C  645  1  0.92778200  0.37236200  0.54837500  1
  C  646  1  0.91841200  0.35144500  0.54305300  1
  C  647  1  0.93184700  0.33073300  0.54172800  1
  C  648  1  0.95522700  0.32940000  0.54615900  1
  C  649  1  0.96442300  0.34946800  0.55220300  1
  C  650  1  0.95094700  0.37019700  0.55335000  1
  C  651  1  0.92770100  0.41663400  0.54380900  1
  C  652  1  0.89039100  0.39604300  0.54252300  1
  C  653  1  0.88990100  0.39193200  0.52943800  1
  C  654  1  0.86884900  0.39156800  0.52245300  1
  C  655  1  0.84662500  0.39595300  0.52798800  1
  C  656  1  0.84688200  0.40132400  0.54088000  1
  C  657  1  0.86808800  0.40163500  0.54783600  1
  C  658  1  0.91981200  0.44012300  0.54563400  1
  C  659  1  0.93200000  0.45982100  0.54084900  1
  C  660  1  0.95258300  0.45741200  0.53348100  1
  C  661  1  0.95979700  0.43410000  0.53088000  1
  C  662  1  0.94753500  0.41446700  0.53573700  1
  C  679  1  0.82604300  0.39514800  0.52060200  1
  C  680  1  0.90528300  0.39910200  0.60419300  1
  C  683  1  0.96869700  0.30928600  0.54397700  1
  C  685  1  0.96463400  0.47754300  0.52916000  1
  C  687  1  0.37605600  0.15726800  0.34121200  1
  C  688  1  0.35955300  0.17137500  0.33474500  1
  C  689  1  0.35988600  0.17348500  0.32164100  1
  C  690  1  0.37620700  0.16111800  0.31402000  1
  C  691  1  0.39319700  0.14764000  0.32071600  1
  C  692  1  0.39308500  0.14555500  0.33386200  1
  C  693  1  0.37791500  0.16409400  0.29970700  1
  C  694  1  0.40124400  0.17780800  0.29843100  1
  C  695  1  0.42212500  0.16853900  0.29301800  1
  C  696  1  0.44280400  0.18202100  0.29168300  1
  C  697  1  0.44414000  0.20535000  0.29618500  1
  C  698  1  0.42412000  0.21444100  0.30232000  1
  C  699  1  0.40342900  0.20091100  0.30348800  1
  C  700  1  0.35698000  0.17766800  0.29384800  1
  C  701  1  0.37765500  0.14037300  0.29257300  1
  C  702  1  0.38162700  0.13990900  0.27947500  1
  C  703  1  0.38201200  0.11886700  0.27248100  1
  C  704  1  0.37779900  0.09661400  0.27802200  1
  C  705  1  0.37257900  0.09683400  0.29093100  1
  C  706  1  0.37224400  0.11803000  0.29789500  1
  C  707  1  0.33353000  0.16950400  0.29548600  1
  C  708  1  0.31384100  0.18126500  0.29039900  1
  C  709  1  0.31624200  0.20178700  0.28299200  1
  C  710  1  0.33950100  0.20954700  0.28075900  1
  C  711  1  0.35912800  0.19762300  0.28585400  1
  C  728  1  0.37862400  0.07604200  0.27062700  1
  C  729  1  0.37453500  0.15518200  0.35424800  1
  C  732  1  0.46421500  0.21886600  0.29399600  1
  C  734  1  0.29611300  0.21277800  0.27798500  1
  C  736  1  0.14789000  0.86668400  0.84121300  1
  C  737  1  0.16439400  0.85257900  0.83474600  1
  C  738  1  0.16406400  0.85047200  0.82164200  1
  C  739  1  0.14774100  0.86283500  0.81402100  1
  C  740  1  0.13074900  0.87631100  0.82071600  1
  C  741  1  0.13086000  0.87839300  0.83386300  1
  C  742  1  0.14603200  0.85985900  0.79970700  1
  C  743  1  0.12270400  0.84614500  0.79843100  1
  C  744  1  0.10182100  0.85541400  0.79302100  1
  C  745  1  0.08114500  0.84192800  0.79168600  1
  C  746  1  0.07981200  0.81859700  0.79618600  1
  C  747  1  0.09983400  0.80951100  0.80231900  1
  C  748  1  0.12052400  0.82304200  0.80348800  1
  C  749  1  0.16696700  0.84628500  0.79384800  1
  C  750  1  0.14629200  0.88358100  0.79257400  1
  C  751  1  0.14231500  0.88404700  0.77947700  1
  C  752  1  0.14193700  0.90508800  0.77248400  1
  C  753  1  0.14615200  0.92734000  0.77802400  1
  C  754  1  0.15136800  0.92712000  0.79093400  1
  C  755  1  0.15170200  0.90592500  0.79789700  1
  C  756  1  0.19041500  0.85445600  0.79548300  1
  C  757  1  0.21010500  0.84269200  0.79039700  1
  C  758  1  0.20770200  0.82217300  0.78299000  1
  C  759  1  0.18444300  0.81442200  0.78075000  1
  C  760  1  0.16481700  0.82633200  0.78585300  1
  C  777  1  0.14531700  0.94791500  0.77063100  1
  C  778  1  0.14941100  0.86877000  0.85424800  1
  C  781  1  0.05973800  0.80507800  0.79399600  1
  C  783  1  0.22782500  0.81120300  0.77796400  1
  C  785  1  0.61364600  0.89402500  0.59109500  1
  C  786  1  0.59945700  0.91060200  0.58473800  1
  C  787  1  0.59887300  0.91180700  0.57160400  1
  C  788  1  0.61261400  0.89679900  0.56388100  1
  C  789  1  0.62656400  0.88001500  0.57044700  1
  C  790  1  0.62733600  0.87877200  0.58361600  1
  C  791  1  0.60991700  0.89556600  0.54954400  1
  C  792  1  0.59642100  0.87216000  0.54806500  1
  C  793  1  0.60619700  0.85133500  0.54285500  1
  C  794  1  0.59305200  0.83045100  0.54146800  1
  C  795  1  0.56953900  0.82885000  0.54568400  1
  C  796  1  0.55991000  0.84887600  0.55158200  1
  C  797  1  0.57310800  0.86976400  0.55281400  1
  C  798  1  0.59624700  0.91655600  0.54382600  1
  C  799  1  0.63364800  0.89629100  0.54244400  1
  C  800  1  0.63425100  0.89240700  0.52933800  1
  C  801  1  0.65526200  0.89301400  0.52232200  1
  C  802  1  0.67732600  0.89795000  0.52789000  1
  C  803  1  0.67699600  0.90275000  0.54084100  1
  C  804  1  0.65581200  0.90221900  0.54781200  1
  C  805  1  0.60382100  0.94005000  0.54597200  1
  C  806  1  0.59194400  0.95977000  0.54099300  1
  C  807  1  0.57193100  0.95736200  0.53320500  1
  C  808  1  0.56478200  0.93408800  0.53049200  1
  C  809  1  0.57681200  0.91443100  0.53548200  1
  C  826  1  0.69773700  0.89952400  0.52044000  1
  C  827  1  0.61207900  0.89212000  0.60412700  1
  C  830  1  0.55643600  0.80848300  0.54346900  1
  C  832  1  0.56087800  0.97752700  0.52827800  1
  C  834  1  0.91032900  0.12996300  0.09109600  1
  C  835  1  0.92453300  0.11339800  0.08473900  1
  C  836  1  0.92508700  0.11216500  0.07160500  1
  C  837  1  0.91132300  0.12714700  0.06387900  1
  C  838  1  0.89738000  0.14393500  0.07044700  1
  C  839  1  0.89660900  0.14518700  0.08361700  1
  C  840  1  0.91403400  0.12839400  0.04954400  1
  C  841  1  0.92753200  0.15179800  0.04806700  1
  C  842  1  0.91775200  0.17263100  0.04286900  1
  C  843  1  0.93089700  0.19351600  0.04148300  1
  C  844  1  0.95441600  0.19511100  0.04569500  1
  C  845  1  0.96404500  0.17508100  0.05158800  1
  C  846  1  0.95084500  0.15419200  0.05281700  1
  C  847  1  0.92771000  0.10740600  0.04383000  1
  C  848  1  0.89030700  0.12767700  0.04244100  1
  C  849  1  0.88971100  0.13156200  0.02933600  1
  C  850  1  0.86870200  0.13095200  0.02231600  1
  C  851  1  0.84663500  0.12600200  0.02787900  1
  C  852  1  0.84696600  0.12117300  0.04082700  1
  C  853  1  0.86814400  0.12172200  0.04780300  1
  C  854  1  0.92013700  0.08391000  0.04597300  1
  C  855  1  0.93200500  0.06419200  0.04098700  1
  C  856  1  0.95200800  0.06660500  0.03319200  1
  C  857  1  0.95914600  0.08988000  0.03047500  1
  C  858  1  0.94712700  0.10953300  0.03547400  1
  C  875  1  0.82623100  0.12441600  0.02042400  1
  C  876  1  0.91191200  0.13188900  0.10412600  1
  C  879  1  0.96752200  0.21547500  0.04347600  1
  C  881  1  0.96303300  0.04645300  0.02824000  1
  C  883  1  0.38041800  0.36350900  0.84105100  1
  C  884  1  0.36404800  0.34908200  0.83469700  1
  C  885  1  0.36279000  0.34855600  0.82156600  1
  C  886  1  0.37752100  0.36258400  0.81383700  1
  C  887  1  0.39416100  0.37670900  0.82040300  1
  C  888  1  0.39543500  0.37746000  0.83357200  1
  C  889  1  0.37872300  0.35993300  0.79949600  1
  C  890  1  0.40214200  0.34647000  0.79800900  1
  C  891  1  0.42301500  0.35636300  0.79291700  1
  C  892  1  0.44393600  0.34326900  0.79154200  1
  C  893  1  0.44552500  0.31969400  0.79566300  1
  C  894  1  0.42543700  0.30993800  0.80144300  1
  C  895  1  0.40451800  0.32308700  0.80266300  1
  C  896  1  0.35774000  0.34624000  0.79380000  1
  C  897  1  0.37792900  0.38365500  0.79240200  1
  C  898  1  0.38196400  0.38429500  0.77931000  1
  C  899  1  0.38131400  0.40531500  0.77230200  1
  C  900  1  0.37616200  0.42733500  0.77786300  1
  C  901  1  0.37117800  0.42695000  0.79079400  1
  C  902  1  0.37176400  0.40576100  0.79775800  1
  C  903  1  0.33422300  0.35349900  0.79615500  1
  C  904  1  0.31451700  0.34117600  0.79147600  1
  C  905  1  0.31692800  0.32112000  0.78370800  1
  C  906  1  0.34021900  0.31458400  0.78060400  1
  C  907  1  0.35986700  0.32696700  0.78535500  1
  C  924  1  0.37451200  0.44774600  0.77042000  1
  C  925  1  0.38238300  0.36190000  0.85407700  1
  C  928  1  0.46592900  0.30664000  0.79345600  1
  C  930  1  0.29680800  0.30894800  0.77947100  1
  C  932  1  0.14355000  0.66043100  0.34104700  1
  C  933  1  0.15992500  0.67485000  0.33469000  1
  C  934  1  0.16117300  0.67538100  0.32155800  1
  C  935  1  0.14641000  0.66137200  0.31383400  1
  C  936  1  0.12978600  0.64723700  0.32040100  1
  C  937  1  0.12852100  0.64649000  0.33357100  1
  C  938  1  0.14522500  0.66402100  0.29949300  1
  C  939  1  0.12180700  0.67749000  0.29800800  1
  C  940  1  0.10093900  0.66760800  0.29290500  1
  C  941  1  0.08002000  0.68070500  0.29152900  1
  C  942  1  0.07843300  0.70428100  0.29565400  1
  C  943  1  0.09852200  0.71403100  0.30143300  1
  C  944  1  0.11943600  0.70087500  0.30266000  1
  C  945  1  0.16621000  0.67770800  0.29379300  1
  C  946  1  0.14601200  0.64030000  0.29240000  1
  C  947  1  0.14197900  0.63965600  0.27930900  1
  C  948  1  0.14263600  0.61863800  0.27230000  1
  C  949  1  0.14779200  0.59661600  0.27785900  1
  C  950  1  0.15277300  0.59700300  0.29079200  1
  C  951  1  0.15217400  0.61819200  0.29775700  1
  C  952  1  0.18972700  0.67044900  0.29614700  1
  C  953  1  0.20943500  0.68278300  0.29147600  1
  C  954  1  0.20702500  0.70284400  0.28371200  1
  C  955  1  0.18373300  0.70938500  0.28061100  1
  C  956  1  0.16408400  0.69699700  0.28535900  1
  C  973  1  0.14949400  0.57621900  0.27040900  1
  C  974  1  0.14159000  0.66204400  0.35407300  1
  C  977  1  0.05803100  0.71733600  0.29344700  1
  C  979  1  0.22714600  0.71502600  0.27948200  1
  C  981  1  0.91035000  0.89416100  0.43280900  1
  C  982  1  0.92464200  0.91063500  0.43917700  1
  C  983  1  0.92519800  0.91183800  0.45231200  1
  C  984  1  0.91135600  0.89690100  0.46002200  1
  C  985  1  0.89731600  0.88021100  0.45344400  1
  C  986  1  0.89654800  0.87899000  0.44027600  1
  C  987  1  0.91409500  0.89560800  0.47435100  1
  C  988  1  0.92763200  0.87220500  0.47575800  1
  C  989  1  0.91777500  0.85123900  0.48076400  1
  C  990  1  0.93091800  0.83034600  0.48210100  1
  C  991  1  0.95451800  0.82888000  0.47801200  1
  C  992  1  0.96423600  0.84904500  0.47229100  1
  C  993  1  0.95102800  0.86994000  0.47110900  1
  C  994  1  0.92770300  0.91658800  0.48011100  1
  C  995  1  0.89039700  0.89618000  0.48147100  1
  C  996  1  0.88984300  0.89183700  0.49453100  1
  C  997  1  0.86877400  0.89154500  0.50149700  1
  C  998  1  0.84660900  0.89624200  0.49596700  1
  C  999  1  0.84695700  0.90189100  0.48310600  1
  C  1000  1  0.86818600  0.90212900  0.47616600  1
  C  1001  1  0.92017400  0.94008600  0.47794200  1
  C  1002  1  0.93204000  0.95979500  0.48294000  1
  C  1003  1  0.95198900  0.95736900  0.49077400  1
  C  1004  1  0.95906000  0.93408600  0.49352600  1
  C  1005  1  0.94704400  0.91444200  0.48851400  1
  C  1022  1  0.82601500  0.89544700  0.50334000  1
  C  1023  1  0.91192800  0.89225100  0.41977800  1
  C  1026  1  0.96760800  0.80850500  0.48020700  1
  C  1028  1  0.96303100  0.97753000  0.49571000  1
  C  1030  1  0.61364500  0.12978500  0.93280400  1
  C  1031  1  0.59933700  0.11331800  0.93917100  1
  C  1032  1  0.59878100  0.11209800  0.95230600  1
  C  1033  1  0.61260300  0.12704500  0.96001600  1
  C  1034  1  0.62664000  0.14374800  0.95344400  1
  C  1035  1  0.62742600  0.14496600  0.94028100  1
  C  1036  1  0.60986800  0.12834300  0.97434400  1
  C  1037  1  0.59633300  0.15174600  0.97575200  1
  C  1038  1  0.60618700  0.17270800  0.98076700  1
  C  1039  1  0.59304500  0.19360200  0.98211000  1
  C  1040  1  0.56945100  0.19507400  0.97800800  1
  C  1041  1  0.55973800  0.17491600  0.97228400  1
  C  1042  1  0.57294200  0.15401900  0.97110000  1
  C  1043  1  0.59625700  0.10736500  0.98010500  1
  C  1044  1  0.63356800  0.12776600  0.98146600  1
  C  1045  1  0.63412100  0.13209200  0.99452700  1
  C  1046  1  0.65519100  0.13239300  0.00149100  1
  C  1047  1  0.67735400  0.12770200  0.99596200  1
  C  1048  1  0.67700800  0.12205900  0.98309800  1
  C  1049  1  0.65577900  0.12182300  0.97616200  1
  C  1050  1  0.60378900  0.08386500  0.97794300  1
  C  1051  1  0.59192900  0.06415800  0.98294900  1
  C  1052  1  0.57198400  0.06658600  0.99077900  1
  C  1053  1  0.56489700  0.08986900  0.99352000  1
  C  1054  1  0.57690900  0.10951200  0.98850500  1
  C  1071  1  0.69795000  0.12849500  0.00333600  1
  C  1072  1  0.61204400  0.13173300  0.91977800  1
  C  1075  1  0.55636600  0.21545400  0.98020800  1
  C  1077  1  0.56094600  0.04643000  0.99572000  1
  C  1079  1  0.14370300  0.36347400  0.18286200  1
  C  1080  1  0.15999100  0.34896600  0.18922500  1
  C  1081  1  0.16122100  0.34843000  0.20235700  1
  C  1082  1  0.14653900  0.36253300  0.21007100  1
  C  1083  1  0.12999800  0.37676000  0.20350000  1
  C  1084  1  0.12875300  0.37751400  0.19033100  1
  C  1085  1  0.14527900  0.35985600  0.22440500  1
  C  1086  1  0.12186300  0.34635400  0.22582200  1
  C  1087  1  0.10085800  0.35632200  0.23072000  1
  C  1088  1  0.07992900  0.34323000  0.23204900  1
  C  1089  1  0.07847400  0.31956700  0.22806300  1
  C  1090  1  0.09868800  0.30973100  0.22244900  1
  C  1091  1  0.11960900  0.32289300  0.22126500  1
  C  1092  1  0.16625400  0.34622900  0.23014800  1
  C  1093  1  0.14592400  0.38354800  0.23152100  1
  C  1094  1  0.14143800  0.38413500  0.24456700  1
  C  1095  1  0.14115400  0.40521800  0.25152000  1
  C  1096  1  0.14603100  0.42734700  0.24599600  1
  C  1097  1  0.15185400  0.42695200  0.23315700  1
  C  1098  1  0.15206700  0.40571000  0.22622700  1
  C  1099  1  0.18977300  0.35345300  0.22777700  1
  C  1100  1  0.20946800  0.34112500  0.23246600  1
  C  1101  1  0.20704200  0.32112500  0.24027500  1
  C  1102  1  0.18374500  0.31464700  0.24340300  1
  C  1103  1  0.16410800  0.32702500  0.23863400  1
  C  1120  1  0.14526300  0.44795200  0.25336000  1
  C  1121  1  0.14173000  0.36186800  0.16983700  1
  C  1124  1  0.05804700  0.30654200  0.23023500  1
  C  1126  1  0.22716000  0.30893800  0.24451100  1
  C  1128  1  0.38024400  0.66049300  0.68286200  1
  C  1129  1  0.36396300  0.67500400  0.68922700  1
  C  1130  1  0.36273700  0.67553900  0.70236000  1
  C  1131  1  0.37742300  0.66143600  0.71007200  1
  C  1132  1  0.39396800  0.64721600  0.70349900  1
  C  1133  1  0.39520400  0.64646000  0.69032900  1
  C  1134  1  0.37868200  0.66410900  0.72440700  1
  C  1135  1  0.40210100  0.67760800  0.72582400  1
  C  1136  1  0.42310500  0.66763800  0.73072100  1
  C  1137  1  0.44403700  0.68072600  0.73204800  1
  C  1138  1  0.44549100  0.70439100  0.72806300  1
  C  1139  1  0.42527700  0.71423100  0.72245100  1
  C  1140  1  0.40435400  0.70106900  0.72126700  1
  C  1141  1  0.35771000  0.67773400  0.73015000  1
  C  1142  1  0.37803800  0.64041600  0.73152000  1
  C  1143  1  0.38252700  0.63982500  0.74456500  1
  C  1144  1  0.38280000  0.61874200  0.75151900  1
  C  1145  1  0.37792600  0.59661400  0.74599300  1
  C  1146  1  0.37211400  0.59701000  0.73315300  1
  C  1147  1  0.37190000  0.61825100  0.72622400  1
  C  1148  1  0.33419100  0.67050500  0.72778100  1
  C  1149  1  0.31449400  0.68283200  0.73247100  1
  C  1150  1  0.31692000  0.70283300  0.74027800  1
  C  1151  1  0.34021500  0.70931300  0.74340700  1
  C  1152  1  0.35985400  0.69694000  0.73863500  1
  C  1169  1  0.37870500  0.57600600  0.75335500  1
  C  1170  1  0.38220000  0.66208800  0.66983500  1
  C  1173  1  0.46592000  0.71741300  0.73023300  1
  C  1175  1  0.29680200  0.71501400  0.74452000  1
  C  1177  1  0.41040300  0.13013700  0.43290200  1
  C  1178  1  0.42481300  0.11373200  0.43924400  1
  C  1179  1  0.42538800  0.11247600  0.45237500  1
  C  1180  1  0.41140400  0.12722600  0.46011500  1
  C  1181  1  0.39727100  0.14387900  0.45356500  1
  C  1182  1  0.39650600  0.14517600  0.44039600  1
  C  1183  1  0.41405900  0.12838500  0.47445900  1
  C  1184  1  0.42753200  0.15179800  0.47595300  1
  C  1185  1  0.41766400  0.17266100  0.48107000  1
  C  1186  1  0.43077400  0.19357200  0.48245400  1
  C  1187  1  0.45434600  0.19515400  0.47832600  1
  C  1188  1  0.46407600  0.17507800  0.47252400  1
  C  1189  1  0.45091400  0.15416800  0.47129500  1
  C  1190  1  0.42775400  0.10739400  0.48015100  1
  C  1191  1  0.39033700  0.12758300  0.48155400  1
  C  1192  1  0.38969300  0.13160600  0.49464700  1
  C  1193  1  0.36866800  0.13097200  0.50165200  1
  C  1194  1  0.34664300  0.12585700  0.49608800  1
  C  1195  1  0.34702600  0.12089800  0.48315300  1
  C  1196  1  0.36822000  0.12146200  0.47619200  1
  C  1197  1  0.42051200  0.08387600  0.47778500  1
  C  1198  1  0.43285300  0.06416700  0.48245000  1
  C  1199  1  0.45291100  0.06657100  0.49021800  1
  C  1200  1  0.45943600  0.08986300  0.49332900  1
  C  1201  1  0.44703700  0.10951300  0.48859000  1
  C  1218  1  0.32622800  0.12423700  0.50353000  1
  C  1219  1  0.41197200  0.13210800  0.41987300  1
  C  1222  1  0.46741000  0.21555100  0.48053300  1
  C  1224  1  0.46514400  0.04645000  0.49441500  1
  C  1226  1  0.11353400  0.89378600  0.93289700  1
  C  1227  1  0.09910900  0.91017800  0.93924600  1
  C  1228  1  0.09856400  0.91146400  0.95237200  1
  C  1229  1  0.11257200  0.89674100  0.96011800  1
  C  1230  1  0.12669900  0.88008400  0.95356500  1
  C  1231  1  0.12746200  0.87877900  0.94039200  1
  C  1232  1  0.10990400  0.89557000  0.97445600  1
  C  1233  1  0.09642600  0.87216000  0.97594800  1
  C  1234  1  0.10630000  0.85128800  0.98105600  1
  C  1235  1  0.09319100  0.83037600  0.98243600  1
  C  1236  1  0.06961400  0.82879900  0.97831500  1
  C  1237  1  0.05988200  0.84888200  0.97251700  1
  C  1238  1  0.07304600  0.86979000  0.97129600  1
  C  1239  1  0.09620400  0.91656000  0.98014300  1
  C  1240  1  0.13362300  0.89636300  0.98156000  1
  C  1241  1  0.13426100  0.89233900  0.99464800  1
  C  1242  1  0.15528000  0.89297700  0.00165800  1
  C  1243  1  0.17730700  0.89810400  0.99610200  1
  C  1244  1  0.17692500  0.90309100  0.98317200  1
  C  1245  1  0.15573700  0.90251200  0.97619900  1
  C  1246  1  0.10344600  0.94007900  0.97778400  1
  C  1247  1  0.09110300  0.95978600  0.98244500  1
  C  1248  1  0.07105700  0.95738000  0.99022000  1
  C  1249  1  0.06454700  0.93408900  0.99334300  1
  C  1250  1  0.07694300  0.91444000  0.98859800  1
  C  1267  1  0.19771500  0.89973700  0.00355100  1
  C  1268  1  0.11195000  0.89179300  0.91987400  1
  C  1271  1  0.05654600  0.80840600  0.98052500  1
  C  1273  1  0.05883900  0.97750100  0.99443400  1
  C  1275  1  0.64352800  0.66044700  0.18287700  1
  C  1276  1  0.65990000  0.67486900  0.18923300  1
  C  1277  1  0.66116000  0.67538600  0.20236400  1
  C  1278  1  0.64642700  0.66135500  0.21009100  1
  C  1279  1  0.62978700  0.64723600  0.20352300  1
  C  1280  1  0.62851900  0.64648500  0.19035200  1
  C  1281  1  0.64522000  0.66400600  0.22443200  1
  C  1282  1  0.62180300  0.67747200  0.22591800  1
  C  1283  1  0.60092900  0.66758300  0.23101000  1
  C  1284  1  0.58000800  0.68067700  0.23238500  1
  C  1285  1  0.57842300  0.70425400  0.22826300  1
  C  1286  1  0.59851100  0.71400400  0.22248200  1
  C  1287  1  0.61943000  0.70085400  0.22126300  1
  C  1288  1  0.66620300  0.67769900  0.23012800  1
  C  1289  1  0.64601000  0.64028800  0.23152800  1
  C  1290  1  0.64197800  0.63965100  0.24462000  1
  C  1291  1  0.64262900  0.61863500  0.25163000  1
  C  1292  1  0.64777600  0.59661100  0.24607300  1
  C  1293  1  0.65275500  0.59698900  0.23314000  1
  C  1294  1  0.65216800  0.61817600  0.22617400  1
  C  1295  1  0.68972200  0.67043800  0.22777600  1
  C  1296  1  0.70942700  0.68276100  0.23245400  1
  C  1297  1  0.70701600  0.70281700  0.24022100  1
  C  1298  1  0.68372500  0.70935700  0.24332300  1
  C  1299  1  0.66407800  0.69697400  0.23857200  1
  C  1316  1  0.64943100  0.57620500  0.25352000  1
  C  1317  1  0.64155800  0.66207400  0.16985100  1
  C  1320  1  0.55802100  0.71730900  0.23047100  1
  C  1322  1  0.72713800  0.71499100  0.24445900  1
  C  1324  1  0.88041500  0.36352300  0.68288100  1
  C  1325  1  0.86404000  0.34911000  0.68924000  1
  C  1326  1  0.86279100  0.34859000  0.70237200  1
  C  1327  1  0.87755600  0.36260000  0.71009300  1
  C  1328  1  0.89418000  0.37673000  0.70352400  1
  C  1329  1  0.89544500  0.37747000  0.69035400  1
  C  1330  1  0.87874500  0.35995100  0.72443600  1
  C  1331  1  0.90216200  0.34648100  0.72591900  1
  C  1332  1  0.92303100  0.35636100  0.73102200  1
  C  1333  1  0.94394800  0.34326200  0.73239900  1
  C  1334  1  0.94553300  0.31968700  0.72827400  1
  C  1335  1  0.92544400  0.30993800  0.72249500  1
  C  1336  1  0.90453200  0.32309700  0.72126700  1
  C  1337  1  0.85775900  0.34626600  0.73013600  1
  C  1338  1  0.87796300  0.38367200  0.73153000  1
  C  1339  1  0.88199200  0.38431100  0.74462100  1
  C  1340  1  0.88133400  0.40532700  0.75163200  1
  C  1341  1  0.87618200  0.42735100  0.74607500  1
  C  1342  1  0.87120800  0.42697100  0.73314300  1
  C  1343  1  0.87180600  0.40578400  0.72617500  1
  C  1344  1  0.83424200  0.35352900  0.72778300  1
  C  1345  1  0.81453600  0.34119500  0.73245400  1
  C  1346  1  0.81694400  0.32113200  0.74021700  1
  C  1347  1  0.84023600  0.31458700  0.74331700  1
  C  1348  1  0.85988600  0.32697600  0.73856900  1
  C  1365  1  0.87447800  0.44774400  0.75353100  1
  C  1366  1  0.88237400  0.36189800  0.66985500  1
  C  1369  1  0.96593400  0.30663000  0.73048100  1
  C  1371  1  0.79682300  0.30894800  0.74444600  1
  C  1373  1  0.11352000  0.13001400  0.59110800  1
  C  1374  1  0.09900300  0.11371800  0.58475600  1
  C  1375  1  0.09845600  0.11246000  0.57162300  1
  C  1376  1  0.11254700  0.12713000  0.56389500  1
  C  1377  1  0.12677500  0.14368500  0.57045600  1
  C  1378  1  0.12753700  0.14496000  0.58362500  1
  C  1379  1  0.10984500  0.12834800  0.54956000  1
  C  1380  1  0.09632700  0.15175500  0.54814000  1
  C  1381  1  0.10627700  0.17276300  0.54323400  1
  C  1382  1  0.09316800  0.19368100  0.54190100  1
  C  1383  1  0.06950800  0.19512500  0.54589600  1
  C  1384  1  0.05968700  0.17490700  0.55151300  1
  C  1385  1  0.07286100  0.15399200  0.55269200  1
  C  1386  1  0.09621600  0.10736400  0.54382700  1
  C  1387  1  0.13353400  0.12770300  0.54244200  1
  C  1388  1  0.13412300  0.13219700  0.52939700  1
  C  1389  1  0.15520500  0.13248000  0.52244200  1
  C  1390  1  0.17733700  0.12760800  0.52796500  1
  C  1391  1  0.17694300  0.12178800  0.54080400  1
  C  1392  1  0.15570200  0.12156700  0.54773500  1
  C  1393  1  0.10341100  0.08384400  0.54622100  1
  C  1394  1  0.09106900  0.06414600  0.54154200  1
  C  1395  1  0.07108600  0.06656500  0.53372100  1
  C  1396  1  0.06464500  0.08986100  0.53056600  1
  C  1397  1  0.07703400  0.10950100  0.53532600  1
  C  1414  1  0.19794500  0.12839900  0.52060200  1
  C  1415  1  0.11194000  0.13199600  0.60413600  1
  C  1418  1  0.05645700  0.21552900  0.54371000  1
  C  1420  1  0.05885800  0.04645000  0.52951100  1
  C  1422  1  0.41039800  0.89395500  0.09111000  1
  C  1423  1  0.42493200  0.91024300  0.08476100  1
  C  1424  1  0.42547900  0.91151800  0.07162900  1
  C  1425  1  0.41140600  0.89683800  0.06389900  1
  C  1426  1  0.39718300  0.88027000  0.07045300  1
  C  1427  1  0.39640400  0.87899700  0.08362200  1
  C  1428  1  0.41410400  0.89561400  0.04956300  1
  C  1429  1  0.42762200  0.87220700  0.04814100  1
  C  1430  1  0.41767300  0.85120300  0.04322800  1
  C  1431  1  0.43078100  0.83028400  0.04189500  1
  C  1432  1  0.45443700  0.82883500  0.04589600  1
  C  1433  1  0.46425400  0.84904500  0.05152100  1
  C  1434  1  0.45108300  0.86996300  0.05269900  1
  C  1435  1  0.42773800  0.91659600  0.04383100  1
  C  1436  1  0.39041500  0.89626300  0.04244500  1
  C  1437  1  0.38982700  0.89178600  0.02939800  1
  C  1438  1  0.36874400  0.89149400  0.02244500  1
  C  1439  1  0.34661100  0.89636000  0.02797000  1
  C  1440  1  0.34700700  0.90217500  0.04080900  1
  C  1441  1  0.36824600  0.90239500  0.04773900  1
  C  1442  1  0.42053900  0.94011700  0.04621900  1
  C  1443  1  0.43288600  0.95981400  0.04154300  1
  C  1444  1  0.45287400  0.95739200  0.03372600  1
  C  1445  1  0.45931700  0.93409600  0.03057400  1
  C  1446  1  0.44692500  0.91445800  0.03533300  1
  C  1463  1  0.32600300  0.89557300  0.02060600  1
  C  1464  1  0.41200200  0.89193600  0.10413500  1
  C  1467  1  0.46748400  0.80842500  0.04371300  1
  C  1469  1  0.46511200  0.97750600  0.02951900  1
  C  1471  1  0.88026500  0.66048100  0.84112600  1
  C  1472  1  0.86397500  0.67498200  0.83475900  1
  C  1473  1  0.86274800  0.67551300  0.82162800  1
  C  1474  1  0.87743100  0.66140800  0.81391500  1
  C  1475  1  0.89397100  0.64718300  0.82048900  1
  C  1476  1  0.89522500  0.64644800  0.83365800  1
  C  1477  1  0.87869300  0.66408300  0.79958100  1
  C  1478  1  0.90210800  0.67758700  0.79816500  1
  C  1479  1  0.92311300  0.66762000  0.79326600  1
  C  1480  1  0.94404200  0.68071400  0.79193600  1
  C  1481  1  0.94549400  0.70437700  0.79592300  1
  C  1482  1  0.92528000  0.71421200  0.80153800  1
  C  1483  1  0.90436100  0.70104800  0.80272300  1
  C  1484  1  0.85771900  0.67771000  0.79383800  1
  C  1485  1  0.87805000  0.64039300  0.79246400  1
  C  1486  1  0.88253200  0.63981100  0.77941700  1
  C  1487  1  0.88281700  0.61873200  0.77246100  1
  C  1488  1  0.87794500  0.59659900  0.77798400  1
  C  1489  1  0.87213000  0.59698700  0.79082300  1
  C  1490  1  0.87191500  0.61822500  0.79775600  1
  C  1491  1  0.83419800  0.67048600  0.79621000  1
  C  1492  1  0.81450300  0.68280400  0.79151400  1
  C  1493  1  0.81692600  0.70280700  0.78370900  1
  C  1494  1  0.84022400  0.70929200  0.78058500  1
  C  1495  1  0.85986300  0.69691800  0.78535400  1
  C  1512  1  0.87871400  0.57599800  0.77061500  1
  C  1513  1  0.88223300  0.66209400  0.85415200  1
  C  1516  1  0.96592000  0.71740400  0.79375100  1
  C  1518  1  0.79680900  0.71499100  0.77946900  1
  C  1520  1  0.64370000  0.36346500  0.34112600  1
  C  1521  1  0.65998300  0.34896100  0.33475700  1
  C  1522  1  0.66120900  0.34843300  0.32162500  1
  C  1523  1  0.64652200  0.36253800  0.31391500  1
  C  1524  1  0.62997700  0.37675400  0.32049000  1
  C  1525  1  0.62874000  0.37750200  0.33366100  1
  C  1526  1  0.64525900  0.35986700  0.29958000  1
  C  1527  1  0.62184100  0.34636500  0.29816300  1
  C  1528  1  0.60083600  0.35633300  0.29326500  1
  C  1529  1  0.57990800  0.34324100  0.29193800  1
  C  1530  1  0.57845500  0.31957600  0.29592300  1
  C  1531  1  0.59867100  0.30974000  0.30153600  1
  C  1532  1  0.61959000  0.32290400  0.30272100  1
  C  1533  1  0.66623200  0.34624200  0.29383600  1
  C  1534  1  0.64589900  0.38355800  0.29246500  1
  C  1535  1  0.64141300  0.38414600  0.27941900  1
  C  1536  1  0.64113700  0.40522300  0.27246300  1
  C  1537  1  0.64601000  0.42735600  0.27798600  1
  C  1538  1  0.65181200  0.42696600  0.29082800  1
  C  1539  1  0.65202900  0.40572600  0.29776000  1
  C  1540  1  0.68975200  0.35347400  0.29620300  1
  C  1541  1  0.70944700  0.34114900  0.29151400  1
  C  1542  1  0.70702300  0.32114500  0.28370800  1
  C  1543  1  0.68372700  0.31466300  0.28058000  1
  C  1544  1  0.66408700  0.32703500  0.28535200  1
  C  1561  1  0.64523000  0.44795900  0.27062000  1
  C  1562  1  0.64174600  0.36185900  0.35415300  1
  C  1565  1  0.55802800  0.30655100  0.29375300  1
  C  1567  1  0.72714000  0.30896600  0.27946600  1
  C  1569  1  0.12680800  0.38108100  0.12395600  1
  C  1571  1  0.12653900  0.40023100  0.14400200  1
  C  1572  1  0.13190500  0.37898500  0.15015800  1
  C  1574  1  0.13200900  0.35962400  0.13006800  1
  C  1581  1  0.39715800  0.64288900  0.62395700  1
  C  1583  1  0.39746600  0.62374600  0.64400400  1
  C  1584  1  0.39206100  0.64498400  0.65015900  1
  C  1586  1  0.39192000  0.66434000  0.63006700  1
  C  1593  1  0.89272600  0.87694600  0.37392000  1
  C  1595  1  0.87367900  0.87646900  0.39399200  1
  C  1596  1  0.89488700  0.88210800  0.40011900  1
  C  1598  1  0.91414800  0.88241100  0.38000100  1
  C  1605  1  0.63125400  0.14700200  0.87391700  1
  C  1607  1  0.65032400  0.14738400  0.89398300  1
  C  1608  1  0.62910200  0.14182100  0.90011600  1
  C  1610  1  0.60981500  0.14161400  0.88000600  1
  C  1617  1  0.39720600  0.38118200  0.89996200  1
  C  1619  1  0.39763200  0.40026600  0.87990100  1
  C  1620  1  0.39217700  0.37903000  0.87375800  1
  C  1622  1  0.39190600  0.35973100  0.89386500  1
  C  1629  1  0.12676200  0.64277100  0.39995900  1
  C  1631  1  0.12637100  0.62367400  0.37990100  1
  C  1632  1  0.13180000  0.64491700  0.37375500  1
  C  1634  1  0.13203200  0.66422500  0.39385900  1
  C  1641  1  0.63135400  0.87691800  0.64998900  1
  C  1643  1  0.65034700  0.87633900  0.62990400  1
  C  1644  1  0.62913900  0.88201700  0.62378700  1
  C  1646  1  0.60993000  0.88243000  0.64391800  1
  C  1653  1  0.89262000  0.14705600  0.14998900  1
  C  1655  1  0.87362100  0.14759800  0.12990600  1
  C  1656  1  0.89483600  0.14195000  0.12378800  1
  C  1658  1  0.91405100  0.14157400  0.14391700  1
  C  1665  1  0.89716900  0.64296000  0.90003900  1
  C  1667  1  0.89749800  0.62378900  0.87999900  1
  C  1668  1  0.89208400  0.64501600  0.87383500  1
  C  1670  1  0.89192000  0.66439800  0.89392000  1
  C  1677  1  0.62677900  0.38098100  0.40003900  1
  C  1679  1  0.62641800  0.40014700  0.37999700  1
  C  1680  1  0.63186800  0.37892700  0.37383500  1
  C  1682  1  0.63206100  0.35954800  0.39392100  1
  C  1689  1  0.13122200  0.14706600  0.65000400  1
  C  1691  1  0.15031300  0.14735900  0.62994200  1
  C  1692  1  0.12906800  0.14191500  0.62380300  1
  C  1694  1  0.10976300  0.14178800  0.64391000  1
  C  1701  1  0.39271300  0.87690200  0.15000600  1
  C  1703  1  0.37359700  0.87670100  0.12995000  1
  C  1704  1  0.39485800  0.88207100  0.12380500  1
  C  1706  1  0.41418500  0.88210300  0.14390600  1
  C  1713  1  0.62674200  0.64287000  0.12395700  1
  C  1715  1  0.62627600  0.62375700  0.14401000  1
  C  1716  1  0.63176000  0.64497700  0.15016300  1
  C  1718  1  0.63207300  0.66430100  0.13006300  1
  C  1725  1  0.89720600  0.38109400  0.62396000  1
  C  1727  1  0.89764400  0.40021400  0.64401200  1
  C  1728  1  0.89217800  0.37899000  0.65016600  1
  C  1730  1  0.89189900  0.35965700  0.63006800  1
  C  1737  1  0.39262000  0.14708500  0.37400200  1
  C  1739  1  0.37358500  0.14750100  0.39407700  1
  C  1740  1  0.39482800  0.14200000  0.40020500  1
  C  1742  1  0.41407600  0.14174200  0.38008300  1
  C  1749  1  0.13132000  0.87685400  0.87400100  1
  C  1751  1  0.15036100  0.87647800  0.89407600  1
  C  1752  1  0.12911100  0.88194700  0.90020400  1
  C  1754  1  0.10985600  0.88216500  0.88008400  1
  C  1761  1  0.02691700  0.28179500  0.05138500  1
  C  1763  1  0.00570600  0.25281100  0.03957600  1
  C  1764  1  0.99677400  0.24255900  0.05060700  1
  C  1766  1  0.01803600  0.27165300  0.06247000  1
  C  1773  1  0.49705700  0.74215100  0.55138300  1
  C  1775  1  0.51824400  0.77115300  0.53957300  1
  C  1776  1  0.52718600  0.78139500  0.55060400  1
  C  1778  1  0.50595400  0.75228300  0.56246700  1
  C  1785  1  0.99180300  0.77685000  0.30133500  1
  C  1787  1  0.02068400  0.75551400  0.28951800  1
  C  1788  1  0.03102000  0.74668600  0.30055000  1
  C  1790  1  0.00203100  0.76807100  0.31242100  1
  C  1797  1  0.53216600  0.24713300  0.80133500  1
  C  1799  1  0.50326800  0.26845800  0.78952200  1
  C  1800  1  0.49293900  0.27728800  0.80055600  1
  C  1802  1  0.52194800  0.25591900  0.81242200  1
  C  1809  1  0.49706800  0.28181400  0.97230300  1
  C  1811  1  0.51822300  0.25278800  0.98410500  1
  C  1812  1  0.52711400  0.24251000  0.97307600  1
  C  1814  1  0.50590500  0.27164400  0.96120900  1
  C  1821  1  0.02688300  0.74212800  0.47229800  1
  C  1823  1  0.00574600  0.77116900  0.48410500  1
  C  1824  1  0.99684900  0.78144100  0.47307200  1
  C  1826  1  0.01803300  0.75229200  0.46121200  1
  C  1833  1  0.53217300  0.77684800  0.72235700  1
  C  1835  1  0.50325000  0.75556300  0.73417100  1
  C  1836  1  0.49288300  0.74678200  0.72313700  1
  C  1838  1  0.52190900  0.76811900  0.71126900  1
  C  1845  1  0.99178000  0.24712700  0.22235700  1
  C  1847  1  0.02071700  0.26839300  0.23417100  1
  C  1848  1  0.03107800  0.27718100  0.22313600  1
  C  1850  1  0.00203100  0.25586800  0.21126900  1
  C  1857  1  0.99702300  0.74218100  0.97264700  1
  C  1859  1  0.01828300  0.77113500  0.98445900  1
  C  1860  1  0.02720300  0.78138800  0.97342100  1
  C  1862  1  0.00589700  0.75232500  0.96156300  1
  C  1869  1  0.52691700  0.28178800  0.47265200  1
  C  1871  1  0.50568300  0.25281400  0.48445700  1
  C  1872  1  0.49674900  0.24257000  0.47342500  1
  C  1874  1  0.51802600  0.27165600  0.46156600  1
  C  1881  1  0.03215500  0.24710500  0.72259400  1
  C  1883  1  0.00327600  0.26844600  0.73441100  1
  C  1884  1  0.99294100  0.27727400  0.72337900  1
  C  1886  1  0.02192600  0.25588400  0.71150800  1
  C  1893  1  0.49179100  0.77682600  0.22259200  1
  C  1895  1  0.52068500  0.75549600  0.23440500  1
  C  1896  1  0.53101400  0.74666600  0.22337200  1
  C  1898  1  0.50200800  0.76804000  0.21150500  1
  C  1905  1  0.52691200  0.74216300  0.05158300  1
  C  1907  1  0.50570600  0.77115800  0.03977900  1
  C  1908  1  0.49682800  0.78143900  0.05081400  1
  C  1910  1  0.51808200  0.75233700  0.06267200  1
  C  1917  1  0.99705300  0.28180900  0.55158500  1
  C  1919  1  0.01823900  0.25280000  0.53978100  1
  C  1920  1  0.02712300  0.24252300  0.55081600  1
  C  1922  1  0.00589400  0.27164400  0.56267300  1
  C  1929  1  0.49178500  0.24710500  0.30162800  1
  C  1931  1  0.52070100  0.26839500  0.28981400  1
  C  1932  1  0.53106800  0.27717800  0.30084800  1
  C  1934  1  0.50204500  0.25583600  0.31271600  1
  C  1941  1  0.03217700  0.77683100  0.80162800  1
  C  1943  1  0.00324500  0.75556000  0.78981500  1
  C  1944  1  0.99288400  0.74677200  0.80084900  1
  C  1946  1  0.02192600  0.76809100  0.81271600  1
  C  1953  1  0.02729100  0.49553600  0.01785200  1
  C  1955  1  0.99618400  0.50515900  0.00340200  1
  C  1956  1  0.99669400  0.52916900  0.00684200  1
  C  1958  1  0.02779900  0.51957900  0.02146100  1
  C  1965  1  0.49665400  0.52841200  0.51784800  1
  C  1967  1  0.52777600  0.51879600  0.50340200  1
  C  1968  1  0.52726700  0.49478400  0.50684100  1
  C  1970  1  0.49615600  0.50437100  0.52146100  1
  C  1977  1  0.77805200  0.77729700  0.26777800  1
  C  1979  1  0.76832800  0.74658200  0.25311200  1
  C  1980  1  0.74441800  0.74670200  0.25675700  1
  C  1982  1  0.75412100  0.77741000  0.27159700  1
  C  1989  1  0.74590700  0.24665600  0.76777700  1
  C  1991  1  0.75563400  0.27736600  0.75310700  1
  C  1992  1  0.77954100  0.27725300  0.75675600  1
  C  1994  1  0.76983500  0.24655800  0.77160200  1
  C  2001  1  0.49664500  0.49553400  0.00611400  1
  C  2003  1  0.52779800  0.50516100  0.02054200  1
  C  2004  1  0.52727800  0.52917400  0.01710400  1
  C  2006  1  0.49612700  0.51957900  0.00250700  1
  C  2013  1  0.02731800  0.52841800  0.50612000  1
  C  2015  1  0.99618100  0.51878900  0.52055200  1
  C  2016  1  0.99668000  0.49478100  0.51710400  1
  C  2018  1  0.02781100  0.50438100  0.50249700  1
  C  2025  1  0.74588700  0.77733000  0.75617500  1
  C  2027  1  0.75562300  0.74658400  0.77082300  1
  C  2028  1  0.77953300  0.74671200  0.76717700  1
  C  2030  1  0.76982100  0.77745500  0.75235800  1
  C  2037  1  0.77806400  0.24661700  0.25617900  1
  C  2039  1  0.76833300  0.27737800  0.27081900  1
  C  2040  1  0.74442000  0.27723900  0.26717800  1
  C  2042  1  0.75413100  0.24649300  0.25236100  1
  C  2049  1  0.24589400  0.24664000  0.75614900  1
  C  2051  1  0.25561600  0.27735900  0.77081500  1
  C  2052  1  0.27952800  0.27723700  0.76717200  1
  C  2054  1  0.26982900  0.24652800  0.75233200  1
  C  2061  1  0.27805900  0.77732000  0.25615100  1
  C  2063  1  0.26833700  0.74660300  0.27081700  1
  C  2064  1  0.24442700  0.74672300  0.26717200  1
  C  2066  1  0.25412800  0.77742500  0.25232900  1
  C  2073  1  0.27808000  0.24660300  0.26781000  1
  C  2075  1  0.26834600  0.27735000  0.25316200  1
  C  2076  1  0.24443600  0.27722000  0.25680600  1
  C  2078  1  0.25414600  0.24647800  0.27162600  1
  C  2085  1  0.24588000  0.77736000  0.76780800  1
  C  2087  1  0.25561100  0.74660000  0.75316900  1
  C  2088  1  0.27952400  0.74674000  0.75680800  1
  C  2090  1  0.26981500  0.77748700  0.77162500  1
  C  2097  1  0.52727200  0.99551900  0.51786700  1
  C  2099  1  0.49690400  0.00534100  0.50301200  1
  C  2100  1  0.49669100  0.02915700  0.50682500  1
  C  2102  1  0.52704900  0.01935600  0.52185000  1
  C  2109  1  0.99667300  0.02842800  0.01786200  1
  C  2111  1  0.02705400  0.01861200  0.00301000  1
  C  2112  1  0.02726700  0.99479800  0.00682300  1
  C  2114  1  0.99690900  0.00459600  0.02185100  1
  C  2121  1  0.99666600  0.99551100  0.50610200  1
  C  2123  1  0.02705100  0.00534900  0.52094600  1
  C  2124  1  0.02727600  0.02915500  0.51712000  1
  C  2126  1  0.99690500  0.01933900  0.50210400  1
  C  2133  1  0.52729900  0.02843500  0.00610500  1
  C  2135  1  0.49692900  0.01859800  0.02095600  1
  C  2136  1  0.49668100  0.99479600  0.01711900  1
  C  2138  1  0.52703200  0.00461500  0.00209600  1
  C  2145  1  0.24014600  0.39653400  0.01830300  1
  C  2147  1  0.26266300  0.40201000  0.99944900  1
  C  2148  1  0.28404600  0.39745900  0.00568600  1
  C  2150  1  0.26152100  0.39188000  0.02464100  1
  C  2157  1  0.28381800  0.62741000  0.51829700  1
  C  2159  1  0.26130100  0.62196100  0.49943500  1
  C  2160  1  0.23991600  0.62649000  0.50567600  1
  C  2162  1  0.26244300  0.63204900  0.52463700  1
  C  2169  1  0.87709900  0.99012500  0.26828300  1
  C  2171  1  0.87157800  0.01266600  0.24943600  1
  C  2172  1  0.87616700  0.03404100  0.25567400  1
  C  2174  1  0.88179500  0.01148900  0.27462200  1
  C  2181  1  0.64685700  0.03383800  0.76828500  1
  C  2183  1  0.65234200  0.01129600  0.74943400  1
  C  2184  1  0.64778400  0.98991900  0.75567700  1
  C  2186  1  0.64218900  0.01247200  0.77462800  1
  C  2193  1  0.78382300  0.62726800  0.00565800  1
  C  2195  1  0.76128700  0.62175000  0.02450700  1
  C  2196  1  0.73991200  0.62634100  0.01826800  1
  C  2198  1  0.76245800  0.63196400  0.99931800  1
  C  2205  1  0.74012700  0.39670100  0.50566600  1
  C  2207  1  0.76266400  0.40219400  0.52451600  1
  C  2208  1  0.78403900  0.39762100  0.51827500  1
  C  2210  1  0.76149300  0.39202200  0.49932500  1
  C  2217  1  0.14684300  0.03382800  0.75566800  1
  C  2219  1  0.15236700  0.01130300  0.77452100  1
  C  2220  1  0.14777500  0.98992200  0.76828900  1
  C  2222  1  0.14214400  0.01245800  0.74933500  1
  C  2229  1  0.37711300  0.99012300  0.25566700  1
  C  2231  1  0.37162700  0.01264900  0.27452300  1
  C  2232  1  0.37618600  0.03403100  0.26828500  1
  C  2234  1  0.38178300  0.01149400  0.24932900  1
  C  2241  1  0.74014100  0.89704600  0.51830600  1
  C  2243  1  0.76266200  0.90274100  0.49946600  1
  C  2244  1  0.78403000  0.89799000  0.50567700  1
  C  2246  1  0.76149600  0.89217800  0.52461500  1
  C  2253  1  0.78382800  0.12690000  0.01829600  1
  C  2255  1  0.76130400  0.12124300  0.99945800  1
  C  2256  1  0.73993700  0.12596300  0.00566700  1
  C  2258  1  0.76247100  0.13173900  0.02461000  1
  C  2265  1  0.37704300  0.49013700  0.76829700  1
  C  2267  1  0.37130700  0.51267700  0.74946800  1
  C  2268  1  0.37610500  0.53403200  0.75567800  1
  C  2270  1  0.38195600  0.51148100  0.77460600  1
  C  2277  1  0.14691300  0.53383000  0.26829800  1
  C  2279  1  0.15260900  0.51128700  0.24946700  1
  C  2280  1  0.14784500  0.48993000  0.25568300  1
  C  2282  1  0.14203100  0.51248300  0.27461300  1
  C  2289  1  0.28382700  0.12675000  0.50565600  1
  C  2291  1  0.26128200  0.12098600  0.52448200  1
  C  2292  1  0.23992600  0.12580100  0.51827400  1
  C  2294  1  0.26248300  0.13168200  0.49935000  1
  C  2301  1  0.24011600  0.89721800  0.00566700  1
  C  2303  1  0.26266300  0.90294200  0.02449400  1
  C  2304  1  0.28402000  0.89815900  0.01828100  1
  C  2306  1  0.26146300  0.89231600  0.99935600  1
  C  2313  1  0.64689600  0.53381600  0.25565500  1
  C  2315  1  0.65263400  0.51129400  0.27448900  1
  C  2316  1  0.64783400  0.48993100  0.26828500  1
  C  2318  1  0.64198000  0.51246600  0.24935100  1
  C  2325  1  0.87706200  0.49013200  0.75565200  1
  C  2327  1  0.87136300  0.51265700  0.77449100  1
  C  2328  1  0.87613000  0.53402200  0.76828100  1
  C  2330  1  0.88194700  0.51148400  0.74934500  1
  C  2337  1  0.11671300  0.74934400  0.09114900  1
  C  2338  1  0.10267200  0.76588800  0.08467500  1
  C  2339  1  0.10055200  0.76553100  0.07157300  1
  C  2340  1  0.11285700  0.74915200  0.06395700  1
  C  2341  1  0.12626600  0.73212000  0.07066100  1
  C  2342  1  0.12835100  0.73225000  0.08380800  1
  C  2343  1  0.10991500  0.74746200  0.04963800  1
  C  2344  1  0.09625100  0.72411800  0.04831000  1
  C  2345  1  0.10546100  0.70336800  0.04273400  1
  C  2346  1  0.09199500  0.68268400  0.04136300  1
  C  2347  1  0.06874800  0.68120500  0.04597900  1
  C  2348  1  0.05972800  0.70110000  0.05225600  1
  C  2349  1  0.07322400  0.72180500  0.05344800  1
  C  2350  1  0.09627500  0.76839500  0.04381200  1
  C  2351  1  0.13365600  0.74785400  0.04251300  1
  C  2352  1  0.13414800  0.74428500  0.02937900  1
  C  2353  1  0.15513100  0.74475800  0.02233200  1
  C  2354  1  0.17730500  0.74921000  0.02789400  1
  C  2355  1  0.17711500  0.75363000  0.04088300  1
  C  2356  1  0.15596600  0.75324500  0.04788200  1
  C  2357  1  0.10448100  0.79184200  0.04541200  1
  C  2358  1  0.09271500  0.81152800  0.04033000  1
  C  2359  1  0.07213700  0.80912400  0.03296900  1
  C  2360  1  0.06430500  0.78587200  0.03078900  1
  C  2361  1  0.07623700  0.76624700  0.03587600  1
  C  2378  1  0.19771500  0.75061000  0.02042800  1
  C  2379  1  0.11882200  0.75091100  0.10418100  1
  C  2382  1  0.05524000  0.66112100  0.04377600  1
  C  2384  1  0.06119100  0.82923400  0.02792200  1
  C  2386  1  0.40726700  0.97821500  0.59115200  1
  C  2387  1  0.42131800  0.96168100  0.58467600  1
  C  2388  1  0.42341600  0.96202500  0.57157300  1
  C  2389  1  0.41108600  0.97838400  0.56395500  1
  C  2390  1  0.39768800  0.99542100  0.57066200  1
  C  2391  1  0.39561400  0.99529800  0.58381000  1
  C  2392  1  0.41403700  0.98008500  0.54963800  1
  C  2393  1  0.42770300  0.00342609  0.54831100  1
  C  2394  1  0.41849100  0.02418210  0.54274200  1
  C  2395  1  0.43195900  0.04486610  0.54137300  1
  C  2396  1  0.45520900  0.04633810  0.54598300  1
  C  2397  1  0.46422900  0.02644010  0.55225800  1
  C  2398  1  0.45072900  0.00573709  0.55345100  1
  C  2399  1  0.42768000  0.95915300  0.54381500  1
  C  2400  1  0.39029800  0.97970100  0.54251200  1
  C  2401  1  0.38980900  0.98326500  0.52937800  1
  C  2402  1  0.36882800  0.98278600  0.52232800  1
  C  2403  1  0.34665300  0.97832600  0.52788700  1
  C  2404  1  0.34684300  0.97388200  0.54087400  1
  C  2405  1  0.36798900  0.97428500  0.54787600  1
  C  2406  1  0.41947300  0.93570600  0.54541100  1
  C  2407  1  0.43123100  0.91602000  0.54032100  1
  C  2408  1  0.45180100  0.91842900  0.53295600  1
  C  2409  1  0.45962400  0.94168100  0.53077000  1
  C  2410  1  0.44770200  0.96130200  0.53586700  1
  C  2427  1  0.32624900  0.97691100  0.52041700  1
  C  2428  1  0.40517200  0.97665300  0.60418400  1
  C  2431  1  0.46872400  0.06641810  0.54377700  1
  C  2433  1  0.46272000  0.89833500  0.52788200  1
  C  2435  1  0.87619700  0.21846500  0.34112900  1
  C  2436  1  0.85964300  0.20441200  0.33466500  1
  C  2437  1  0.85994700  0.20231000  0.32156100  1
  C  2438  1  0.87628400  0.21463500  0.31392900  1
  C  2439  1  0.89333900  0.22803700  0.32062100  1
  C  2440  1  0.89325700  0.23011600  0.33377100  1
  C  2441  1  0.87794700  0.21167700  0.29961000  1
  C  2442  1  0.90127800  0.19799400  0.29827300  1
  C  2443  1  0.92203200  0.20719000  0.29269500  1
  C  2444  1  0.94270700  0.19370700  0.29132000  1
  C  2445  1  0.94417300  0.17046300  0.29593800  1
  C  2446  1  0.92427400  0.16145300  0.30221500  1
  C  2447  1  0.90358000  0.17496600  0.30341200  1
  C  2448  1  0.85700100  0.19803600  0.29379800  1
  C  2449  1  0.87755800  0.23541600  0.29248400  1
  C  2450  1  0.88111500  0.23591000  0.27934800  1
  C  2451  1  0.88063800  0.25689500  0.27230200  1
  C  2452  1  0.87618600  0.27907000  0.27786400  1
  C  2453  1  0.87175500  0.27887500  0.29085200  1
  C  2454  1  0.87214900  0.25772300  0.29785000  1
  C  2455  1  0.83355400  0.20622800  0.29541800  1
  C  2456  1  0.81385700  0.19446200  0.29034400  1
  C  2457  1  0.81624900  0.17390300  0.28296700  1
  C  2458  1  0.83949900  0.16609700  0.28075900  1
  C  2459  1  0.85913300  0.17802600  0.28583900  1
  C  2476  1  0.87477200  0.29948600  0.27040100  1
  C  2477  1  0.87468200  0.22055100  0.35416600  1
  C  2480  1  0.96423300  0.15692400  0.29371900  1
  C  2482  1  0.79613700  0.16291300  0.27794500  1
  C  2484  1  0.64777600  0.50904500  0.84112300  1
  C  2485  1  0.66433500  0.52308800  0.83466000  1
  C  2486  1  0.66402000  0.52520200  0.82155600  1
  C  2487  1  0.64765400  0.51290800  0.81392700  1
  C  2488  1  0.63060600  0.49949700  0.82062000  1
  C  2489  1  0.63070300  0.49740800  0.83376700  1
  C  2490  1  0.64600100  0.51586600  0.79960800  1
  C  2491  1  0.62267200  0.52955200  0.79827300  1
  C  2492  1  0.60192100  0.52036800  0.79268500  1
  C  2493  1  0.58125200  0.53385600  0.79131000  1
  C  2494  1  0.57978500  0.55709800  0.79593300  1
  C  2495  1  0.59968700  0.56610300  0.80220800  1
  C  2496  1  0.62037400  0.55258200  0.80341100  1
  C  2497  1  0.66695000  0.52949600  0.79379100  1
  C  2498  1  0.64638300  0.49212400  0.79248300  1
  C  2499  1  0.64282800  0.49162900  0.77934800  1
  C  2500  1  0.64331000  0.47064400  0.77230100  1
  C  2501  1  0.64776500  0.44846900  0.77786200  1
  C  2502  1  0.65219200  0.44866500  0.79085000  1
  C  2503  1  0.65179000  0.46981500  0.79784900  1
  C  2504  1  0.69039700  0.52130500  0.79541100  1
  C  2505  1  0.71009600  0.53307500  0.79034200  1
  C  2506  1  0.70770700  0.55364300  0.78297100  1
  C  2507  1  0.68445700  0.56145800  0.78076800  1
  C  2508  1  0.66482200  0.54952500  0.78584500  1
  C  2525  1  0.64922200  0.42806200  0.77039300  1
  C  2526  1  0.64930100  0.50694200  0.85416000  1
  C  2529  1  0.55972500  0.57063800  0.79371700  1
  C  2531  1  0.72781900  0.56463500  0.77795200  1
  C  2533  1  0.40730800  0.74947200  0.93275800  1
  C  2534  1  0.42141300  0.76595400  0.93924600  1
  C  2535  1  0.42350200  0.76558600  0.95234400  1
  C  2536  1  0.41112300  0.74924500  0.95995100  1
  C  2537  1  0.39764200  0.73228200  0.95323900  1
  C  2538  1  0.39557400  0.73243300  0.94009400  1
  C  2539  1  0.41409200  0.74750000  0.97426000  1
  C  2540  1  0.42779200  0.72416200  0.97552800  1
  C  2541  1  0.41850700  0.70327600  0.98092600  1
  C  2542  1  0.43197700  0.68258700  0.98224900  1
  C  2543  1  0.45530300  0.68124200  0.97774700  1
  C  2544  1  0.46440700  0.70126900  0.97162200  1
  C  2545  1  0.45089800  0.72197600  0.97047500  1
  C  2546  1  0.42766900  0.76842000  0.98013300  1
  C  2547  1  0.39037200  0.74775500  0.98139200  1
  C  2548  1  0.38990800  0.74376100  0.99449000  1
  C  2549  1  0.36887100  0.74339100  0.00148100  1
  C  2550  1  0.34662000  0.74762900  0.99594400  1
  C  2551  1  0.34683800  0.75285300  0.98304200  1
  C  2552  1  0.36803200  0.75317800  0.97606900  1
  C  2553  1  0.41949400  0.79187200  0.97852000  1
  C  2554  1  0.43124500  0.81154800  0.98362000  1
  C  2555  1  0.45176900  0.80912000  0.99102200  1
  C  2556  1  0.45954400  0.78586000  0.99323100  1
  C  2557  1  0.44762800  0.76624700  0.98812200  1
  C  2574  1  0.32605000  0.74681100  0.00334600  1
  C  2575  1  0.40524400  0.75102700  0.91972600  1
  C  2578  1  0.46881000  0.66115600  0.97992800  1
  C  2580  1  0.46268700  0.82922000  0.99609300  1
  C  2582  1  0.11666000  0.97806700  0.43275600  1
  C  2583  1  0.10255600  0.96158400  0.43923700  1
  C  2584  1  0.10046400  0.96194300  0.45234100  1
  C  2585  1  0.11283500  0.97828700  0.45994500  1
  C  2586  1  0.12631500  0.99525600  0.45323700  1
  C  2587  1  0.12839100  0.99510800  0.44009100  1
  C  2588  1  0.10986700  0.98003500  0.47425700  1
  C  2589  1  0.09616900  0.00337509  0.47552100  1
  C  2590  1  0.10545300  0.02425710  0.48092300  1
  C  2591  1  0.09198500  0.04494610  0.48224800  1
  C  2592  1  0.06866000  0.04629710  0.47774000  1
  C  2593  1  0.05955900  0.02627310  0.47161200  1
  C  2594  1  0.07306600  0.00556309  0.47046600  1
  C  2595  1  0.09628900  0.95911600  0.48012700  1
  C  2596  1  0.13358800  0.97977700  0.48138900  1
  C  2597  1  0.13405200  0.98376400  0.49448600  1
  C  2598  1  0.15509100  0.98414100  0.50148100  1
  C  2599  1  0.17734100  0.97990500  0.49594200  1
  C  2600  1  0.17712200  0.97467900  0.48303300  1
  C  2601  1  0.15592800  0.97435000  0.47606800  1
  C  2602  1  0.10446400  0.93566400  0.47851300  1
  C  2603  1  0.09271600  0.91599000  0.48362100  1
  C  2604  1  0.07219500  0.91841500  0.49102400  1
  C  2605  1  0.06441000  0.94167600  0.49322800  1
  C  2606  1  0.07632400  0.96128800  0.48811400  1
  C  2623  1  0.19791000  0.98072100  0.50333700  1
  C  2624  1  0.11874400  0.97650700  0.41972500  1
  C  2627  1  0.05515800  0.06638310  0.47992500  1
  C  2629  1  0.06126700  0.89831400  0.49608900  1
  C  2631  1  0.64790900  0.21844500  0.68277400  1
  C  2632  1  0.66440700  0.20433500  0.68924100  1
  C  2633  1  0.66407800  0.20223100  0.70234700  1
  C  2634  1  0.64776200  0.21460700  0.70996700  1
  C  2635  1  0.63077500  0.22808800  0.70327000  1
  C  2636  1  0.63088600  0.23016700  0.69012300  1
  C  2637  1  0.64605400  0.21163500  0.72428000  1
  C  2638  1  0.62272400  0.19792200  0.72555600  1
  C  2639  1  0.60184200  0.20719900  0.73096500  1
  C  2640  1  0.58116200  0.19371800  0.73230000  1
  C  2641  1  0.57982300  0.17038700  0.72780100  1
  C  2642  1  0.59984600  0.16129100  0.72167000  1
  C  2643  1  0.62053800  0.17481800  0.72050300  1
  C  2644  1  0.66698900  0.19806300  0.73014000  1
  C  2645  1  0.64631600  0.23535800  0.73141100  1
  C  2646  1  0.64233900  0.23582900  0.74450800  1
  C  2647  1  0.64195300  0.25687500  0.75149800  1
  C  2648  1  0.64617300  0.27912400  0.74595500  1
  C  2649  1  0.65140100  0.27889600  0.73304700  1
  C  2650  1  0.65173500  0.25769700  0.72608600  1
  C  2651  1  0.69043800  0.20622600  0.72850100  1
  C  2652  1  0.71012700  0.19445800  0.73358400  1
  C  2653  1  0.70772500  0.17394200  0.74099400  1
  C  2654  1  0.68446400  0.16618700  0.74323000  1
  C  2655  1  0.66483900  0.17811100  0.73813700  1
  C  2672  1  0.64534800  0.29970100  0.75334600  1
  C  2673  1  0.64942000  0.22051400  0.66973600  1
  C  2676  1  0.55974500  0.15687500  0.72999000  1
  C  2678  1  0.72785600  0.16294700  0.74599900  1
  C  2680  1  0.87605800  0.50910200  0.18277300  1
  C  2681  1  0.85955800  0.52321000  0.18924100  1
  C  2682  1  0.85988600  0.52531200  0.20234600  1
  C  2683  1  0.87620400  0.51294000  0.20996500  1
  C  2684  1  0.89319200  0.49946000  0.20327000  1
  C  2685  1  0.89308100  0.49738200  0.19012300  1
  C  2686  1  0.87791200  0.51591100  0.22427900  1
  C  2687  1  0.90124100  0.52962400  0.22555700  1
  C  2688  1  0.92212500  0.52034900  0.23096400  1
  C  2689  1  0.94280300  0.53383000  0.23229800  1
  C  2690  1  0.94413800  0.55716300  0.22780000  1
  C  2691  1  0.92411400  0.56625700  0.22167000  1
  C  2692  1  0.90342400  0.55272800  0.22050200  1
  C  2693  1  0.85697800  0.52948500  0.23014000  1
  C  2694  1  0.87764900  0.49218800  0.23140900  1
  C  2695  1  0.88163200  0.49171500  0.24450600  1
  C  2696  1  0.88201000  0.47067000  0.25149700  1
  C  2697  1  0.87778800  0.44842200  0.24595300  1
  C  2698  1  0.87256800  0.44864900  0.23304300  1
  C  2699  1  0.87223200  0.46984900  0.22608400  1
  C  2700  1  0.83352900  0.52131900  0.22850300  1
  C  2701  1  0.81383900  0.53308200  0.23358800  1
  C  2702  1  0.81624400  0.55359700  0.24099800  1
  C  2703  1  0.83950500  0.56134700  0.24324000  1
  C  2704  1  0.85912900  0.54943600  0.23813700  1
  C  2721  1  0.87862000  0.42784400  0.25334300  1
  C  2722  1  0.87454800  0.50703400  0.16973600  1
  C  2725  1  0.96421500  0.57067900  0.22999000  1
  C  2727  1  0.79612100  0.56457000  0.24602400  1
  C  2729  1  0.90733500  0.97834700  0.93285100  1
  C  2730  1  0.92160200  0.96197300  0.93930200  1
  C  2731  1  0.92371500  0.96230700  0.95240000  1
  C  2732  1  0.91116500  0.97846300  0.96004400  1
  C  2733  1  0.89757700  0.99537900  0.95335000  1
  C  2734  1  0.89549400  0.99527300  0.94020600  1
  C  2735  1  0.91406400  0.98008500  0.97436300  1
  C  2736  1  0.92770400  0.00343509  0.97570500  1
  C  2737  1  0.91840800  0.02421710  0.98120500  1
  C  2738  1  0.93184100  0.04492510  0.98257600  1
  C  2739  1  0.95514400  0.04638910  0.97803600  1
  C  2740  1  0.96425900  0.02644910  0.97184600  1
  C  2741  1  0.95079400  0.00572509  0.97065200  1
  C  2742  1  0.92772400  0.95914600  0.98017100  1
  C  2743  1  0.89033000  0.97961100  0.98148500  1
  C  2744  1  0.88980400  0.98330200  0.99461100  1
  C  2745  1  0.86881100  0.98280200  0.00164900  1
  C  2746  1  0.84666700  0.97819400  0.99608400  1
  C  2747  1  0.84689900  0.97363300  0.98311600  1
  C  2748  1  0.86806000  0.97404600  0.97612500  1
  C  2749  1  0.91980100  0.93566000  0.97836200  1
  C  2750  1  0.93199600  0.91595100  0.98312600  1
  C  2751  1  0.95263200  0.91834300  0.99045300  1
  C  2752  1  0.95990600  0.94164600  0.99302600  1
  C  2753  1  0.94763500  0.96129200  0.98818800  1
  C  2770  1  0.82625400  0.97675500  0.00354100  1
  C  2771  1  0.90522100  0.97676700  0.91981600  1
  C  2774  1  0.96862000  0.06649910  0.98023600  1
  C  2776  1  0.96468800  0.89820300  0.99476000  1
  C  2778  1  0.61660000  0.74917700  0.43284500  1
  C  2779  1  0.60232200  0.76554200  0.43929900  1
  C  2780  1  0.60022900  0.76521800  0.45240100  1
  C  2781  1  0.61280600  0.74908500  0.46004200  1
  C  2782  1  0.62638500  0.73216600  0.45335400  1
  C  2783  1  0.62845700  0.73226200  0.44020400  1
  C  2784  1  0.60990000  0.74745400  0.47436600  1
  C  2785  1  0.59625600  0.72410600  0.47570800  1
  C  2786  1  0.60555500  0.70331700  0.48120000  1
  C  2787  1  0.59212000  0.68261000  0.48257000  1
  C  2788  1  0.56881400  0.68115200  0.47803500  1
  C  2789  1  0.55969700  0.70109500  0.47184200  1
  C  2790  1  0.57316400  0.72181900  0.47064800  1
  C  2791  1  0.59623800  0.76839100  0.48016500  1
  C  2792  1  0.63363200  0.74791900  0.48148700  1
  C  2793  1  0.63415200  0.74423600  0.49461100  1
  C  2794  1  0.65514400  0.74473900  0.50165200  1
  C  2795  1  0.67728800  0.74935800  0.49609400  1
  C  2796  1  0.67705500  0.75394200  0.48312200  1
  C  2797  1  0.65590000  0.75350900  0.47612800  1
  C  2798  1  0.60416000  0.79187900  0.47835800  1
  C  2799  1  0.59196500  0.81158800  0.48312300  1
  C  2800  1  0.57133800  0.80919400  0.49045600  1
  C  2801  1  0.56407700  0.78589100  0.49303700  1
  C  2802  1  0.57634400  0.76624600  0.48819800  1
  C  2819  1  0.69769700  0.75081100  0.50355800  1
  C  2820  1  0.61870200  0.75075300  0.41981400  1
  C  2823  1  0.55533300  0.66104500  0.48023700  1
  C  2825  1  0.55930000  0.82933100  0.49477600  1
  C  2827  1  0.14775700  0.50904400  0.68280100  1
  C  2828  1  0.16431400  0.52309200  0.68926200  1
  C  2829  1  0.16400600  0.52520100  0.70236500  1
  C  2830  1  0.14766200  0.51288500  0.70999900  1
  C  2831  1  0.13060300  0.49948700  0.70330600  1
  C  2832  1  0.13068800  0.49740500  0.69015800  1
  C  2833  1  0.14599900  0.51584900  0.72431700  1
  C  2834  1  0.12266900  0.52953300  0.72565400  1
  C  2835  1  0.10191500  0.52034300  0.73123400  1
  C  2836  1  0.08124400  0.53382800  0.73261000  1
  C  2837  1  0.07977800  0.55707100  0.72798900  1
  C  2838  1  0.09967700  0.56607500  0.72171000  1
  C  2839  1  0.12036900  0.55255900  0.72051200  1
  C  2840  1  0.16694600  0.52948900  0.73012900  1
  C  2841  1  0.14638500  0.49211200  0.73144600  1
  C  2842  1  0.14283400  0.49162300  0.74458200  1
  C  2843  1  0.14331000  0.47064200  0.75163200  1
  C  2844  1  0.14775700  0.44846400  0.74607200  1
  C  2845  1  0.15218100  0.44865200  0.73308300  1
  C  2846  1  0.15178700  0.46980000  0.72608200  1
  C  2847  1  0.19039200  0.52129400  0.72851100  1
  C  2848  1  0.21009100  0.53306000  0.73358600  1
  C  2849  1  0.20769900  0.55362200  0.74095900  1
  C  2850  1  0.18444900  0.56143200  0.74316500  1
  C  2851  1  0.16481500  0.54950200  0.73808500  1
  C  2868  1  0.14917300  0.42805200  0.75353900  1
  C  2869  1  0.14928400  0.50693500  0.66976500  1
  C  2872  1  0.05972200  0.57061300  0.73020900  1
  C  2874  1  0.22781100  0.56461000  0.74598200  1
  C  2876  1  0.37618400  0.21853300  0.18280500  1
  C  2877  1  0.35962200  0.20449300  0.18926700  1
  C  2878  1  0.35994000  0.20237200  0.20237000  1
  C  2879  1  0.37631300  0.21465700  0.21000100  1
  C  2880  1  0.39336300  0.22806500  0.20330800  1
  C  2881  1  0.39326600  0.23015800  0.19016000  1
  C  2882  1  0.37796600  0.21169400  0.22432000  1
  C  2883  1  0.40129500  0.19800600  0.22565300  1
  C  2884  1  0.42204400  0.20718500  0.23124400  1
  C  2885  1  0.44271200  0.19369300  0.23261900  1
  C  2886  1  0.44417700  0.17045400  0.22799500  1
  C  2887  1  0.42427500  0.16145500  0.22171700  1
  C  2888  1  0.40359100  0.17497800  0.22051200  1
  C  2889  1  0.35701500  0.19806400  0.23013600  1
  C  2890  1  0.37758600  0.23543500  0.23144700  1
  C  2891  1  0.38113800  0.23592400  0.24458300  1
  C  2892  1  0.38065400  0.25690500  0.25163300  1
  C  2893  1  0.37620600  0.27908400  0.24607400  1
  C  2894  1  0.37178400  0.27889400  0.23308500  1
  C  2895  1  0.37218800  0.25774800  0.22608300  1
  C  2896  1  0.33357000  0.20625900  0.22851800  1
  C  2897  1  0.31387100  0.19448700  0.23358700  1
  C  2898  1  0.31626000  0.17391700  0.24095500  1
  C  2899  1  0.33951000  0.16610000  0.24315700  1
  C  2900  1  0.35914500  0.17803300  0.23807900  1
  C  2917  1  0.37474700  0.29948600  0.25354800  1
  C  2918  1  0.37464700  0.22065600  0.16977000  1
  C  2921  1  0.46423300  0.15691000  0.23021100  1
  C  2923  1  0.29614800  0.16292700  0.24597700  1
  C  2925  1  0.61657200  0.97822500  0.09115900  1
  C  2926  1  0.60224100  0.96191600  0.08469800  1
  C  2927  1  0.60015500  0.96226100  0.07159400  1
  C  2928  1  0.61278100  0.97837500  0.06396700  1
  C  2929  1  0.62644100  0.99522000  0.07066000  1
  C  2930  1  0.62851000  0.99509600  0.08380800  1
  C  2931  1  0.60985100  0.98004900  0.04964900  1
  C  2932  1  0.59617100  0.00339309  0.04837100  1
  C  2933  1  0.60554100  0.02431410  0.04305100  1
  C  2934  1  0.59210400  0.04502410  0.04172600  1
  C  2935  1  0.56872200  0.04635510  0.04615400  1
  C  2936  1  0.55952500  0.02628210  0.05219600  1
  C  2937  1  0.57300400  0.00555609  0.05334400  1
  C  2938  1  0.59625600  0.95912100  0.04380400  1
  C  2939  1  0.63356300  0.97971700  0.04251800  1
  C  2940  1  0.63405600  0.98383600  0.02943500  1
  C  2941  1  0.65510300  0.98419200  0.02244800  1
  C  2942  1  0.67733000  0.97980700  0.02798300  1
  C  2943  1  0.67707300  0.97443800  0.04087500  1
  C  2944  1  0.65586900  0.97413000  0.04783200  1
  C  2945  1  0.60414800  0.93563400  0.04562900  1
  C  2946  1  0.59195800  0.91593300  0.04084800  1
  C  2947  1  0.57137700  0.91834100  0.03347800  1
  C  2948  1  0.56416500  0.94165100  0.03087400  1
  C  2949  1  0.57642300  0.96128800  0.03573000  1
  C  2966  1  0.69791000  0.98061600  0.02059700  1
  C  2967  1  0.61864500  0.97665800  0.10419000  1
  C  2970  1  0.55524900  0.06646410  0.04397200  1
  C  2972  1  0.55933100  0.89820700  0.02915700  1
  C  2974  1  0.90737400  0.74931900  0.59116200  1
  C  2975  1  0.92170600  0.76563300  0.58470300  1
  C  2976  1  0.92379400  0.76529600  0.57160100  1
  C  2977  1  0.91117500  0.74917800  0.56397200  1
  C  2978  1  0.89751300  0.73232900  0.57066100  1
  C  2979  1  0.89544000  0.73245100  0.58380900  1
  C  2980  1  0.91410200  0.74750000  0.54965400  1
  C  2981  1  0.92778200  0.72415500  0.54837500  1
  C  2982  1  0.91841200  0.70323800  0.54305300  1
  C  2983  1  0.93184700  0.68252600  0.54172800  1
  C  2984  1  0.95522700  0.68119300  0.54615900  1
  C  2985  1  0.96442300  0.70126100  0.55220300  1
  C  2986  1  0.95094700  0.72199000  0.55335000  1
  C  2987  1  0.92770100  0.76842700  0.54380900  1
  C  2988  1  0.89039100  0.74783600  0.54252300  1
  C  2989  1  0.88990100  0.74372500  0.52943800  1
  C  2990  1  0.86884900  0.74336100  0.52245300  1
  C  2991  1  0.84662500  0.74774600  0.52798800  1
  C  2992  1  0.84688200  0.75311700  0.54088000  1
  C  2993  1  0.86808800  0.75342800  0.54783600  1
  C  2994  1  0.91981200  0.79191600  0.54563400  1
  C  2995  1  0.93200000  0.81161400  0.54084900  1
  C  2996  1  0.95258300  0.80920500  0.53348100  1
  C  2997  1  0.95979700  0.78589300  0.53088000  1
  C  2998  1  0.94753500  0.76626000  0.53573700  1
  C  3015  1  0.82604300  0.74694100  0.52060200  1
  C  3016  1  0.90528300  0.75089500  0.60419300  1
  C  3019  1  0.96869700  0.66107900  0.54397700  1
  C  3021  1  0.96463400  0.82933600  0.52916000  1
  C  3023  1  0.37605600  0.50906100  0.34121200  1
  C  3024  1  0.35955300  0.52316800  0.33474500  1
  C  3025  1  0.35988600  0.52527800  0.32164100  1
  C  3026  1  0.37620700  0.51291100  0.31402000  1
  C  3027  1  0.39319700  0.49943300  0.32071600  1
  C  3028  1  0.39308500  0.49734800  0.33386200  1
  C  3029  1  0.37791500  0.51588700  0.29970700  1
  C  3030  1  0.40124400  0.52960100  0.29843100  1
  C  3031  1  0.42212500  0.52033200  0.29301800  1
  C  3032  1  0.44280400  0.53381400  0.29168300  1
  C  3033  1  0.44414000  0.55714300  0.29618500  1
  C  3034  1  0.42412000  0.56623400  0.30232000  1
  C  3035  1  0.40342900  0.55270400  0.30348800  1
  C  3036  1  0.35698000  0.52946100  0.29384800  1
  C  3037  1  0.37765500  0.49216600  0.29257300  1
  C  3038  1  0.38162700  0.49170200  0.27947500  1
  C  3039  1  0.38201200  0.47066000  0.27248100  1
  C  3040  1  0.37779900  0.44840700  0.27802200  1
  C  3041  1  0.37257900  0.44862700  0.29093100  1
  C  3042  1  0.37224400  0.46982300  0.29789500  1
  C  3043  1  0.33353000  0.52129700  0.29548600  1
  C  3044  1  0.31384100  0.53305800  0.29039900  1
  C  3045  1  0.31624200  0.55358000  0.28299200  1
  C  3046  1  0.33950100  0.56134000  0.28075900  1
  C  3047  1  0.35912800  0.54941600  0.28585400  1
  C  3064  1  0.37862400  0.42783500  0.27062700  1
  C  3065  1  0.37453500  0.50697500  0.35424800  1
  C  3068  1  0.46421500  0.57065900  0.29399600  1
  C  3070  1  0.29611300  0.56457100  0.27798500  1
  C  3072  1  0.14789000  0.21847700  0.84121300  1
  C  3073  1  0.16439400  0.20437200  0.83474600  1
  C  3074  1  0.16406400  0.20226500  0.82164200  1
  C  3075  1  0.14774100  0.21462800  0.81402100  1
  C  3076  1  0.13074900  0.22810400  0.82071600  1
  C  3077  1  0.13086000  0.23018600  0.83386300  1
  C  3078  1  0.14603200  0.21165200  0.79970700  1
  C  3079  1  0.12270400  0.19793800  0.79843100  1
  C  3080  1  0.10182100  0.20720700  0.79302100  1
  C  3081  1  0.08114500  0.19372100  0.79168600  1
  C  3082  1  0.07981200  0.17039000  0.79618600  1
  C  3083  1  0.09983400  0.16130400  0.80231900  1
  C  3084  1  0.12052400  0.17483500  0.80348800  1
  C  3085  1  0.16696700  0.19807800  0.79384800  1
  C  3086  1  0.14629200  0.23537400  0.79257400  1
  C  3087  1  0.14231500  0.23584000  0.77947700  1
  C  3088  1  0.14193700  0.25688100  0.77248400  1
  C  3089  1  0.14615200  0.27913300  0.77802400  1
  C  3090  1  0.15136800  0.27891300  0.79093400  1
  C  3091  1  0.15170200  0.25771800  0.79789700  1
  C  3092  1  0.19041500  0.20624900  0.79548300  1
  C  3093  1  0.21010500  0.19448500  0.79039700  1
  C  3094  1  0.20770200  0.17396600  0.78299000  1
  C  3095  1  0.18444300  0.16621500  0.78075000  1
  C  3096  1  0.16481700  0.17812500  0.78585300  1
  C  3113  1  0.14531700  0.29970800  0.77063100  1
  C  3114  1  0.14941100  0.22056300  0.85424800  1
  C  3117  1  0.05973800  0.15687100  0.79399600  1
  C  3119  1  0.22782500  0.16299600  0.77796400  1
  C  3121  1  0.61364600  0.24581800  0.59109500  1
  C  3122  1  0.59945700  0.26239500  0.58473800  1
  C  3123  1  0.59887300  0.26360000  0.57160400  1
  C  3124  1  0.61261400  0.24859200  0.56388100  1
  C  3125  1  0.62656400  0.23180800  0.57044700  1
  C  3126  1  0.62733600  0.23056500  0.58361600  1
  C  3127  1  0.60991700  0.24735900  0.54954400  1
  C  3128  1  0.59642100  0.22395300  0.54806500  1
  C  3129  1  0.60619700  0.20312800  0.54285500  1
  C  3130  1  0.59305200  0.18224400  0.54146800  1
  C  3131  1  0.56953900  0.18064300  0.54568400  1
  C  3132  1  0.55991000  0.20066900  0.55158200  1
  C  3133  1  0.57310800  0.22155700  0.55281400  1
  C  3134  1  0.59624700  0.26834900  0.54382600  1
  C  3135  1  0.63364800  0.24808400  0.54244400  1
  C  3136  1  0.63425100  0.24420000  0.52933800  1
  C  3137  1  0.65526200  0.24480700  0.52232200  1
  C  3138  1  0.67732600  0.24974300  0.52789000  1
  C  3139  1  0.67699600  0.25454300  0.54084100  1
  C  3140  1  0.65581200  0.25401200  0.54781200  1
  C  3141  1  0.60382100  0.29184300  0.54597200  1
  C  3142  1  0.59194400  0.31156300  0.54099300  1
  C  3143  1  0.57193100  0.30915500  0.53320500  1
  C  3144  1  0.56478200  0.28588100  0.53049200  1
  C  3145  1  0.57681200  0.26622400  0.53548200  1
  C  3162  1  0.69773700  0.25131700  0.52044000  1
  C  3163  1  0.61207900  0.24391300  0.60412700  1
  C  3166  1  0.55643600  0.16027600  0.54346900  1
  C  3168  1  0.56087800  0.32932000  0.52827800  1
  C  3170  1  0.91032900  0.48175600  0.09109600  1
  C  3171  1  0.92453300  0.46519100  0.08473900  1
  C  3172  1  0.92508700  0.46395800  0.07160500  1
  C  3173  1  0.91132300  0.47894000  0.06387900  1
  C  3174  1  0.89738000  0.49572800  0.07044700  1
  C  3175  1  0.89660900  0.49698000  0.08361700  1
  C  3176  1  0.91403400  0.48018700  0.04954400  1
  C  3177  1  0.92753200  0.50359100  0.04806700  1
  C  3178  1  0.91775200  0.52442400  0.04286900  1
  C  3179  1  0.93089700  0.54530900  0.04148300  1
  C  3180  1  0.95441600  0.54690400  0.04569500  1
  C  3181  1  0.96404500  0.52687400  0.05158800  1
  C  3182  1  0.95084500  0.50598500  0.05281700  1
  C  3183  1  0.92771000  0.45919900  0.04383000  1
  C  3184  1  0.89030700  0.47947000  0.04244100  1
  C  3185  1  0.88971100  0.48335500  0.02933600  1
  C  3186  1  0.86870200  0.48274500  0.02231600  1
  C  3187  1  0.84663500  0.47779500  0.02787900  1
  C  3188  1  0.84696600  0.47296600  0.04082700  1
  C  3189  1  0.86814400  0.47351500  0.04780300  1
  C  3190  1  0.92013700  0.43570300  0.04597300  1
  C  3191  1  0.93200500  0.41598500  0.04098700  1
  C  3192  1  0.95200800  0.41839800  0.03319200  1
  C  3193  1  0.95914600  0.44167300  0.03047500  1
  C  3194  1  0.94712700  0.46132600  0.03547400  1
  C  3211  1  0.82623100  0.47620900  0.02042400  1
  C  3212  1  0.91191200  0.48368200  0.10412600  1
  C  3215  1  0.96752200  0.56726800  0.04347600  1
  C  3217  1  0.96303300  0.39824600  0.02824000  1
  C  3219  1  0.38041800  0.71530200  0.84105100  1
  C  3220  1  0.36404800  0.70087500  0.83469700  1
  C  3221  1  0.36279000  0.70034900  0.82156600  1
  C  3222  1  0.37752100  0.71437700  0.81383700  1
  C  3223  1  0.39416100  0.72850200  0.82040300  1
  C  3224  1  0.39543500  0.72925300  0.83357200  1
  C  3225  1  0.37872300  0.71172600  0.79949600  1
  C  3226  1  0.40214200  0.69826300  0.79800900  1
  C  3227  1  0.42301500  0.70815600  0.79291700  1
  C  3228  1  0.44393600  0.69506200  0.79154200  1
  C  3229  1  0.44552500  0.67148700  0.79566300  1
  C  3230  1  0.42543700  0.66173100  0.80144300  1
  C  3231  1  0.40451800  0.67488000  0.80266300  1
  C  3232  1  0.35774000  0.69803300  0.79380000  1
  C  3233  1  0.37792900  0.73544800  0.79240200  1
  C  3234  1  0.38196400  0.73608800  0.77931000  1
  C  3235  1  0.38131400  0.75710800  0.77230200  1
  C  3236  1  0.37616200  0.77912800  0.77786300  1
  C  3237  1  0.37117800  0.77874300  0.79079400  1
  C  3238  1  0.37176400  0.75755400  0.79775800  1
  C  3239  1  0.33422300  0.70529200  0.79615500  1
  C  3240  1  0.31451700  0.69296900  0.79147600  1
  C  3241  1  0.31692800  0.67291300  0.78370800  1
  C  3242  1  0.34021900  0.66637700  0.78060400  1
  C  3243  1  0.35986700  0.67876000  0.78535500  1
  C  3260  1  0.37451200  0.79953900  0.77042000  1
  C  3261  1  0.38238300  0.71369300  0.85407700  1
  C  3264  1  0.46592900  0.65843300  0.79345600  1
  C  3266  1  0.29680800  0.66074100  0.77947100  1
  C  3268  1  0.14355000  0.01222410  0.34104700  1
  C  3269  1  0.15992500  0.02664310  0.33469000  1
  C  3270  1  0.16117300  0.02717410  0.32155800  1
  C  3271  1  0.14641000  0.01316510  0.31383400  1
  C  3272  1  0.12978600  0.99903000  0.32040100  1
  C  3273  1  0.12852100  0.99828300  0.33357100  1
  C  3274  1  0.14522500  0.01581410  0.29949300  1
  C  3275  1  0.12180700  0.02928310  0.29800800  1
  C  3276  1  0.10093900  0.01940110  0.29290500  1
  C  3277  1  0.08002000  0.03249810  0.29152900  1
  C  3278  1  0.07843300  0.05607410  0.29565400  1
  C  3279  1  0.09852200  0.06582410  0.30143300  1
  C  3280  1  0.11943600  0.05266810  0.30266000  1
  C  3281  1  0.16621000  0.02950110  0.29379300  1
  C  3282  1  0.14601200  0.99209300  0.29240000  1
  C  3283  1  0.14197900  0.99144900  0.27930900  1
  C  3284  1  0.14263600  0.97043100  0.27230000  1
  C  3285  1  0.14779200  0.94840900  0.27785900  1
  C  3286  1  0.15277300  0.94879600  0.29079200  1
  C  3287  1  0.15217400  0.96998500  0.29775700  1
  C  3288  1  0.18972700  0.02224210  0.29614700  1
  C  3289  1  0.20943500  0.03457610  0.29147600  1
  C  3290  1  0.20702500  0.05463710  0.28371200  1
  C  3291  1  0.18373300  0.06117810  0.28061100  1
  C  3292  1  0.16408400  0.04879010  0.28535900  1
  C  3309  1  0.14949400  0.92801200  0.27040900  1
  C  3310  1  0.14159000  0.01383710  0.35407300  1
  C  3313  1  0.05803100  0.06912910  0.29344700  1
  C  3315  1  0.22714600  0.06681910  0.27948200  1
  C  3317  1  0.91035000  0.24595400  0.43280900  1
  C  3318  1  0.92464200  0.26242800  0.43917700  1
  C  3319  1  0.92519800  0.26363100  0.45231200  1
  C  3320  1  0.91135600  0.24869400  0.46002200  1
  C  3321  1  0.89731600  0.23200400  0.45344400  1
  C  3322  1  0.89654800  0.23078300  0.44027600  1
  C  3323  1  0.91409500  0.24740100  0.47435100  1
  C  3324  1  0.92763200  0.22399800  0.47575800  1
  C  3325  1  0.91777500  0.20303200  0.48076400  1
  C  3326  1  0.93091800  0.18213900  0.48210100  1
  C  3327  1  0.95451800  0.18067300  0.47801200  1
  C  3328  1  0.96423600  0.20083800  0.47229100  1
  C  3329  1  0.95102800  0.22173300  0.47110900  1
  C  3330  1  0.92770300  0.26838100  0.48011100  1
  C  3331  1  0.89039700  0.24797300  0.48147100  1
  C  3332  1  0.88984300  0.24363000  0.49453100  1
  C  3333  1  0.86877400  0.24333800  0.50149700  1
  C  3334  1  0.84660900  0.24803500  0.49596700  1
  C  3335  1  0.84695700  0.25368400  0.48310600  1
  C  3336  1  0.86818600  0.25392200  0.47616600  1
  C  3337  1  0.92017400  0.29187900  0.47794200  1
  C  3338  1  0.93204000  0.31158800  0.48294000  1
  C  3339  1  0.95198900  0.30916200  0.49077400  1
  C  3340  1  0.95906000  0.28587900  0.49352600  1
  C  3341  1  0.94704400  0.26623500  0.48851400  1
  C  3358  1  0.82601500  0.24724000  0.50334000  1
  C  3359  1  0.91192800  0.24404400  0.41977800  1
  C  3362  1  0.96760800  0.16029800  0.48020700  1
  C  3364  1  0.96303100  0.32932300  0.49571000  1
  C  3366  1  0.61364500  0.48157800  0.93280400  1
  C  3367  1  0.59933700  0.46511100  0.93917100  1
  C  3368  1  0.59878100  0.46389100  0.95230600  1
  C  3369  1  0.61260300  0.47883800  0.96001600  1
  C  3370  1  0.62664000  0.49554100  0.95344400  1
  C  3371  1  0.62742600  0.49675900  0.94028100  1
  C  3372  1  0.60986800  0.48013600  0.97434400  1
  C  3373  1  0.59633300  0.50353900  0.97575200  1
  C  3374  1  0.60618700  0.52450100  0.98076700  1
  C  3375  1  0.59304500  0.54539500  0.98211000  1
  C  3376  1  0.56945100  0.54686700  0.97800800  1
  C  3377  1  0.55973800  0.52670900  0.97228400  1
  C  3378  1  0.57294200  0.50581200  0.97110000  1
  C  3379  1  0.59625700  0.45915800  0.98010500  1
  C  3380  1  0.63356800  0.47955900  0.98146600  1
  C  3381  1  0.63412100  0.48388500  0.99452700  1
  C  3382  1  0.65519100  0.48418600  0.00149100  1
  C  3383  1  0.67735400  0.47949500  0.99596200  1
  C  3384  1  0.67700800  0.47385200  0.98309800  1
  C  3385  1  0.65577900  0.47361600  0.97616200  1
  C  3386  1  0.60378900  0.43565800  0.97794300  1
  C  3387  1  0.59192900  0.41595100  0.98294900  1
  C  3388  1  0.57198400  0.41837900  0.99077900  1
  C  3389  1  0.56489700  0.44166200  0.99352000  1
  C  3390  1  0.57690900  0.46130500  0.98850500  1
  C  3407  1  0.69795000  0.48028800  0.00333600  1
  C  3408  1  0.61204400  0.48352600  0.91977800  1
  C  3411  1  0.55636600  0.56724700  0.98020800  1
  C  3413  1  0.56094600  0.39822300  0.99572000  1
  C  3415  1  0.14370300  0.71526700  0.18286200  1
  C  3416  1  0.15999100  0.70075900  0.18922500  1
  C  3417  1  0.16122100  0.70022300  0.20235700  1
  C  3418  1  0.14653900  0.71432600  0.21007100  1
  C  3419  1  0.12999800  0.72855300  0.20350000  1
  C  3420  1  0.12875300  0.72930700  0.19033100  1
  C  3421  1  0.14527900  0.71164900  0.22440500  1
  C  3422  1  0.12186300  0.69814700  0.22582200  1
  C  3423  1  0.10085800  0.70811500  0.23072000  1
  C  3424  1  0.07992900  0.69502300  0.23204900  1
  C  3425  1  0.07847400  0.67136000  0.22806300  1
  C  3426  1  0.09868800  0.66152400  0.22244900  1
  C  3427  1  0.11960900  0.67468600  0.22126500  1
  C  3428  1  0.16625400  0.69802200  0.23014800  1
  C  3429  1  0.14592400  0.73534100  0.23152100  1
  C  3430  1  0.14143800  0.73592800  0.24456700  1
  C  3431  1  0.14115400  0.75701100  0.25152000  1
  C  3432  1  0.14603100  0.77914000  0.24599600  1
  C  3433  1  0.15185400  0.77874500  0.23315700  1
  C  3434  1  0.15206700  0.75750300  0.22622700  1
  C  3435  1  0.18977300  0.70524600  0.22777700  1
  C  3436  1  0.20946800  0.69291800  0.23246600  1
  C  3437  1  0.20704200  0.67291800  0.24027500  1
  C  3438  1  0.18374500  0.66644000  0.24340300  1
  C  3439  1  0.16410800  0.67881800  0.23863400  1
  C  3456  1  0.14526300  0.79974500  0.25336000  1
  C  3457  1  0.14173000  0.71366100  0.16983700  1
  C  3460  1  0.05804700  0.65833500  0.23023500  1
  C  3462  1  0.22716000  0.66073100  0.24451100  1
  C  3464  1  0.38024400  0.01228610  0.68286200  1
  C  3465  1  0.36396300  0.02679710  0.68922700  1
  C  3466  1  0.36273700  0.02733210  0.70236000  1
  C  3467  1  0.37742300  0.01322910  0.71007200  1
  C  3468  1  0.39396800  0.99900900  0.70349900  1
  C  3469  1  0.39520400  0.99825300  0.69032900  1
  C  3470  1  0.37868200  0.01590210  0.72440700  1
  C  3471  1  0.40210100  0.02940110  0.72582400  1
  C  3472  1  0.42310500  0.01943110  0.73072100  1
  C  3473  1  0.44403700  0.03251910  0.73204800  1
  C  3474  1  0.44549100  0.05618410  0.72806300  1
  C  3475  1  0.42527700  0.06602410  0.72245100  1
  C  3476  1  0.40435400  0.05286210  0.72126700  1
  C  3477  1  0.35771000  0.02952710  0.73015000  1
  C  3478  1  0.37803800  0.99220900  0.73152000  1
  C  3479  1  0.38252700  0.99161800  0.74456500  1
  C  3480  1  0.38280000  0.97053500  0.75151900  1
  C  3481  1  0.37792600  0.94840700  0.74599300  1
  C  3482  1  0.37211400  0.94880300  0.73315300  1
  C  3483  1  0.37190000  0.97004400  0.72622400  1
  C  3484  1  0.33419100  0.02229810  0.72778100  1
  C  3485  1  0.31449400  0.03462510  0.73247100  1
  C  3486  1  0.31692000  0.05462610  0.74027800  1
  C  3487  1  0.34021500  0.06110610  0.74340700  1
  C  3488  1  0.35985400  0.04873310  0.73863500  1
  C  3505  1  0.37870500  0.92779900  0.75335500  1
  C  3506  1  0.38220000  0.01388110  0.66983500  1
  C  3509  1  0.46592000  0.06920610  0.73023300  1
  C  3511  1  0.29680200  0.06680710  0.74452000  1
  C  3513  1  0.41040300  0.48193000  0.43290200  1
  C  3514  1  0.42481300  0.46552500  0.43924400  1
  C  3515  1  0.42538800  0.46426900  0.45237500  1
  C  3516  1  0.41140400  0.47901900  0.46011500  1
  C  3517  1  0.39727100  0.49567200  0.45356500  1
  C  3518  1  0.39650600  0.49696900  0.44039600  1
  C  3519  1  0.41405900  0.48017800  0.47445900  1
  C  3520  1  0.42753200  0.50359100  0.47595300  1
  C  3521  1  0.41766400  0.52445400  0.48107000  1
  C  3522  1  0.43077400  0.54536500  0.48245400  1
  C  3523  1  0.45434600  0.54694700  0.47832600  1
  C  3524  1  0.46407600  0.52687100  0.47252400  1
  C  3525  1  0.45091400  0.50596100  0.47129500  1
  C  3526  1  0.42775400  0.45918700  0.48015100  1
  C  3527  1  0.39033700  0.47937600  0.48155400  1
  C  3528  1  0.38969300  0.48339900  0.49464700  1
  C  3529  1  0.36866800  0.48276500  0.50165200  1
  C  3530  1  0.34664300  0.47765000  0.49608800  1
  C  3531  1  0.34702600  0.47269100  0.48315300  1
  C  3532  1  0.36822000  0.47325500  0.47619200  1
  C  3533  1  0.42051200  0.43566900  0.47778500  1
  C  3534  1  0.43285300  0.41596000  0.48245000  1
  C  3535  1  0.45291100  0.41836400  0.49021800  1
  C  3536  1  0.45943600  0.44165600  0.49332900  1
  C  3537  1  0.44703700  0.46130600  0.48859000  1
  C  3554  1  0.32622800  0.47603000  0.50353000  1
  C  3555  1  0.41197200  0.48390100  0.41987300  1
  C  3558  1  0.46741000  0.56734400  0.48053300  1
  C  3560  1  0.46514400  0.39824300  0.49441500  1
  C  3562  1  0.11353400  0.24557900  0.93289700  1
  C  3563  1  0.09910900  0.26197100  0.93924600  1
  C  3564  1  0.09856400  0.26325700  0.95237200  1
  C  3565  1  0.11257200  0.24853400  0.96011800  1
  C  3566  1  0.12669900  0.23187700  0.95356500  1
  C  3567  1  0.12746200  0.23057200  0.94039200  1
  C  3568  1  0.10990400  0.24736300  0.97445600  1
  C  3569  1  0.09642600  0.22395300  0.97594800  1
  C  3570  1  0.10630000  0.20308100  0.98105600  1
  C  3571  1  0.09319100  0.18216900  0.98243600  1
  C  3572  1  0.06961400  0.18059200  0.97831500  1
  C  3573  1  0.05988200  0.20067500  0.97251700  1
  C  3574  1  0.07304600  0.22158300  0.97129600  1
  C  3575  1  0.09620400  0.26835300  0.98014300  1
  C  3576  1  0.13362300  0.24815600  0.98156000  1
  C  3577  1  0.13426100  0.24413200  0.99464800  1
  C  3578  1  0.15528000  0.24477000  0.00165800  1
  C  3579  1  0.17730700  0.24989700  0.99610200  1
  C  3580  1  0.17692500  0.25488400  0.98317200  1
  C  3581  1  0.15573700  0.25430500  0.97619900  1
  C  3582  1  0.10344600  0.29187200  0.97778400  1
  C  3583  1  0.09110300  0.31157900  0.98244500  1
  C  3584  1  0.07105700  0.30917300  0.99022000  1
  C  3585  1  0.06454700  0.28588200  0.99334300  1
  C  3586  1  0.07694300  0.26623300  0.98859800  1
  C  3603  1  0.19771500  0.25153000  0.00355100  1
  C  3604  1  0.11195000  0.24358600  0.91987400  1
  C  3607  1  0.05654600  0.16019900  0.98052500  1
  C  3609  1  0.05883900  0.32929400  0.99443400  1
  C  3611  1  0.64352800  0.01224010  0.18287700  1
  C  3612  1  0.65990000  0.02666210  0.18923300  1
  C  3613  1  0.66116000  0.02717910  0.20236400  1
  C  3614  1  0.64642700  0.01314810  0.21009100  1
  C  3615  1  0.62978700  0.99902900  0.20352300  1
  C  3616  1  0.62851900  0.99827800  0.19035200  1
  C  3617  1  0.64522000  0.01579910  0.22443200  1
  C  3618  1  0.62180300  0.02926510  0.22591800  1
  C  3619  1  0.60092900  0.01937610  0.23101000  1
  C  3620  1  0.58000800  0.03247010  0.23238500  1
  C  3621  1  0.57842300  0.05604710  0.22826300  1
  C  3622  1  0.59851100  0.06579710  0.22248200  1
  C  3623  1  0.61943000  0.05264710  0.22126300  1
  C  3624  1  0.66620300  0.02949210  0.23012800  1
  C  3625  1  0.64601000  0.99208100  0.23152800  1
  C  3626  1  0.64197800  0.99144400  0.24462000  1
  C  3627  1  0.64262900  0.97042800  0.25163000  1
  C  3628  1  0.64777600  0.94840400  0.24607300  1
  C  3629  1  0.65275500  0.94878200  0.23314000  1
  C  3630  1  0.65216800  0.96996900  0.22617400  1
  C  3631  1  0.68972200  0.02223110  0.22777600  1
  C  3632  1  0.70942700  0.03455410  0.23245400  1
  C  3633  1  0.70701600  0.05461010  0.24022100  1
  C  3634  1  0.68372500  0.06115010  0.24332300  1
  C  3635  1  0.66407800  0.04876710  0.23857200  1
  C  3652  1  0.64943100  0.92799800  0.25352000  1
  C  3653  1  0.64155800  0.01386710  0.16985100  1
  C  3656  1  0.55802100  0.06910210  0.23047100  1
  C  3658  1  0.72713800  0.06678410  0.24445900  1
  C  3660  1  0.88041500  0.71531600  0.68288100  1
  C  3661  1  0.86404000  0.70090300  0.68924000  1
  C  3662  1  0.86279100  0.70038300  0.70237200  1
  C  3663  1  0.87755600  0.71439300  0.71009300  1
  C  3664  1  0.89418000  0.72852300  0.70352400  1
  C  3665  1  0.89544500  0.72926300  0.69035400  1
  C  3666  1  0.87874500  0.71174400  0.72443600  1
  C  3667  1  0.90216200  0.69827400  0.72591900  1
  C  3668  1  0.92303100  0.70815400  0.73102200  1
  C  3669  1  0.94394800  0.69505500  0.73239900  1
  C  3670  1  0.94553300  0.67148000  0.72827400  1
  C  3671  1  0.92544400  0.66173100  0.72249500  1
  C  3672  1  0.90453200  0.67489000  0.72126700  1
  C  3673  1  0.85775900  0.69805900  0.73013600  1
  C  3674  1  0.87796300  0.73546500  0.73153000  1
  C  3675  1  0.88199200  0.73610400  0.74462100  1
  C  3676  1  0.88133400  0.75712000  0.75163200  1
  C  3677  1  0.87618200  0.77914400  0.74607500  1
  C  3678  1  0.87120800  0.77876400  0.73314300  1
  C  3679  1  0.87180600  0.75757700  0.72617500  1
  C  3680  1  0.83424200  0.70532200  0.72778300  1
  C  3681  1  0.81453600  0.69298800  0.73245400  1
  C  3682  1  0.81694400  0.67292500  0.74021700  1
  C  3683  1  0.84023600  0.66638000  0.74331700  1
  C  3684  1  0.85988600  0.67876900  0.73856900  1
  C  3701  1  0.87447800  0.79953700  0.75353100  1
  C  3702  1  0.88237400  0.71369100  0.66985500  1
  C  3705  1  0.96593400  0.65842300  0.73048100  1
  C  3707  1  0.79682300  0.66074100  0.74444600  1
  C  3709  1  0.11352000  0.48180700  0.59110800  1
  C  3710  1  0.09900300  0.46551100  0.58475600  1
  C  3711  1  0.09845600  0.46425300  0.57162300  1
  C  3712  1  0.11254700  0.47892300  0.56389500  1
  C  3713  1  0.12677500  0.49547800  0.57045600  1
  C  3714  1  0.12753700  0.49675300  0.58362500  1
  C  3715  1  0.10984500  0.48014100  0.54956000  1
  C  3716  1  0.09632700  0.50354800  0.54814000  1
  C  3717  1  0.10627700  0.52455600  0.54323400  1
  C  3718  1  0.09316800  0.54547400  0.54190100  1
  C  3719  1  0.06950800  0.54691800  0.54589600  1
  C  3720  1  0.05968700  0.52670000  0.55151300  1
  C  3721  1  0.07286100  0.50578500  0.55269200  1
  C  3722  1  0.09621600  0.45915700  0.54382700  1
  C  3723  1  0.13353400  0.47949600  0.54244200  1
  C  3724  1  0.13412300  0.48399000  0.52939700  1
  C  3725  1  0.15520500  0.48427300  0.52244200  1
  C  3726  1  0.17733700  0.47940100  0.52796500  1
  C  3727  1  0.17694300  0.47358100  0.54080400  1
  C  3728  1  0.15570200  0.47336000  0.54773500  1
  C  3729  1  0.10341100  0.43563700  0.54622100  1
  C  3730  1  0.09106900  0.41593900  0.54154200  1
  C  3731  1  0.07108600  0.41835800  0.53372100  1
  C  3732  1  0.06464500  0.44165400  0.53056600  1
  C  3733  1  0.07703400  0.46129400  0.53532600  1
  C  3750  1  0.19794500  0.48019200  0.52060200  1
  C  3751  1  0.11194000  0.48378900  0.60413600  1
  C  3754  1  0.05645700  0.56732200  0.54371000  1
  C  3756  1  0.05885800  0.39824300  0.52951100  1
  C  3758  1  0.41039800  0.24574800  0.09111000  1
  C  3759  1  0.42493200  0.26203600  0.08476100  1
  C  3760  1  0.42547900  0.26331100  0.07162900  1
  C  3761  1  0.41140600  0.24863100  0.06389900  1
  C  3762  1  0.39718300  0.23206300  0.07045300  1
  C  3763  1  0.39640400  0.23079000  0.08362200  1
  C  3764  1  0.41410400  0.24740700  0.04956300  1
  C  3765  1  0.42762200  0.22400000  0.04814100  1
  C  3766  1  0.41767300  0.20299600  0.04322800  1
  C  3767  1  0.43078100  0.18207700  0.04189500  1
  C  3768  1  0.45443700  0.18062800  0.04589600  1
  C  3769  1  0.46425400  0.20083800  0.05152100  1
  C  3770  1  0.45108300  0.22175600  0.05269900  1
  C  3771  1  0.42773800  0.26838900  0.04383100  1
  C  3772  1  0.39041500  0.24805600  0.04244500  1
  C  3773  1  0.38982700  0.24357900  0.02939800  1
  C  3774  1  0.36874400  0.24328700  0.02244500  1
  C  3775  1  0.34661100  0.24815300  0.02797000  1
  C  3776  1  0.34700700  0.25396800  0.04080900  1
  C  3777  1  0.36824600  0.25418800  0.04773900  1
  C  3778  1  0.42053900  0.29191000  0.04621900  1
  C  3779  1  0.43288600  0.31160700  0.04154300  1
  C  3780  1  0.45287400  0.30918500  0.03372600  1
  C  3781  1  0.45931700  0.28588900  0.03057400  1
  C  3782  1  0.44692500  0.26625100  0.03533300  1
  C  3799  1  0.32600300  0.24736600  0.02060600  1
  C  3800  1  0.41200200  0.24372900  0.10413500  1
  C  3803  1  0.46748400  0.16021800  0.04371300  1
  C  3805  1  0.46511200  0.32929900  0.02951900  1
  C  3807  1  0.88026500  0.01227410  0.84112600  1
  C  3808  1  0.86397500  0.02677510  0.83475900  1
  C  3809  1  0.86274800  0.02730610  0.82162800  1
  C  3810  1  0.87743100  0.01320110  0.81391500  1
  C  3811  1  0.89397100  0.99897600  0.82048900  1
  C  3812  1  0.89522500  0.99824100  0.83365800  1
  C  3813  1  0.87869300  0.01587610  0.79958100  1
  C  3814  1  0.90210800  0.02938010  0.79816500  1
  C  3815  1  0.92311300  0.01941310  0.79326600  1
  C  3816  1  0.94404200  0.03250710  0.79193600  1
  C  3817  1  0.94549400  0.05617010  0.79592300  1
  C  3818  1  0.92528000  0.06600510  0.80153800  1
  C  3819  1  0.90436100  0.05284110  0.80272300  1
  C  3820  1  0.85771900  0.02950310  0.79383800  1
  C  3821  1  0.87805000  0.99218600  0.79246400  1
  C  3822  1  0.88253200  0.99160400  0.77941700  1
  C  3823  1  0.88281700  0.97052500  0.77246100  1
  C  3824  1  0.87794500  0.94839200  0.77798400  1
  C  3825  1  0.87213000  0.94878000  0.79082300  1
  C  3826  1  0.87191500  0.97001800  0.79775600  1
  C  3827  1  0.83419800  0.02227910  0.79621000  1
  C  3828  1  0.81450300  0.03459710  0.79151400  1
  C  3829  1  0.81692600  0.05460010  0.78370900  1
  C  3830  1  0.84022400  0.06108510  0.78058500  1
  C  3831  1  0.85986300  0.04871110  0.78535400  1
  C  3848  1  0.87871400  0.92779100  0.77061500  1
  C  3849  1  0.88223300  0.01388710  0.85415200  1
  C  3852  1  0.96592000  0.06919710  0.79375100  1
  C  3854  1  0.79680900  0.06678410  0.77946900  1
  C  3856  1  0.64370000  0.71525800  0.34112600  1
  C  3857  1  0.65998300  0.70075400  0.33475700  1
  C  3858  1  0.66120900  0.70022600  0.32162500  1
  C  3859  1  0.64652200  0.71433100  0.31391500  1
  C  3860  1  0.62997700  0.72854700  0.32049000  1
  C  3861  1  0.62874000  0.72929500  0.33366100  1
  C  3862  1  0.64525900  0.71166000  0.29958000  1
  C  3863  1  0.62184100  0.69815800  0.29816300  1
  C  3864  1  0.60083600  0.70812600  0.29326500  1
  C  3865  1  0.57990800  0.69503400  0.29193800  1
  C  3866  1  0.57845500  0.67136900  0.29592300  1
  C  3867  1  0.59867100  0.66153300  0.30153600  1
  C  3868  1  0.61959000  0.67469700  0.30272100  1
  C  3869  1  0.66623200  0.69803500  0.29383600  1
  C  3870  1  0.64589900  0.73535100  0.29246500  1
  C  3871  1  0.64141300  0.73593900  0.27941900  1
  C  3872  1  0.64113700  0.75701600  0.27246300  1
  C  3873  1  0.64601000  0.77914900  0.27798600  1
  C  3874  1  0.65181200  0.77875900  0.29082800  1
  C  3875  1  0.65202900  0.75751900  0.29776000  1
  C  3876  1  0.68975200  0.70526700  0.29620300  1
  C  3877  1  0.70944700  0.69294200  0.29151400  1
  C  3878  1  0.70702300  0.67293800  0.28370800  1
  C  3879  1  0.68372700  0.66645600  0.28058000  1
  C  3880  1  0.66408700  0.67882800  0.28535200  1
  C  3897  1  0.64523000  0.79975200  0.27062000  1
  C  3898  1  0.64174600  0.71365200  0.35415300  1
  C  3901  1  0.55802800  0.65834400  0.29375300  1
  C  3903  1  0.72714000  0.66075900  0.27946600  1
  C  3905  1  0.12680800  0.73287400  0.12395600  1
  C  3907  1  0.12653900  0.75202400  0.14400200  1
  C  3908  1  0.13190500  0.73077800  0.15015800  1
  C  3910  1  0.13200900  0.71141700  0.13006800  1
  C  3917  1  0.39715800  0.99468200  0.62395700  1
  C  3919  1  0.39746600  0.97553900  0.64400400  1
  C  3920  1  0.39206100  0.99677700  0.65015900  1
  C  3922  1  0.39192000  0.01613310  0.63006700  1
  C  3929  1  0.89272600  0.22873900  0.37392000  1
  C  3931  1  0.87367900  0.22826200  0.39399200  1
  C  3932  1  0.89488700  0.23390100  0.40011900  1
  C  3934  1  0.91414800  0.23420400  0.38000100  1
  C  3941  1  0.63125400  0.49879500  0.87391700  1
  C  3943  1  0.65032400  0.49917700  0.89398300  1
  C  3944  1  0.62910200  0.49361400  0.90011600  1
  C  3946  1  0.60981500  0.49340700  0.88000600  1
  C  3953  1  0.39720600  0.73297500  0.89996200  1
  C  3955  1  0.39763200  0.75205900  0.87990100  1
  C  3956  1  0.39217700  0.73082300  0.87375800  1
  C  3958  1  0.39190600  0.71152400  0.89386500  1
  C  3965  1  0.12676200  0.99456400  0.39995900  1
  C  3967  1  0.12637100  0.97546700  0.37990100  1
  C  3968  1  0.13180000  0.99671000  0.37375500  1
  C  3970  1  0.13203200  0.01601810  0.39385900  1
  C  3977  1  0.63135400  0.22871100  0.64998900  1
  C  3979  1  0.65034700  0.22813200  0.62990400  1
  C  3980  1  0.62913900  0.23381000  0.62378700  1
  C  3982  1  0.60993000  0.23422300  0.64391800  1
  C  3989  1  0.89262000  0.49884900  0.14998900  1
  C  3991  1  0.87362100  0.49939100  0.12990600  1
  C  3992  1  0.89483600  0.49374300  0.12378800  1
  C  3994  1  0.91405100  0.49336700  0.14391700  1
  C  4001  1  0.89716900  0.99475300  0.90003900  1
  C  4003  1  0.89749800  0.97558200  0.87999900  1
  C  4004  1  0.89208400  0.99680900  0.87383500  1
  C  4006  1  0.89192000  0.01619110  0.89392000  1
  C  4013  1  0.62677900  0.73277400  0.40003900  1
  C  4015  1  0.62641800  0.75194000  0.37999700  1
  C  4016  1  0.63186800  0.73072000  0.37383500  1
  C  4018  1  0.63206100  0.71134100  0.39392100  1
  C  4025  1  0.13122200  0.49885900  0.65000400  1
  C  4027  1  0.15031300  0.49915200  0.62994200  1
  C  4028  1  0.12906800  0.49370800  0.62380300  1
  C  4030  1  0.10976300  0.49358100  0.64391000  1
  C  4037  1  0.39271300  0.22869500  0.15000600  1
  C  4039  1  0.37359700  0.22849400  0.12995000  1
  C  4040  1  0.39485800  0.23386400  0.12380500  1
  C  4042  1  0.41418500  0.23389600  0.14390600  1
  C  4049  1  0.62674200  0.99466300  0.12395700  1
  C  4051  1  0.62627600  0.97555000  0.14401000  1
  C  4052  1  0.63176000  0.99677000  0.15016300  1
  C  4054  1  0.63207300  0.01609410  0.13006300  1
  C  4061  1  0.89720600  0.73288700  0.62396000  1
  C  4063  1  0.89764400  0.75200700  0.64401200  1
  C  4064  1  0.89217800  0.73078300  0.65016600  1
  C  4066  1  0.89189900  0.71145000  0.63006800  1
  C  4073  1  0.39262000  0.49887800  0.37400200  1
  C  4075  1  0.37358500  0.49929400  0.39407700  1
  C  4076  1  0.39482800  0.49379300  0.40020500  1
  C  4078  1  0.41407600  0.49353500  0.38008300  1
  C  4085  1  0.13132000  0.22864700  0.87400100  1
  C  4087  1  0.15036100  0.22827100  0.89407600  1
  C  4088  1  0.12911100  0.23374000  0.90020400  1
  C  4090  1  0.10985600  0.23395800  0.88008400  1
  C  4097  1  0.02691700  0.63358800  0.05138500  1
  C  4099  1  0.00570600  0.60460400  0.03957600  1
  C  4100  1  0.99677400  0.59435200  0.05060700  1
  C  4102  1  0.01803600  0.62344600  0.06247000  1
  C  4109  1  0.49705700  0.09394410  0.55138300  1
  C  4111  1  0.51824400  0.12294600  0.53957300  1
  C  4112  1  0.52718600  0.13318800  0.55060400  1
  C  4114  1  0.50595400  0.10407600  0.56246700  1
  C  4121  1  0.99180300  0.12864300  0.30133500  1
  C  4123  1  0.02068400  0.10730700  0.28951800  1
  C  4124  1  0.03102000  0.09847910  0.30055000  1
  C  4126  1  0.00203100  0.11986400  0.31242100  1
  C  4133  1  0.53216600  0.59892600  0.80133500  1
  C  4135  1  0.50326800  0.62025100  0.78952200  1
  C  4136  1  0.49293900  0.62908100  0.80055600  1
  C  4138  1  0.52194800  0.60771200  0.81242200  1
  C  4145  1  0.49706800  0.63360700  0.97230300  1
  C  4147  1  0.51822300  0.60458100  0.98410500  1
  C  4148  1  0.52711400  0.59430300  0.97307600  1
  C  4150  1  0.50590500  0.62343700  0.96120900  1
  C  4157  1  0.02688300  0.09392110  0.47229800  1
  C  4159  1  0.00574600  0.12296200  0.48410500  1
  C  4160  1  0.99684900  0.13323400  0.47307200  1
  C  4162  1  0.01803300  0.10408500  0.46121200  1
  C  4169  1  0.53217300  0.12864100  0.72235700  1
  C  4171  1  0.50325000  0.10735600  0.73417100  1
  C  4172  1  0.49288300  0.09857510  0.72313700  1
  C  4174  1  0.52190900  0.11991200  0.71126900  1
  C  4181  1  0.99178000  0.59892000  0.22235700  1
  C  4183  1  0.02071700  0.62018600  0.23417100  1
  C  4184  1  0.03107800  0.62897400  0.22313600  1
  C  4186  1  0.00203100  0.60766100  0.21126900  1
  C  4193  1  0.99702300  0.09397410  0.97264700  1
  C  4195  1  0.01828300  0.12292800  0.98445900  1
  C  4196  1  0.02720300  0.13318100  0.97342100  1
  C  4198  1  0.00589700  0.10411800  0.96156300  1
  C  4205  1  0.52691700  0.63358100  0.47265200  1
  C  4207  1  0.50568300  0.60460700  0.48445700  1
  C  4208  1  0.49674900  0.59436300  0.47342500  1
  C  4210  1  0.51802600  0.62344900  0.46156600  1
  C  4217  1  0.03215500  0.59889800  0.72259400  1
  C  4219  1  0.00327600  0.62023900  0.73441100  1
  C  4220  1  0.99294100  0.62906700  0.72337900  1
  C  4222  1  0.02192600  0.60767700  0.71150800  1
  C  4229  1  0.49179100  0.12861900  0.22259200  1
  C  4231  1  0.52068500  0.10728900  0.23440500  1
  C  4232  1  0.53101400  0.09845910  0.22337200  1
  C  4234  1  0.50200800  0.11983300  0.21150500  1
  C  4241  1  0.52691200  0.09395610  0.05158300  1
  C  4243  1  0.50570600  0.12295100  0.03977900  1
  C  4244  1  0.49682800  0.13323200  0.05081400  1
  C  4246  1  0.51808200  0.10413000  0.06267200  1
  C  4253  1  0.99705300  0.63360200  0.55158500  1
  C  4255  1  0.01823900  0.60459300  0.53978100  1
  C  4256  1  0.02712300  0.59431600  0.55081600  1
  C  4258  1  0.00589400  0.62343700  0.56267300  1
  C  4265  1  0.49178500  0.59889800  0.30162800  1
  C  4267  1  0.52070100  0.62018800  0.28981400  1
  C  4268  1  0.53106800  0.62897100  0.30084800  1
  C  4270  1  0.50204500  0.60762900  0.31271600  1
  C  4277  1  0.03217700  0.12862400  0.80162800  1
  C  4279  1  0.00324500  0.10735300  0.78981500  1
  C  4280  1  0.99288400  0.09856510  0.80084900  1
  C  4282  1  0.02192600  0.11988400  0.81271600  1
  C  4289  1  0.02729100  0.84732900  0.01785200  1
  C  4291  1  0.99618400  0.85695200  0.00340200  1
  C  4292  1  0.99669400  0.88096200  0.00684200  1
  C  4294  1  0.02779900  0.87137200  0.02146100  1
  C  4301  1  0.49665400  0.88020500  0.51784800  1
  C  4303  1  0.52777600  0.87058900  0.50340200  1
  C  4304  1  0.52726700  0.84657700  0.50684100  1
  C  4306  1  0.49615600  0.85616400  0.52146100  1
  C  4313  1  0.77805200  0.12909000  0.26777800  1
  C  4315  1  0.76832800  0.09837510  0.25311200  1
  C  4316  1  0.74441800  0.09849510  0.25675700  1
  C  4318  1  0.75412100  0.12920300  0.27159700  1
  C  4325  1  0.74590700  0.59844900  0.76777700  1
  C  4327  1  0.75563400  0.62915900  0.75310700  1
  C  4328  1  0.77954100  0.62904600  0.75675600  1
  C  4330  1  0.76983500  0.59835100  0.77160200  1
  C  4337  1  0.49664500  0.84732700  0.00611400  1
  C  4339  1  0.52779800  0.85695400  0.02054200  1
  C  4340  1  0.52727800  0.88096700  0.01710400  1
  C  4342  1  0.49612700  0.87137200  0.00250700  1
  C  4349  1  0.02731800  0.88021100  0.50612000  1
  C  4351  1  0.99618100  0.87058200  0.52055200  1
  C  4352  1  0.99668000  0.84657400  0.51710400  1
  C  4354  1  0.02781100  0.85617400  0.50249700  1
  C  4361  1  0.74588700  0.12912300  0.75617500  1
  C  4363  1  0.75562300  0.09837710  0.77082300  1
  C  4364  1  0.77953300  0.09850510  0.76717700  1
  C  4366  1  0.76982100  0.12924800  0.75235800  1
  C  4373  1  0.77806400  0.59841000  0.25617900  1
  C  4375  1  0.76833300  0.62917100  0.27081900  1
  C  4376  1  0.74442000  0.62903200  0.26717800  1
  C  4378  1  0.75413100  0.59828600  0.25236100  1
  C  4385  1  0.24589400  0.59843300  0.75614900  1
  C  4387  1  0.25561600  0.62915200  0.77081500  1
  C  4388  1  0.27952800  0.62903000  0.76717200  1
  C  4390  1  0.26982900  0.59832100  0.75233200  1
  C  4397  1  0.27805900  0.12911300  0.25615100  1
  C  4399  1  0.26833700  0.09839610  0.27081700  1
  C  4400  1  0.24442700  0.09851610  0.26717200  1
  C  4402  1  0.25412800  0.12921800  0.25232900  1
  C  4409  1  0.27808000  0.59839600  0.26781000  1
  C  4411  1  0.26834600  0.62914300  0.25316200  1
  C  4412  1  0.24443600  0.62901300  0.25680600  1
  C  4414  1  0.25414600  0.59827100  0.27162600  1
  C  4421  1  0.24588000  0.12915300  0.76780800  1
  C  4423  1  0.25561100  0.09839310  0.75316900  1
  C  4424  1  0.27952400  0.09853310  0.75680800  1
  C  4426  1  0.26981500  0.12928000  0.77162500  1
  C  4433  1  0.52727200  0.34731200  0.51786700  1
  C  4435  1  0.49690400  0.35713400  0.50301200  1
  C  4436  1  0.49669100  0.38095000  0.50682500  1
  C  4438  1  0.52704900  0.37114900  0.52185000  1
  C  4445  1  0.99667300  0.38022100  0.01786200  1
  C  4447  1  0.02705400  0.37040500  0.00301000  1
  C  4448  1  0.02726700  0.34659100  0.00682300  1
  C  4450  1  0.99690900  0.35638900  0.02185100  1
  C  4457  1  0.99666600  0.34730400  0.50610200  1
  C  4459  1  0.02705100  0.35714200  0.52094600  1
  C  4460  1  0.02727600  0.38094800  0.51712000  1
  C  4462  1  0.99690500  0.37113200  0.50210400  1
  C  4469  1  0.52729900  0.38022800  0.00610500  1
  C  4471  1  0.49692900  0.37039100  0.02095600  1
  C  4472  1  0.49668100  0.34658900  0.01711900  1
  C  4474  1  0.52703200  0.35640800  0.00209600  1
  C  4481  1  0.24014600  0.74832700  0.01830300  1
  C  4483  1  0.26266300  0.75380300  0.99944900  1
  C  4484  1  0.28404600  0.74925200  0.00568600  1
  C  4486  1  0.26152100  0.74367300  0.02464100  1
  C  4493  1  0.28381800  0.97920300  0.51829700  1
  C  4495  1  0.26130100  0.97375400  0.49943500  1
  C  4496  1  0.23991600  0.97828300  0.50567600  1
  C  4498  1  0.26244300  0.98384200  0.52463700  1
  C  4505  1  0.87709900  0.34191800  0.26828300  1
  C  4507  1  0.87157800  0.36445900  0.24943600  1
  C  4508  1  0.87616700  0.38583400  0.25567400  1
  C  4510  1  0.88179500  0.36328200  0.27462200  1
  C  4517  1  0.64685700  0.38563100  0.76828500  1
  C  4519  1  0.65234200  0.36308900  0.74943400  1
  C  4520  1  0.64778400  0.34171200  0.75567700  1
  C  4522  1  0.64218900  0.36426500  0.77462800  1
  C  4529  1  0.78382300  0.97906100  0.00565800  1
  C  4531  1  0.76128700  0.97354300  0.02450700  1
  C  4532  1  0.73991200  0.97813400  0.01826800  1
  C  4534  1  0.76245800  0.98375700  0.99931800  1
  C  4541  1  0.74012700  0.74849400  0.50566600  1
  C  4543  1  0.76266400  0.75398700  0.52451600  1
  C  4544  1  0.78403900  0.74941400  0.51827500  1
  C  4546  1  0.76149300  0.74381500  0.49932500  1
  C  4553  1  0.14684300  0.38562100  0.75566800  1
  C  4555  1  0.15236700  0.36309600  0.77452100  1
  C  4556  1  0.14777500  0.34171500  0.76828900  1
  C  4558  1  0.14214400  0.36425100  0.74933500  1
  C  4565  1  0.37711300  0.34191600  0.25566700  1
  C  4567  1  0.37162700  0.36444200  0.27452300  1
  C  4568  1  0.37618600  0.38582400  0.26828500  1
  C  4570  1  0.38178300  0.36328700  0.24932900  1
  C  4577  1  0.74014100  0.24883900  0.51830600  1
  C  4579  1  0.76266200  0.25453400  0.49946600  1
  C  4580  1  0.78403000  0.24978300  0.50567700  1
  C  4582  1  0.76149600  0.24397100  0.52461500  1
  C  4589  1  0.78382800  0.47869300  0.01829600  1
  C  4591  1  0.76130400  0.47303600  0.99945800  1
  C  4592  1  0.73993700  0.47775600  0.00566700  1
  C  4594  1  0.76247100  0.48353200  0.02461000  1
  C  4601  1  0.37704300  0.84193000  0.76829700  1
  C  4603  1  0.37130700  0.86447000  0.74946800  1
  C  4604  1  0.37610500  0.88582500  0.75567800  1
  C  4606  1  0.38195600  0.86327400  0.77460600  1
  C  4613  1  0.14691300  0.88562300  0.26829800  1
  C  4615  1  0.15260900  0.86308000  0.24946700  1
  C  4616  1  0.14784500  0.84172300  0.25568300  1
  C  4618  1  0.14203100  0.86427600  0.27461300  1
  C  4625  1  0.28382700  0.47854300  0.50565600  1
  C  4627  1  0.26128200  0.47277900  0.52448200  1
  C  4628  1  0.23992600  0.47759400  0.51827400  1
  C  4630  1  0.26248300  0.48347500  0.49935000  1
  C  4637  1  0.24011600  0.24901100  0.00566700  1
  C  4639  1  0.26266300  0.25473500  0.02449400  1
  C  4640  1  0.28402000  0.24995200  0.01828100  1
  C  4642  1  0.26146300  0.24410900  0.99935600  1
  C  4649  1  0.64689600  0.88560900  0.25565500  1
  C  4651  1  0.65263400  0.86308700  0.27448900  1
  C  4652  1  0.64783400  0.84172400  0.26828500  1
  C  4654  1  0.64198000  0.86425900  0.24935100  1
  C  4661  1  0.87706200  0.84192500  0.75565200  1
  C  4663  1  0.87136300  0.86445000  0.77449100  1
  C  4664  1  0.87613000  0.88581500  0.76828100  1
  C  4666  1  0.88194700  0.86327700  0.74934500  1
  N  1570  1  0.12430000  0.40045100  0.13135900  1
  N  1573  1  0.13430800  0.35961500  0.14277000  1
  N  1576  1  0.13458900  0.33868200  0.12318300  1
  N  1579  1  0.12447500  0.38193800  0.11147200  1
  N  1580  1  0.13430400  0.37848200  0.16262500  1
  N  1582  1  0.39970200  0.62352700  0.63136100  1
  N  1585  1  0.38962300  0.66434900  0.64276900  1
  N  1588  1  0.38930300  0.68527500  0.62318100  1
  N  1591  1  0.39948500  0.64203100  0.61147300  1
  N  1592  1  0.38966300  0.64548900  0.66262500  1
  N  1594  1  0.87342400  0.87421200  0.38135000  1
  N  1597  1  0.91419200  0.88473100  0.39270300  1
  N  1600  1  0.93502500  0.88522900  0.37308800  1
  N  1603  1  0.89183400  0.87459600  0.36143500  1
  N  1604  1  0.89542200  0.88452200  0.41258500  1
  N  1606  1  0.65057400  0.14965100  0.88134200  1
  N  1609  1  0.60978000  0.13928100  0.89270600  1
  N  1612  1  0.58892100  0.13888600  0.87309800  1
  N  1615  1  0.63214000  0.14935900  0.86143400  1
  N  1616  1  0.62857500  0.13939400  0.91258100  1
  N  1618  1  0.39983600  0.40051400  0.89254500  1
  N  1621  1  0.38964400  0.35969600  0.88116100  1
  N  1624  1  0.38918900  0.33882800  0.90076700  1
  N  1627  1  0.39951200  0.38206600  0.91244500  1
  N  1628  1  0.38980100  0.37851300  0.86128900  1
  N  1630  1  0.12416200  0.62343000  0.39254400  1
  N  1633  1  0.13429900  0.66425900  0.38115600  1
  N  1636  1  0.13471400  0.68513600  0.40075900  1
  N  1639  1  0.12445000  0.64188800  0.41244200  1
  N  1640  1  0.13417200  0.64543100  0.36128700  1
  N  1642  1  0.65062900  0.87411200  0.64254700  1
  N  1645  1  0.60986100  0.88471700  0.63121400  1
  N  1648  1  0.58908100  0.88532700  0.65084700  1
  N  1651  1  0.63227000  0.87458700  0.66247300  1
  N  1652  1  0.62859100  0.88440400  0.61131900  1
  N  1654  1  0.87334000  0.14982700  0.14254900  1
  N  1657  1  0.91412000  0.13928400  0.13121400  1
  N  1660  1  0.93490600  0.13871200  0.15084400  1
  N  1663  1  0.89170200  0.14938900  0.16247200  1
  N  1664  1  0.89538300  0.13955700  0.11132100  1
  N  1666  1  0.89973000  0.62358800  0.89264300  1
  N  1669  1  0.88962800  0.66438700  0.88121800  1
  N  1672  1  0.88928700  0.68534000  0.90079800  1
  N  1675  1  0.89950100  0.64212800  0.91252400  1
  N  1676  1  0.88969000  0.64550100  0.86136800  1
  N  1678  1  0.62419000  0.40034700  0.39264100  1
  N  1681  1  0.63435100  0.35956100  0.38121800  1
  N  1684  1  0.63472600  0.33861300  0.40079900  1
  N  1687  1  0.62445200  0.38181300  0.41252300  1
  N  1688  1  0.63426200  0.37844100  0.36136700  1
  N  1690  1  0.15056200  0.14962000  0.64258300  1
  N  1693  1  0.10972700  0.13946600  0.63120800  1
  N  1696  1  0.08884900  0.13915600  0.65081100  1
  N  1699  1  0.13210800  0.14941400  0.66248800  1
  N  1700  1  0.12854100  0.13949100  0.61133700  1
  N  1702  1  0.37335400  0.87443100  0.14259100  1
  N  1705  1  0.41421500  0.88443700  0.13120500  1
  N  1708  1  0.43511900  0.88464700  0.15080200  1
  N  1711  1  0.39183200  0.87454700  0.16249000  1
  N  1712  1  0.39537800  0.88450800  0.11134000  1
  N  1714  1  0.62407500  0.62353000  0.13136700  1
  N  1717  1  0.63432800  0.66431700  0.14276800  1
  N  1720  1  0.63482600  0.68520800  0.12316800  1
  N  1723  1  0.62443600  0.64201000  0.11147300  1
  N  1724  1  0.63413300  0.64547300  0.16263200  1
  N  1726  1  0.89984600  0.40043900  0.63136800  1
  N  1729  1  0.88963900  0.35964500  0.64277300  1
  N  1732  1  0.88917600  0.33874300  0.62317500  1
  N  1735  1  0.89951700  0.38195000  0.61147600  1
  N  1736  1  0.88980900  0.37849400  0.66263500  1
  N  1738  1  0.37330900  0.14973000  0.38143400  1
  N  1741  1  0.41413900  0.13945500  0.39278600  1
  N  1744  1  0.43495900  0.13901000  0.37316500  1
  N  1747  1  0.39170700  0.14941300  0.36151700  1
  N  1748  1  0.39537000  0.13960400  0.41267300  1
  N  1750  1  0.15063700  0.87424600  0.88143300  1
  N  1753  1  0.10979300  0.88445700  0.89278700  1
  N  1756  1  0.08896700  0.88485900  0.87316700  1
  N  1759  1  0.13223300  0.87452400  0.86151800  1
  N  1760  1  0.12856900  0.88434800  0.91267200  1
  N  1762  1  0.02023900  0.27176500  0.04039100  1
  N  1765  1  0.00362600  0.25248900  0.06154400  1
  N  1768  1  0.02420300  0.28098600  0.07418800  1
  N  1771  1  0.04094700  0.30067000  0.05189600  1
  N  1772  1  0.98292000  0.22358900  0.05118400  1
  N  1774  1  0.50371100  0.75219700  0.54038900  1
  N  1777  1  0.52035800  0.77145000  0.56154000  1
  N  1780  1  0.49980800  0.74293400  0.57418500  1
  N  1783  1  0.48302600  0.72327600  0.55189400  1
  N  1784  1  0.54104700  0.80036200  0.55118100  1
  N  1786  1  0.00174100  0.77006200  0.29033600  1
  N  1789  1  0.02118300  0.75364800  0.31149000  1
  N  1792  1  0.99279300  0.77435400  0.32414300  1
  N  1795  1  0.97293100  0.79088500  0.30185000  1
  N  1796  1  0.04999900  0.73284300  0.30111900  1
  N  1798  1  0.52221200  0.25390800  0.79033900  1
  N  1801  1  0.50279100  0.27033700  0.81149400  1
  N  1804  1  0.53119900  0.24964600  0.82414400  1
  N  1807  1  0.55103300  0.23309100  0.80184900  1
  N  1808  1  0.47396200  0.29113300  0.80112700  1
  N  1810  1  0.50373400  0.27177600  0.98329300  1
  N  1813  1  0.52027200  0.25244800  0.96214100  1
  N  1816  1  0.49973800  0.28098200  0.94950000  1
  N  1819  1  0.48307500  0.30071600  0.97179900  1
  N  1820  1  0.54094000  0.22352000  0.97249800  1
  N  1822  1  0.02023300  0.75217900  0.48329100  1
  N  1825  1  0.00367200  0.77149100  0.46213600  1
  N  1828  1  0.02418300  0.74294100  0.44949500  1
  N  1831  1  0.04088100  0.72323200  0.47179300  1
  N  1832  1  0.98302700  0.80043400  0.47250000  1
  N  1834  1  0.52223000  0.77006600  0.73335400  1
  N  1837  1  0.50272400  0.75373900  0.71219700  1
  N  1840  1  0.53114700  0.77440700  0.69954700  1
  N  1843  1  0.55106800  0.79085000  0.72184700  1
  N  1844  1  0.47388100  0.73297500  0.72257200  1
  N  1846  1  0.00173900  0.25389200  0.23335400  1
  N  1849  1  0.02122200  0.27024000  0.21219700  1
  N  1852  1  0.99277900  0.24959700  0.19954900  1
  N  1855  1  0.97288700  0.23312400  0.22184800  1
  N  1856  1  0.05008200  0.29098900  0.22257100  1
  N  1858  1  0.00373000  0.75219300  0.98363800  1
  N  1861  1  0.02032100  0.77147700  0.96248600  1
  N  1864  1  0.99970400  0.74300600  0.94984500  1
  N  1867  1  0.98299400  0.72330600  0.97214400  1
  N  1868  1  0.04105500  0.80036200  0.97284300  1
  N  1870  1  0.52023700  0.27175800  0.48364500  1
  N  1873  1  0.50360600  0.25250100  0.46249000  1
  N  1876  1  0.52419300  0.28099300  0.44984800  1
  N  1879  1  0.54094800  0.30066200  0.47214300  1
  N  1880  1  0.48289200  0.22360100  0.47285100  1
  N  1882  1  0.02221900  0.25389400  0.73359200  1
  N  1885  1  0.00277700  0.27031100  0.71243800  1
  N  1888  1  0.03116200  0.24959900  0.69978500  1
  N  1891  1  0.05102400  0.23306600  0.72207700  1
  N  1892  1  0.97396300  0.29112100  0.72280900  1
  N  1894  1  0.50174300  0.77004800  0.23358900  1
  N  1897  1  0.52116200  0.75361800  0.21243300  1
  N  1900  1  0.49275800  0.77431400  0.19978400  1
  N  1903  1  0.47292600  0.79087100  0.22207900  1
  N  1904  1  0.54999000  0.73281800  0.22280000  1
  N  1906  1  0.52021200  0.75218100  0.04059000  1
  N  1909  1  0.50370100  0.77152200  0.06175000  1
  N  1912  1  0.52427700  0.74301500  0.07438800  1
  N  1915  1  0.54090400  0.72326000  0.05208500  1
  N  1916  1  0.48300500  0.80043100  0.05138700  1
  N  1918  1  0.00373200  0.27177600  0.54059200  1
  N  1921  1  0.02026900  0.25245400  0.56175100  1
  N  1924  1  0.99971600  0.28097900  0.57438900  1
  N  1927  1  0.98305400  0.30070600  0.55208800  1
  N  1928  1  0.04094200  0.22352600  0.55138700  1
  N  1930  1  0.50172700  0.25388900  0.29063100  1
  N  1933  1  0.52122900  0.27021900  0.31178800  1
  N  1936  1  0.49280900  0.24954600  0.32443800  1
  N  1939  1  0.47289200  0.23310000  0.30213800  1
  N  1940  1  0.55006900  0.29098900  0.30141400  1
  N  1942  1  0.02222100  0.77006400  0.79063000  1
  N  1945  1  0.00273800  0.75371500  0.81178800  1
  N  1948  1  0.03117600  0.77436500  0.82443700  1
  N  1951  1  0.05106800  0.79083900  0.80213700  1
  N  1952  1  0.97388200  0.73296100  0.80141400  1
  N  1954  1  0.01117200  0.48967500  0.00898600  1
  N  1957  1  0.01264600  0.53497700  0.01578500  1
  N  1960  1  0.04301000  0.52753500  0.03091800  1
  N  1963  1  0.04048100  0.47788300  0.02253700  1
  N  1964  1  0.98308500  0.54646800  0.00215200  1
  N  1966  1  0.51278000  0.53427500  0.50898100  1
  N  1969  1  0.51131500  0.48897600  0.51578700  1
  N  1972  1  0.48095200  0.49641500  0.53092100  1
  N  1975  1  0.48346400  0.54606500  0.52253100  1
  N  1976  1  0.54088700  0.47748900  0.50215700  1
  N  1978  1  0.78381600  0.76154700  0.25870600  1
  N  1981  1  0.73871800  0.76227700  0.26590700  1
  N  1984  1  0.74630100  0.79219900  0.28127100  1
  N  1987  1  0.79570300  0.79051900  0.27243900  1
  N  1988  1  0.72713300  0.73303800  0.25209200  1
  N  1990  1  0.74014600  0.26239900  0.75870200  1
  N  1993  1  0.78523900  0.26168800  0.76591100  1
  N  1996  1  0.77765200  0.23177700  0.78128100  1
  N  1999  1  0.72825400  0.23343900  0.77244200  1
  N  2000  1  0.79682700  0.29091500  0.75208900  1
  N  2002  1  0.51279400  0.48967600  0.01497300  1
  N  2005  1  0.51129600  0.53497700  0.00817500  1
  N  2008  1  0.48089000  0.52753300  0.99306300  1
  N  2011  1  0.48343900  0.47788100  0.00144400  1
  N  2012  1  0.54090300  0.54647300  0.02178500  1
  N  2014  1  0.01118700  0.53427300  0.51498400  1
  N  2017  1  0.01264200  0.48898200  0.50816100  1
  N  2020  1  0.04302600  0.49643400  0.49304000  1
  N  2023  1  0.04052300  0.54607200  0.50144400  1
  N  2024  1  0.98305500  0.47748300  0.52178500  1
  N  2026  1  0.74013200  0.76155800  0.76523800  1
  N  2029  1  0.78523000  0.76231200  0.75803700  1
  N  2032  1  0.77763800  0.79227300  0.74269500  1
  N  2035  1  0.72823600  0.79056300  0.75151700  1
  N  2036  1  0.79682500  0.73304800  0.77184000  1
  N  2038  1  0.78382500  0.26239900  0.26523600  1
  N  2041  1  0.73872300  0.26163500  0.25804000  1
  N  2044  1  0.74631500  0.23167000  0.24270000  1
  N  2047  1  0.79571900  0.23339200  0.25151900  1
  N  2048  1  0.72713000  0.29090500  0.27184000  1
  N  2050  1  0.24013000  0.26239200  0.76522100  1
  N  2053  1  0.28523000  0.26166000  0.75802200  1
  N  2056  1  0.27764900  0.23173700  0.74265900  1
  N  2059  1  0.22824500  0.23341800  0.75148700  1
  N  2060  1  0.29681300  0.29090100  0.77183700  1
  N  2062  1  0.28382300  0.76157000  0.26522300  1
  N  2065  1  0.23872500  0.76229300  0.25802000  1
  N  2068  1  0.24631000  0.79221100  0.24265400  1
  N  2071  1  0.29571200  0.79053500  0.25148500  1
  N  2072  1  0.22714000  0.73306100  0.27184000  1
  N  2074  1  0.28383700  0.26237400  0.25874700  1
  N  2077  1  0.23873900  0.26162000  0.26594600  1
  N  2080  1  0.24632900  0.23165700  0.28128800  1
  N  2083  1  0.29573100  0.23337100  0.27246800  1
  N  2084  1  0.22714600  0.29088500  0.25214300  1
  N  2086  1  0.24012000  0.76157900  0.75875200  1
  N  2089  1  0.28522300  0.76234600  0.76594600  1
  N  2092  1  0.27763300  0.79231200  0.78128500  1
  N  2095  1  0.22822700  0.79058800  0.77246900  1
  N  2096  1  0.29681500  0.73307300  0.75214600  1
  N  2098  1  0.51184800  0.98985000  0.50862200  1
  N  2101  1  0.51194700  0.03476500  0.51614200  1
  N  2104  1  0.54148300  0.02707600  0.53169500  1
  N  2107  1  0.54052600  0.97787200  0.52251500  1
  N  2108  1  0.48302000  0.04644100  0.50216000  1
  N  2110  1  0.01210200  0.03410100  0.00862200  1
  N  2113  1  0.01201500  0.98918900  0.01614400  1
  N  2116  1  0.98248200  0.99687600  0.03169900  1
  N  2119  1  0.98342000  0.04607700  0.02250800  1
  N  2120  1  0.04094800  0.97751600  0.00217100  1
  N  2122  1  0.01209400  0.98985200  0.51534800  1
  N  2125  1  0.01201900  0.03475200  0.50780100  1
  N  2128  1  0.98247100  0.02704600  0.49225500  1
  N  2131  1  0.98339700  0.97786100  0.50146300  1
  N  2132  1  0.04096400  0.04644100  0.52177300  1
  N  2134  1  0.51188900  0.03409100  0.01535800  1
  N  2137  1  0.51191700  0.98920500  0.00779200  1
  N  2140  1  0.54144100  0.99691400  0.99223400  1
  N  2143  1  0.54056900  0.04608500  0.00146300  1
  N  2144  1  0.48299200  0.97751100  0.02177400  1
  N  2146  1  0.24196300  0.40141200  0.00587200  1
  N  2149  1  0.28221000  0.39255700  0.01809100  1
  N  2152  1  0.26142600  0.38656100  0.03746500  1
  N  2155  1  0.21936900  0.39620100  0.02441900  1
  N  2156  1  0.30469800  0.39801100  0.99946800  1
  N  2158  1  0.28200100  0.62255400  0.50586600  1
  N  2161  1  0.24175400  0.63137500  0.51808800  1
  N  2164  1  0.26253600  0.63734300  0.53746500  1
  N  2167  1  0.30459800  0.62773900  0.52441100  1
  N  2168  1  0.21926400  0.62594200  0.49946100  1
  N  2170  1  0.87217700  0.99195900  0.25586100  1
  N  2173  1  0.88111300  0.03218500  0.26807900  1
  N  2176  1  0.88715800  0.01137600  0.28744100  1
  N  2179  1  0.87742800  0.96933900  0.27439300  1
  N  2180  1  0.87560700  0.05470100  0.24946500  1
  N  2182  1  0.65174700  0.03200300  0.75585800  1
  N  2185  1  0.64286800  0.99177500  0.76808500  1
  N  2188  1  0.63686300  0.01258300  0.78745000  1
  N  2191  1  0.64653400  0.05462800  0.77439200  1
  N  2192  1  0.64834000  0.96926000  0.74946700  1
  N  2194  1  0.78199200  0.62234800  0.01808100  1
  N  2197  1  0.74176600  0.63128500  0.00586300  1
  N  2200  1  0.76256900  0.63732900  0.98650000  1
  N  2203  1  0.80460700  0.62760200  0.99955200  1
  N  2204  1  0.71925300  0.62579200  0.02447800  1
  N  2206  1  0.74195900  0.40160000  0.51809100  1
  N  2209  1  0.78218700  0.39269800  0.50586800  1
  N  2212  1  0.76138200  0.38668000  0.48650300  1
  N  2215  1  0.71934100  0.39637000  0.49955800  1
  N  2216  1  0.80470000  0.39816800  0.52448400  1
  N  2218  1  0.15176700  0.03200400  0.76809100  1
  N  2221  1  0.14282700  0.99176800  0.75588300  1
  N  2224  1  0.13677700  0.01255900  0.73651600  1
  N  2227  1  0.14651400  0.05460800  0.74955200  1
  N  2228  1  0.14833500  0.96926700  0.77450300  1
  N  2230  1  0.37222200  0.99194700  0.26809300  1
  N  2233  1  0.38110400  0.03218600  0.25587700  1
  N  2236  1  0.38711300  0.01139600  0.23650700  1
  N  2239  1  0.37743700  0.96933900  0.24955300  1
  N  2240  1  0.37563000  0.05468700  0.27450100  1
  N  2242  1  0.74196800  0.90212900  0.50590000  1
  N  2245  1  0.78218000  0.89287700  0.51806300  1
  N  2248  1  0.76138500  0.88663100  0.53741200  1
  N  2251  1  0.71936600  0.89670800  0.52442400  1
  N  2252  1  0.80468100  0.89854900  0.49946000  1
  N  2254  1  0.78200000  0.12184900  0.00589100  1
  N  2257  1  0.74178700  0.13104500  0.01805900  1
  N  2260  1  0.76258200  0.13724900  0.03741200  1
  N  2263  1  0.80460500  0.12723200  0.02441300  1
  N  2264  1  0.71928500  0.12540700  0.99945800  1
  N  2266  1  0.37191700  0.49197700  0.75589700  1
  N  2269  1  0.38125900  0.53216800  0.76805800  1
  N  2272  1  0.38754600  0.51135600  0.78739800  1
  N  2275  1  0.37737900  0.46936000  0.77441000  1
  N  2276  1  0.37555500  0.55468800  0.74946700  1
  N  2278  1  0.15200500  0.53198700  0.25589500  1
  N  2281  1  0.14272300  0.49179400  0.26806700  1
  N  2284  1  0.13648200  0.51260600  0.28741000  1
  N  2287  1  0.14658400  0.55461200  0.27440800  1
  N  2288  1  0.14838900  0.46927400  0.24947000  1
  N  2290  1  0.28198300  0.12160200  0.51805300  1
  N  2293  1  0.24179400  0.13097900  0.50589600  1
  N  2296  1  0.26261200  0.13729900  0.48656100  1
  N  2299  1  0.30460700  0.12709100  0.49954300  1
  N  2300  1  0.21926900  0.12524200  0.52448500  1
  N  2302  1  0.24196100  0.90233300  0.01806500  1
  N  2305  1  0.28215200  0.89301400  0.00590000  1
  N  2308  1  0.26133600  0.88673600  0.98655600  1
  N  2311  1  0.21933400  0.89688400  0.99955200  1
  N  2312  1  0.30467900  0.89871500  0.02449200  1
  N  2314  1  0.65202400  0.53198700  0.26805400  1
  N  2317  1  0.64267600  0.49178400  0.25590400  1
  N  2320  1  0.63638800  0.51257800  0.23655900  1
  N  2323  1  0.64655800  0.55458700  0.24953500  1
  N  2324  1  0.64838200  0.46928100  0.27450300  1
  N  2326  1  0.87196800  0.49196300  0.76805600  1
  N  2329  1  0.88125400  0.53216800  0.75589600  1
  N  2332  1  0.88749800  0.51137500  0.73654700  1
  N  2335  1  0.87739100  0.46935500  0.74953700  1
  N  2336  1  0.87558600  0.55467200  0.77449900  1
  N  3906  1  0.12430000  0.75224400  0.13135900  1
  N  3909  1  0.13430800  0.71140800  0.14277000  1
  N  3912  1  0.13458900  0.69047500  0.12318300  1
  N  3915  1  0.12447500  0.73373100  0.11147200  1
  N  3916  1  0.13430400  0.73027500  0.16262500  1
  N  3918  1  0.39970200  0.97532000  0.63136100  1
  N  3921  1  0.38962300  0.01614210  0.64276900  1
  N  3924  1  0.38930300  0.03706810  0.62318100  1
  N  3927  1  0.39948500  0.99382400  0.61147300  1
  N  3928  1  0.38966300  0.99728200  0.66262500  1
  N  3930  1  0.87342400  0.22600500  0.38135000  1
  N  3933  1  0.91419200  0.23652400  0.39270300  1
  N  3936  1  0.93502500  0.23702200  0.37308800  1
  N  3939  1  0.89183400  0.22638900  0.36143500  1
  N  3940  1  0.89542200  0.23631500  0.41258500  1
  N  3942  1  0.65057400  0.50144400  0.88134200  1
  N  3945  1  0.60978000  0.49107400  0.89270600  1
  N  3948  1  0.58892100  0.49067900  0.87309800  1
  N  3951  1  0.63214000  0.50115200  0.86143400  1
  N  3952  1  0.62857500  0.49118700  0.91258100  1
  N  3954  1  0.39983600  0.75230700  0.89254500  1
  N  3957  1  0.38964400  0.71148900  0.88116100  1
  N  3960  1  0.38918900  0.69062100  0.90076700  1
  N  3963  1  0.39951200  0.73385900  0.91244500  1
  N  3964  1  0.38980100  0.73030600  0.86128900  1
  N  3966  1  0.12416200  0.97522300  0.39254400  1
  N  3969  1  0.13429900  0.01605210  0.38115600  1
  N  3972  1  0.13471400  0.03692910  0.40075900  1
  N  3975  1  0.12445000  0.99368100  0.41244200  1
  N  3976  1  0.13417200  0.99722400  0.36128700  1
  N  3978  1  0.65062900  0.22590500  0.64254700  1
  N  3981  1  0.60986100  0.23651000  0.63121400  1
  N  3984  1  0.58908100  0.23712000  0.65084700  1
  N  3987  1  0.63227000  0.22638000  0.66247300  1
  N  3988  1  0.62859100  0.23619700  0.61131900  1
  N  3990  1  0.87334000  0.50162000  0.14254900  1
  N  3993  1  0.91412000  0.49107700  0.13121400  1
  N  3996  1  0.93490600  0.49050500  0.15084400  1
  N  3999  1  0.89170200  0.50118200  0.16247200  1
  N  4000  1  0.89538300  0.49135000  0.11132100  1
  N  4002  1  0.89973000  0.97538100  0.89264300  1
  N  4005  1  0.88962800  0.01618010  0.88121800  1
  N  4008  1  0.88928700  0.03713310  0.90079800  1
  N  4011  1  0.89950100  0.99392100  0.91252400  1
  N  4012  1  0.88969000  0.99729400  0.86136800  1
  N  4014  1  0.62419000  0.75214000  0.39264100  1
  N  4017  1  0.63435100  0.71135400  0.38121800  1
  N  4020  1  0.63472600  0.69040600  0.40079900  1
  N  4023  1  0.62445200  0.73360600  0.41252300  1
  N  4024  1  0.63426200  0.73023400  0.36136700  1
  N  4026  1  0.15056200  0.50141300  0.64258300  1
  N  4029  1  0.10972700  0.49125900  0.63120800  1
  N  4032  1  0.08884900  0.49094900  0.65081100  1
  N  4035  1  0.13210800  0.50120700  0.66248800  1
  N  4036  1  0.12854100  0.49128400  0.61133700  1
  N  4038  1  0.37335400  0.22622400  0.14259100  1
  N  4041  1  0.41421500  0.23623000  0.13120500  1
  N  4044  1  0.43511900  0.23644000  0.15080200  1
  N  4047  1  0.39183200  0.22634000  0.16249000  1
  N  4048  1  0.39537800  0.23630100  0.11134000  1
  N  4050  1  0.62407500  0.97532300  0.13136700  1
  N  4053  1  0.63432800  0.01611010  0.14276800  1
  N  4056  1  0.63482600  0.03700110  0.12316800  1
  N  4059  1  0.62443600  0.99380300  0.11147300  1
  N  4060  1  0.63413300  0.99726600  0.16263200  1
  N  4062  1  0.89984600  0.75223200  0.63136800  1
  N  4065  1  0.88963900  0.71143800  0.64277300  1
  N  4068  1  0.88917600  0.69053600  0.62317500  1
  N  4071  1  0.89951700  0.73374300  0.61147600  1
  N  4072  1  0.88980900  0.73028700  0.66263500  1
  N  4074  1  0.37330900  0.50152300  0.38143400  1
  N  4077  1  0.41413900  0.49124800  0.39278600  1
  N  4080  1  0.43495900  0.49080300  0.37316500  1
  N  4083  1  0.39170700  0.50120600  0.36151700  1
  N  4084  1  0.39537000  0.49139700  0.41267300  1
  N  4086  1  0.15063700  0.22603900  0.88143300  1
  N  4089  1  0.10979300  0.23625000  0.89278700  1
  N  4092  1  0.08896700  0.23665200  0.87316700  1
  N  4095  1  0.13223300  0.22631700  0.86151800  1
  N  4096  1  0.12856900  0.23614100  0.91267200  1
  N  4098  1  0.02023900  0.62355800  0.04039100  1
  N  4101  1  0.00362600  0.60428200  0.06154400  1
  N  4104  1  0.02420300  0.63277900  0.07418800  1
  N  4107  1  0.04094700  0.65246300  0.05189600  1
  N  4108  1  0.98292000  0.57538200  0.05118400  1
  N  4110  1  0.50371100  0.10399000  0.54038900  1
  N  4113  1  0.52035800  0.12324300  0.56154000  1
  N  4116  1  0.49980800  0.09472710  0.57418500  1
  N  4119  1  0.48302600  0.07506910  0.55189400  1
  N  4120  1  0.54104700  0.15215500  0.55118100  1
  N  4122  1  0.00174100  0.12185500  0.29033600  1
  N  4125  1  0.02118300  0.10544100  0.31149000  1
  N  4128  1  0.99279300  0.12614700  0.32414300  1
  N  4131  1  0.97293100  0.14267800  0.30185000  1
  N  4132  1  0.04999900  0.08463610  0.30111900  1
  N  4134  1  0.52221200  0.60570100  0.79033900  1
  N  4137  1  0.50279100  0.62213000  0.81149400  1
  N  4140  1  0.53119900  0.60143900  0.82414400  1
  N  4143  1  0.55103300  0.58488400  0.80184900  1
  N  4144  1  0.47396200  0.64292600  0.80112700  1
  N  4146  1  0.50373400  0.62356900  0.98329300  1
  N  4149  1  0.52027200  0.60424100  0.96214100  1
  N  4152  1  0.49973800  0.63277500  0.94950000  1
  N  4155  1  0.48307500  0.65250900  0.97179900  1
  N  4156  1  0.54094000  0.57531300  0.97249800  1
  N  4158  1  0.02023300  0.10397200  0.48329100  1
  N  4161  1  0.00367200  0.12328400  0.46213600  1
  N  4164  1  0.02418300  0.09473410  0.44949500  1
  N  4167  1  0.04088100  0.07502510  0.47179300  1
  N  4168  1  0.98302700  0.15222700  0.47250000  1
  N  4170  1  0.52223000  0.12185900  0.73335400  1
  N  4173  1  0.50272400  0.10553200  0.71219700  1
  N  4176  1  0.53114700  0.12620000  0.69954700  1
  N  4179  1  0.55106800  0.14264300  0.72184700  1
  N  4180  1  0.47388100  0.08476810  0.72257200  1
  N  4182  1  0.00173900  0.60568500  0.23335400  1
  N  4185  1  0.02122200  0.62203300  0.21219700  1
  N  4188  1  0.99277900  0.60139000  0.19954900  1
  N  4191  1  0.97288700  0.58491700  0.22184800  1
  N  4192  1  0.05008200  0.64278200  0.22257100  1
  N  4194  1  0.00373000  0.10398600  0.98363800  1
  N  4197  1  0.02032100  0.12327000  0.96248600  1
  N  4200  1  0.99970400  0.09479910  0.94984500  1
  N  4203  1  0.98299400  0.07509910  0.97214400  1
  N  4204  1  0.04105500  0.15215500  0.97284300  1
  N  4206  1  0.52023700  0.62355100  0.48364500  1
  N  4209  1  0.50360600  0.60429400  0.46249000  1
  N  4212  1  0.52419300  0.63278600  0.44984800  1
  N  4215  1  0.54094800  0.65245500  0.47214300  1
  N  4216  1  0.48289200  0.57539400  0.47285100  1
  N  4218  1  0.02221900  0.60568700  0.73359200  1
  N  4221  1  0.00277700  0.62210400  0.71243800  1
  N  4224  1  0.03116200  0.60139200  0.69978500  1
  N  4227  1  0.05102400  0.58485900  0.72207700  1
  N  4228  1  0.97396300  0.64291400  0.72280900  1
  N  4230  1  0.50174300  0.12184100  0.23358900  1
  N  4233  1  0.52116200  0.10541100  0.21243300  1
  N  4236  1  0.49275800  0.12610700  0.19978400  1
  N  4239  1  0.47292600  0.14266400  0.22207900  1
  N  4240  1  0.54999000  0.08461110  0.22280000  1
  N  4242  1  0.52021200  0.10397400  0.04059000  1
  N  4245  1  0.50370100  0.12331500  0.06175000  1
  N  4248  1  0.52427700  0.09480810  0.07438800  1
  N  4251  1  0.54090400  0.07505310  0.05208500  1
  N  4252  1  0.48300500  0.15222400  0.05138700  1
  N  4254  1  0.00373200  0.62356900  0.54059200  1
  N  4257  1  0.02026900  0.60424700  0.56175100  1
  N  4260  1  0.99971600  0.63277200  0.57438900  1
  N  4263  1  0.98305400  0.65249900  0.55208800  1
  N  4264  1  0.04094200  0.57531900  0.55138700  1
  N  4266  1  0.50172700  0.60568200  0.29063100  1
  N  4269  1  0.52122900  0.62201200  0.31178800  1
  N  4272  1  0.49280900  0.60133900  0.32443800  1
  N  4275  1  0.47289200  0.58489300  0.30213800  1
  N  4276  1  0.55006900  0.64278200  0.30141400  1
  N  4278  1  0.02222100  0.12185700  0.79063000  1
  N  4281  1  0.00273800  0.10550800  0.81178800  1
  N  4284  1  0.03117600  0.12615800  0.82443700  1
  N  4287  1  0.05106800  0.14263200  0.80213700  1
  N  4288  1  0.97388200  0.08475410  0.80141400  1
  N  4290  1  0.01117200  0.84146800  0.00898600  1
  N  4293  1  0.01264600  0.88677000  0.01578500  1
  N  4296  1  0.04301000  0.87932800  0.03091800  1
  N  4299  1  0.04048100  0.82967600  0.02253700  1
  N  4300  1  0.98308500  0.89826100  0.00215200  1
  N  4302  1  0.51278000  0.88606800  0.50898100  1
  N  4305  1  0.51131500  0.84076900  0.51578700  1
  N  4308  1  0.48095200  0.84820800  0.53092100  1
  N  4311  1  0.48346400  0.89785800  0.52253100  1
  N  4312  1  0.54088700  0.82928200  0.50215700  1
  N  4314  1  0.78381600  0.11334000  0.25870600  1
  N  4317  1  0.73871800  0.11407000  0.26590700  1
  N  4320  1  0.74630100  0.14399200  0.28127100  1
  N  4323  1  0.79570300  0.14231200  0.27243900  1
  N  4324  1  0.72713300  0.08483110  0.25209200  1
  N  4326  1  0.74014600  0.61419200  0.75870200  1
  N  4329  1  0.78523900  0.61348100  0.76591100  1
  N  4332  1  0.77765200  0.58357000  0.78128100  1
  N  4335  1  0.72825400  0.58523200  0.77244200  1
  N  4336  1  0.79682700  0.64270800  0.75208900  1
  N  4338  1  0.51279400  0.84146900  0.01497300  1
  N  4341  1  0.51129600  0.88677000  0.00817500  1
  N  4344  1  0.48089000  0.87932600  0.99306300  1
  N  4347  1  0.48343900  0.82967400  0.00144400  1
  N  4348  1  0.54090300  0.89826600  0.02178500  1
  N  4350  1  0.01118700  0.88606600  0.51498400  1
  N  4353  1  0.01264200  0.84077500  0.50816100  1
  N  4356  1  0.04302600  0.84822700  0.49304000  1
  N  4359  1  0.04052300  0.89786500  0.50144400  1
  N  4360  1  0.98305500  0.82927600  0.52178500  1
  N  4362  1  0.74013200  0.11335100  0.76523800  1
  N  4365  1  0.78523000  0.11410500  0.75803700  1
  N  4368  1  0.77763800  0.14406600  0.74269500  1
  N  4371  1  0.72823600  0.14235600  0.75151700  1
  N  4372  1  0.79682500  0.08484110  0.77184000  1
  N  4374  1  0.78382500  0.61419200  0.26523600  1
  N  4377  1  0.73872300  0.61342800  0.25804000  1
  N  4380  1  0.74631500  0.58346300  0.24270000  1
  N  4383  1  0.79571900  0.58518500  0.25151900  1
  N  4384  1  0.72713000  0.64269800  0.27184000  1
  N  4386  1  0.24013000  0.61418500  0.76522100  1
  N  4389  1  0.28523000  0.61345300  0.75802200  1
  N  4392  1  0.27764900  0.58353000  0.74265900  1
  N  4395  1  0.22824500  0.58521100  0.75148700  1
  N  4396  1  0.29681300  0.64269400  0.77183700  1
  N  4398  1  0.28382300  0.11336300  0.26522300  1
  N  4401  1  0.23872500  0.11408600  0.25802000  1
  N  4404  1  0.24631000  0.14400400  0.24265400  1
  N  4407  1  0.29571200  0.14232800  0.25148500  1
  N  4408  1  0.22714000  0.08485410  0.27184000  1
  N  4410  1  0.28383700  0.61416700  0.25874700  1
  N  4413  1  0.23873900  0.61341300  0.26594600  1
  N  4416  1  0.24632900  0.58345000  0.28128800  1
  N  4419  1  0.29573100  0.58516400  0.27246800  1
  N  4420  1  0.22714600  0.64267800  0.25214300  1
  N  4422  1  0.24012000  0.11337200  0.75875200  1
  N  4425  1  0.28522300  0.11413900  0.76594600  1
  N  4428  1  0.27763300  0.14410500  0.78128500  1
  N  4431  1  0.22822700  0.14238100  0.77246900  1
  N  4432  1  0.29681500  0.08486610  0.75214600  1
  N  4434  1  0.51184800  0.34164300  0.50862200  1
  N  4437  1  0.51194700  0.38655800  0.51614200  1
  N  4440  1  0.54148300  0.37886900  0.53169500  1
  N  4443  1  0.54052600  0.32966500  0.52251500  1
  N  4444  1  0.48302000  0.39823400  0.50216000  1
  N  4446  1  0.01210200  0.38589400  0.00862200  1
  N  4449  1  0.01201500  0.34098200  0.01614400  1
  N  4452  1  0.98248200  0.34866900  0.03169900  1
  N  4455  1  0.98342000  0.39787000  0.02250800  1
  N  4456  1  0.04094800  0.32930900  0.00217100  1
  N  4458  1  0.01209400  0.34164500  0.51534800  1
  N  4461  1  0.01201900  0.38654500  0.50780100  1
  N  4464  1  0.98247100  0.37883900  0.49225500  1
  N  4467  1  0.98339700  0.32965400  0.50146300  1
  N  4468  1  0.04096400  0.39823400  0.52177300  1
  N  4470  1  0.51188900  0.38588400  0.01535800  1
  N  4473  1  0.51191700  0.34099800  0.00779200  1
  N  4476  1  0.54144100  0.34870700  0.99223400  1
  N  4479  1  0.54056900  0.39787800  0.00146300  1
  N  4480  1  0.48299200  0.32930400  0.02177400  1
  N  4482  1  0.24196300  0.75320500  0.00587200  1
  N  4485  1  0.28221000  0.74435000  0.01809100  1
  N  4488  1  0.26142600  0.73835400  0.03746500  1
  N  4491  1  0.21936900  0.74799400  0.02441900  1
  N  4492  1  0.30469800  0.74980400  0.99946800  1
  N  4494  1  0.28200100  0.97434700  0.50586600  1
  N  4497  1  0.24175400  0.98316800  0.51808800  1
  N  4500  1  0.26253600  0.98913600  0.53746500  1
  N  4503  1  0.30459800  0.97953200  0.52441100  1
  N  4504  1  0.21926400  0.97773500  0.49946100  1
  N  4506  1  0.87217700  0.34375200  0.25586100  1
  N  4509  1  0.88111300  0.38397800  0.26807900  1
  N  4512  1  0.88715800  0.36316900  0.28744100  1
  N  4515  1  0.87742800  0.32113200  0.27439300  1
  N  4516  1  0.87560700  0.40649400  0.24946500  1
  N  4518  1  0.65174700  0.38379600  0.75585800  1
  N  4521  1  0.64286800  0.34356800  0.76808500  1
  N  4524  1  0.63686300  0.36437600  0.78745000  1
  N  4527  1  0.64653400  0.40642100  0.77439200  1
  N  4528  1  0.64834000  0.32105300  0.74946700  1
  N  4530  1  0.78199200  0.97414100  0.01808100  1
  N  4533  1  0.74176600  0.98307800  0.00586300  1
  N  4536  1  0.76256900  0.98912200  0.98650000  1
  N  4539  1  0.80460700  0.97939500  0.99955200  1
  N  4540  1  0.71925300  0.97758500  0.02447800  1
  N  4542  1  0.74195900  0.75339300  0.51809100  1
  N  4545  1  0.78218700  0.74449100  0.50586800  1
  N  4548  1  0.76138200  0.73847300  0.48650300  1
  N  4551  1  0.71934100  0.74816300  0.49955800  1
  N  4552  1  0.80470000  0.74996100  0.52448400  1
  N  4554  1  0.15176700  0.38379700  0.76809100  1
  N  4557  1  0.14282700  0.34356100  0.75588300  1
  N  4560  1  0.13677700  0.36435200  0.73651600  1
  N  4563  1  0.14651400  0.40640100  0.74955200  1
  N  4564  1  0.14833500  0.32106000  0.77450300  1
  N  4566  1  0.37222200  0.34374000  0.26809300  1
  N  4569  1  0.38110400  0.38397900  0.25587700  1
  N  4572  1  0.38711300  0.36318900  0.23650700  1
  N  4575  1  0.37743700  0.32113200  0.24955300  1
  N  4576  1  0.37563000  0.40648000  0.27450100  1
  N  4578  1  0.74196800  0.25392200  0.50590000  1
  N  4581  1  0.78218000  0.24467000  0.51806300  1
  N  4584  1  0.76138500  0.23842400  0.53741200  1
  N  4587  1  0.71936600  0.24850100  0.52442400  1
  N  4588  1  0.80468100  0.25034200  0.49946000  1
  N  4590  1  0.78200000  0.47364200  0.00589100  1
  N  4593  1  0.74178700  0.48283800  0.01805900  1
  N  4596  1  0.76258200  0.48904200  0.03741200  1
  N  4599  1  0.80460500  0.47902500  0.02441300  1
  N  4600  1  0.71928500  0.47720000  0.99945800  1
  N  4602  1  0.37191700  0.84377000  0.75589700  1
  N  4605  1  0.38125900  0.88396100  0.76805800  1
  N  4608  1  0.38754600  0.86314900  0.78739800  1
  N  4611  1  0.37737900  0.82115300  0.77441000  1
  N  4612  1  0.37555500  0.90648100  0.74946700  1
  N  4614  1  0.15200500  0.88378000  0.25589500  1
  N  4617  1  0.14272300  0.84358700  0.26806700  1
  N  4620  1  0.13648200  0.86439900  0.28741000  1
  N  4623  1  0.14658400  0.90640500  0.27440800  1
  N  4624  1  0.14838900  0.82106700  0.24947000  1
  N  4626  1  0.28198300  0.47339500  0.51805300  1
  N  4629  1  0.24179400  0.48277200  0.50589600  1
  N  4632  1  0.26261200  0.48909200  0.48656100  1
  N  4635  1  0.30460700  0.47888400  0.49954300  1
  N  4636  1  0.21926900  0.47703500  0.52448500  1
  N  4638  1  0.24196100  0.25412600  0.01806500  1
  N  4641  1  0.28215200  0.24480700  0.00590000  1
  N  4644  1  0.26133600  0.23852900  0.98655600  1
  N  4647  1  0.21933400  0.24867700  0.99955200  1
  N  4648  1  0.30467900  0.25050800  0.02449200  1
  N  4650  1  0.65202400  0.88378000  0.26805400  1
  N  4653  1  0.64267600  0.84357700  0.25590400  1
  N  4656  1  0.63638800  0.86437100  0.23655900  1
  N  4659  1  0.64655800  0.90638000  0.24953500  1
  N  4660  1  0.64838200  0.82107400  0.27450300  1
  N  4662  1  0.87196800  0.84375600  0.76805600  1
  N  4665  1  0.88125400  0.88396100  0.75589600  1
  N  4668  1  0.88749800  0.86316800  0.73654700  1
  N  4671  1  0.87739100  0.82114800  0.74953700  1
  N  4672  1  0.87558600  0.90646500  0.77449900  1
  O  1577  1  0.15465400  0.33008200  0.12496200  1
  O  1578  1  0.11962200  0.32382200  0.12666400  1
  O  1589  1  0.36922200  0.69384100  0.62496000  1
  O  1590  1  0.40424300  0.70016100  0.62666000  1
  O  1601  1  0.94339800  0.90539400  0.37484800  1
  O  1602  1  0.95007500  0.87043900  0.37655300  1
  O  1613  1  0.58047100  0.11875100  0.87485400  1
  O  1614  1  0.57393300  0.15372900  0.87657300  1
  O  1625  1  0.36908200  0.33033200  0.89898200  1
  O  1626  1  0.40408300  0.32387100  0.89731400  1
  O  1637  1  0.15480800  0.69366200  0.39897600  1
  O  1638  1  0.11979700  0.70006800  0.39730300  1
  O  1649  1  0.58076100  0.90551300  0.64908000  1
  O  1650  1  0.57397700  0.87057300  0.64740500  1
  O  1661  1  0.94325500  0.11853800  0.14908000  1
  O  1662  1  0.94998700  0.15348700  0.14740100  1
  O  1673  1  0.86920500  0.69389200  0.89901500  1
  O  1674  1  0.90422400  0.70023100  0.89731500  1
  O  1685  1  0.65482200  0.33008900  0.39901700  1
  O  1686  1  0.61981200  0.32369900  0.39731900  1
  O  1697  1  0.08030400  0.11906300  0.64904900  1
  O  1698  1  0.07393400  0.15407300  0.64733500  1
  O  1709  1  0.44373800  0.90470900  0.14904300  1
  O  1710  1  0.44997100  0.86967600  0.14731600  1
  O  1721  1  0.65494700  0.69367100  0.12495700  1
  O  1722  1  0.61995200  0.70018400  0.12662200  1
  O  1733  1  0.86906700  0.33025400  0.62496300  1
  O  1734  1  0.90406900  0.32379000  0.62663400  1
  O  1745  1  0.44343300  0.11888800  0.37493300  1
  O  1746  1  0.44994300  0.15387800  0.37661600  1
  O  1757  1  0.08046200  0.90497000  0.87493300  1
  O  1758  1  0.07400800  0.86996800  0.87662000  1
  O  1769  1  0.00605900  0.28725800  0.07997500  1
  O  1770  1  0.03452700  0.26566300  0.08060200  1
  O  1781  1  0.51796400  0.73665600  0.57996000  1
  O  1782  1  0.48949300  0.75824600  0.58060900  1
  O  1793  1  0.98656100  0.75626700  0.32999200  1
  O  1794  1  0.00817000  0.78473400  0.33049500  1
  O  1805  1  0.53743400  0.26773900  0.82998600  1
  O  1806  1  0.51583000  0.23926800  0.83050200  1
  O  1817  1  0.51788700  0.28721100  0.94370200  1
  O  1818  1  0.48937200  0.26567800  0.94308700  1
  O  1829  1  0.00602700  0.73671100  0.44370800  1
  O  1830  1  0.03454600  0.75823900  0.44308200  1
  O  1841  1  0.53733200  0.75631800  0.69368500  1
  O  1842  1  0.51578600  0.78483600  0.69320800  1
  O  1853  1  0.98659300  0.26769300  0.19369500  1
  O  1854  1  0.00812900  0.23917200  0.19320100  1
  O  1865  1  0.01783500  0.73672500  0.94404700  1
  O  1866  1  0.98938200  0.75834100  0.94344100  1
  O  1877  1  0.50604900  0.28727900  0.44406400  1
  O  1878  1  0.53450500  0.26567000  0.44343000  1
  O  1889  1  0.03739600  0.26768500  0.69393500  1
  O  1890  1  0.01578300  0.23922100  0.69343400  1
  O  1901  1  0.48652100  0.75622300  0.19394100  1
  O  1902  1  0.50812800  0.78468800  0.19342600  1
  O  1913  1  0.50614400  0.73677700  0.08019500  1
  O  1914  1  0.53464400  0.75833200  0.08078500  1
  O  1925  1  0.01785900  0.28721600  0.58018800  1
  O  1926  1  0.98935400  0.26566900  0.58079400  1
  O  1937  1  0.48662300  0.26763200  0.33030000  1
  O  1938  1  0.50817200  0.23911900  0.33077700  1
  O  1949  1  0.03736400  0.75627000  0.83029100  1
  O  1950  1  0.01582200  0.78478800  0.83078300  1
  O  1961  1  0.05648100  0.54317500  0.02675400  1
  O  1962  1  0.03142900  0.53616600  0.03977400  1
  O  1973  1  0.46748700  0.48076700  0.52676100  1
  O  1974  1  0.49253800  0.48779600  0.53977800  1
  O  1985  1  0.73038200  0.80563400  0.27737900  1
  O  1986  1  0.73807900  0.78021500  0.29008500  1
  O  1997  1  0.79357600  0.21834200  0.77739500  1
  O  1998  1  0.78586300  0.24377000  0.79009400  1
  O  2009  1  0.46743100  0.54317400  0.99724000  1
  O  2010  1  0.49244700  0.53616200  0.98419800  1
  O  2021  1  0.05648200  0.48077600  0.49719900  1
  O  2022  1  0.03144800  0.48782900  0.48417600  1
  O  2033  1  0.79355000  0.80570300  0.74659800  1
  O  2034  1  0.78586100  0.78031700  0.73387200  1
  O  2045  1  0.73040300  0.21824000  0.24660500  1
  O  2046  1  0.73808800  0.24362400  0.23387600  1
  O  2057  1  0.29356600  0.21830200  0.74655300  1
  O  2058  1  0.28587200  0.24371900  0.73384500  1
  O  2069  1  0.23039100  0.80564600  0.24654500  1
  O  2070  1  0.23809000  0.78022600  0.23384000  1
  O  2081  1  0.23041700  0.21822800  0.27738500  1
  O  2082  1  0.23810200  0.24361300  0.29011200  1
  O  2093  1  0.29354300  0.80574100  0.77737900  1
  O  2094  1  0.28586200  0.78035900  0.79010900  1
  O  2105  1  0.55488800  0.04320300  0.52802000  1
  O  2106  1  0.52917400  0.03497700  0.54046600  1
  O  2117  1  0.96908400  0.98074100  0.02802900  1
  O  2118  1  0.99480000  0.98898700  0.04046900  1
  O  2129  1  0.96908000  0.04319000  0.49592100  1
  O  2130  1  0.99478400  0.03491800  0.48347900  1
  O  2141  1  0.55482700  0.98075500  0.99588800  1
  O  2142  1  0.52910500  0.98906800  0.98346100  1
  O  2153  1  0.27365300  0.40126900  0.04332000  1
  O  2154  1  0.27014200  0.36654700  0.03925900  1
  O  2165  1  0.25031600  0.62261900  0.54331200  1
  O  2166  1  0.25381300  0.65735100  0.53926900  1
  O  2177  1  0.87248200  0.02360900  0.29331400  1
  O  2178  1  0.90718800  0.02007000  0.28921800  1
  O  2189  1  0.65156600  0.00036200  0.79331100  1
  O  2190  1  0.61684600  0.00387300  0.78924400  1
  O  2201  1  0.75033200  0.62265400  0.98062700  1
  O  2202  1  0.75387500  0.65735800  0.98472900  1
  O  2213  1  0.77361200  0.40137100  0.48063800  1
  O  2214  1  0.77008500  0.36665800  0.48471700  1
  O  2225  1  0.15145200  0.00032000  0.73064600  1
  O  2226  1  0.11674800  0.00386400  0.73474300  1
  O  2237  1  0.37241000  0.02362300  0.23064800  1
  O  2238  1  0.40712800  0.02010700  0.23471700  1
  O  2249  1  0.77368200  0.90117900  0.54333800  1
  O  2250  1  0.77000800  0.86654700  0.53910400  1
  O  2261  1  0.75029500  0.12267700  0.04332600  1
  O  2262  1  0.75394500  0.15732400  0.03912000  1
  O  2273  1  0.37303100  0.52366700  0.79333900  1
  O  2274  1  0.40764500  0.51995700  0.78907300  1
  O  2285  1  0.15102600  0.50030900  0.29333800  1
  O  2286  1  0.11639600  0.50398700  0.28910400  1
  O  2297  1  0.25029500  0.12280300  0.48061100  1
  O  2298  1  0.25401900  0.15740600  0.48489800  1
  O  2309  1  0.27364000  0.90125800  0.98061800  1
  O  2310  1  0.26994300  0.86664000  0.98487800  1
  O  2321  1  0.65090100  0.50026000  0.23062200  1
  O  2322  1  0.61628800  0.50397500  0.23488800  1
  O  2333  1  0.87295700  0.52367900  0.73062200  1
  O  2334  1  0.90758500  0.51999400  0.73485800  1
  O  3913  1  0.15465400  0.68187500  0.12496200  1
  O  3914  1  0.11962200  0.67561500  0.12666400  1
  O  3925  1  0.36922200  0.04563410  0.62496000  1
  O  3926  1  0.40424300  0.05195410  0.62666000  1
  O  3937  1  0.94339800  0.25718700  0.37484800  1
  O  3938  1  0.95007500  0.22223200  0.37655300  1
  O  3949  1  0.58047100  0.47054400  0.87485400  1
  O  3950  1  0.57393300  0.50552200  0.87657300  1
  O  3961  1  0.36908200  0.68212500  0.89898200  1
  O  3962  1  0.40408300  0.67566400  0.89731400  1
  O  3973  1  0.15480800  0.04545510  0.39897600  1
  O  3974  1  0.11979700  0.05186110  0.39730300  1
  O  3985  1  0.58076100  0.25730600  0.64908000  1
  O  3986  1  0.57397700  0.22236600  0.64740500  1
  O  3997  1  0.94325500  0.47033100  0.14908000  1
  O  3998  1  0.94998700  0.50528000  0.14740100  1
  O  4009  1  0.86920500  0.04568510  0.89901500  1
  O  4010  1  0.90422400  0.05202410  0.89731500  1
  O  4021  1  0.65482200  0.68188200  0.39901700  1
  O  4022  1  0.61981200  0.67549200  0.39731900  1
  O  4033  1  0.08030400  0.47085600  0.64904900  1
  O  4034  1  0.07393400  0.50586600  0.64733500  1
  O  4045  1  0.44373800  0.25650200  0.14904300  1
  O  4046  1  0.44997100  0.22146900  0.14731600  1
  O  4057  1  0.65494700  0.04546410  0.12495700  1
  O  4058  1  0.61995200  0.05197710  0.12662200  1
  O  4069  1  0.86906700  0.68204700  0.62496300  1
  O  4070  1  0.90406900  0.67558300  0.62663400  1
  O  4081  1  0.44343300  0.47068100  0.37493300  1
  O  4082  1  0.44994300  0.50567100  0.37661600  1
  O  4093  1  0.08046200  0.25676300  0.87493300  1
  O  4094  1  0.07400800  0.22176100  0.87662000  1
  O  4105  1  0.00605900  0.63905100  0.07997500  1
  O  4106  1  0.03452700  0.61745600  0.08060200  1
  O  4117  1  0.51796400  0.08844910  0.57996000  1
  O  4118  1  0.48949300  0.11003900  0.58060900  1
  O  4129  1  0.98656100  0.10806000  0.32999200  1
  O  4130  1  0.00817000  0.13652700  0.33049500  1
  O  4141  1  0.53743400  0.61953200  0.82998600  1
  O  4142  1  0.51583000  0.59106100  0.83050200  1
  O  4153  1  0.51788700  0.63900400  0.94370200  1
  O  4154  1  0.48937200  0.61747100  0.94308700  1
  O  4165  1  0.00602700  0.08850410  0.44370800  1
  O  4166  1  0.03454600  0.11003200  0.44308200  1
  O  4177  1  0.53733200  0.10811100  0.69368500  1
  O  4178  1  0.51578600  0.13662900  0.69320800  1
  O  4189  1  0.98659300  0.61948600  0.19369500  1
  O  4190  1  0.00812900  0.59096500  0.19320100  1
  O  4201  1  0.01783500  0.08851810  0.94404700  1
  O  4202  1  0.98938200  0.11013400  0.94344100  1
  O  4213  1  0.50604900  0.63907200  0.44406400  1
  O  4214  1  0.53450500  0.61746300  0.44343000  1
  O  4225  1  0.03739600  0.61947800  0.69393500  1
  O  4226  1  0.01578300  0.59101400  0.69343400  1
  O  4237  1  0.48652100  0.10801600  0.19394100  1
  O  4238  1  0.50812800  0.13648100  0.19342600  1
  O  4249  1  0.50614400  0.08857010  0.08019500  1
  O  4250  1  0.53464400  0.11012500  0.08078500  1
  O  4261  1  0.01785900  0.63900900  0.58018800  1
  O  4262  1  0.98935400  0.61746200  0.58079400  1
  O  4273  1  0.48662300  0.61942500  0.33030000  1
  O  4274  1  0.50817200  0.59091200  0.33077700  1
  O  4285  1  0.03736400  0.10806300  0.83029100  1
  O  4286  1  0.01582200  0.13658100  0.83078300  1
  O  4297  1  0.05648100  0.89496800  0.02675400  1
  O  4298  1  0.03142900  0.88795900  0.03977400  1
  O  4309  1  0.46748700  0.83256000  0.52676100  1
  O  4310  1  0.49253800  0.83958900  0.53977800  1
  O  4321  1  0.73038200  0.15742700  0.27737900  1
  O  4322  1  0.73807900  0.13200800  0.29008500  1
  O  4333  1  0.79357600  0.57013500  0.77739500  1
  O  4334  1  0.78586300  0.59556300  0.79009400  1
  O  4345  1  0.46743100  0.89496700  0.99724000  1
  O  4346  1  0.49244700  0.88795500  0.98419800  1
  O  4357  1  0.05648200  0.83256900  0.49719900  1
  O  4358  1  0.03144800  0.83962200  0.48417600  1
  O  4369  1  0.79355000  0.15749600  0.74659800  1
  O  4370  1  0.78586100  0.13211000  0.73387200  1
  O  4381  1  0.73040300  0.57003300  0.24660500  1
  O  4382  1  0.73808800  0.59541700  0.23387600  1
  O  4393  1  0.29356600  0.57009500  0.74655300  1
  O  4394  1  0.28587200  0.59551200  0.73384500  1
  O  4405  1  0.23039100  0.15743900  0.24654500  1
  O  4406  1  0.23809000  0.13201900  0.23384000  1
  O  4417  1  0.23041700  0.57002100  0.27738500  1
  O  4418  1  0.23810200  0.59540600  0.29011200  1
  O  4429  1  0.29354300  0.15753400  0.77737900  1
  O  4430  1  0.28586200  0.13215200  0.79010900  1
  O  4441  1  0.55488800  0.39499600  0.52802000  1
  O  4442  1  0.52917400  0.38677000  0.54046600  1
  O  4453  1  0.96908400  0.33253400  0.02802900  1
  O  4454  1  0.99480000  0.34078000  0.04046900  1
  O  4465  1  0.96908000  0.39498300  0.49592100  1
  O  4466  1  0.99478400  0.38671100  0.48347900  1
  O  4477  1  0.55482700  0.33254800  0.99588800  1
  O  4478  1  0.52910500  0.34086100  0.98346100  1
  O  4489  1  0.27365300  0.75306200  0.04332000  1
  O  4490  1  0.27014200  0.71834000  0.03925900  1
  O  4501  1  0.25031600  0.97441200  0.54331200  1
  O  4502  1  0.25381300  0.00914409  0.53926900  1
  O  4513  1  0.87248200  0.37540200  0.29331400  1
  O  4514  1  0.90718800  0.37186300  0.28921800  1
  O  4525  1  0.65156600  0.35215500  0.79331100  1
  O  4526  1  0.61684600  0.35566600  0.78924400  1
  O  4537  1  0.75033200  0.97444700  0.98062700  1
  O  4538  1  0.75387500  0.00915109  0.98472900  1
  O  4549  1  0.77361200  0.75316400  0.48063800  1
  O  4550  1  0.77008500  0.71845100  0.48471700  1
  O  4561  1  0.15145200  0.35211300  0.73064600  1
  O  4562  1  0.11674800  0.35565700  0.73474300  1
  O  4573  1  0.37241000  0.37541600  0.23064800  1
  O  4574  1  0.40712800  0.37190000  0.23471700  1
  O  4585  1  0.77368200  0.25297200  0.54333800  1
  O  4586  1  0.77000800  0.21834000  0.53910400  1
  O  4597  1  0.75029500  0.47447000  0.04332600  1
  O  4598  1  0.75394500  0.50911700  0.03912000  1
  O  4609  1  0.37303100  0.87546000  0.79333900  1
  O  4610  1  0.40764500  0.87175000  0.78907300  1
  O  4621  1  0.15102600  0.85210200  0.29333800  1
  O  4622  1  0.11639600  0.85578000  0.28910400  1
  O  4633  1  0.25029500  0.47459600  0.48061100  1
  O  4634  1  0.25401900  0.50919900  0.48489800  1
  O  4645  1  0.27364000  0.25305100  0.98061800  1
  O  4646  1  0.26994300  0.21843300  0.98487800  1
  O  4657  1  0.65090100  0.85205300  0.23062200  1
  O  4658  1  0.61628800  0.85576800  0.23488800  1
  O  4669  1  0.87295700  0.87547200  0.73062200  1
  O  4670  1  0.90758500  0.87178700  0.73485800  1
