# generated using pymatgen
data_H11C13(NO)2
_symmetry_space_group_name_H-M   'P 1'
_cell_length_a   56.21780000
_cell_length_b   56.21780000
_cell_length_c   56.21780000
_cell_angle_alpha   90.00000000
_cell_angle_beta   90.00000000
_cell_angle_gamma   90.00000000
_symmetry_Int_Tables_number   1
_chemical_formula_structural   H11C13(NO)2
_chemical_formula_sum   'H1056 C1248 N192 O192'
_cell_volume   177673.04212086
_cell_formula_units_Z   96
loop_
 _symmetry_equiv_pos_site_id
 _symmetry_equiv_pos_as_xyz
  1  'x, y, z'
loop_
 _atom_site_type_symbol
 _atom_site_label
 _atom_site_symmetry_multiplicity
 _atom_site_fract_x
 _atom_site_fract_y
 _atom_site_fract_z
 _atom_site_occupancy
  H  7  1  0.02925600  0.26057400  0.42076500  1
  H  16  1  0.07817800  0.24279100  0.47763300  1
  H  19  1  0.10428600  0.21848100  0.43278100  1
  H  20  1  0.07528200  0.28749200  0.40297500  1
  H  21  1  0.03364100  0.17690800  0.38930000  1
  H  22  1  0.11026100  0.32707100  0.47918100  1
  H  33  1  0.97332300  0.74286800  0.41767500  1
  H  42  1  0.92002000  0.75853200  0.47097700  1
  H  45  1  0.89747200  0.78498400  0.42542700  1
  H  46  1  0.92655700  0.71763900  0.39430700  1
  H  47  1  0.96991800  0.82748500  0.38688300  1
  H  48  1  0.88897100  0.67425200  0.46646400  1
  H  59  1  0.97641800  0.25585700  0.59202600  1
  H  68  1  0.93055200  0.24712100  0.53057700  1
  H  71  1  0.90124600  0.21956400  0.56993500  1
  H  72  1  0.92671300  0.27831200  0.61073900  1
  H  73  1  0.96875200  0.16885600  0.61122100  1
  H  74  1  0.88911800  0.32261500  0.53898900  1
  H  85  1  0.02694600  0.74087900  0.58021800  1
  H  94  1  0.08123000  0.75837900  0.52784300  1
  H  97  1  0.10276600  0.78295800  0.57444400  1
  H  98  1  0.07188300  0.71435000  0.60232900  1
  H  99  1  0.02976800  0.82482000  0.61247500  1
  H  100  1  0.11310700  0.67432500  0.52983700  1
  H  111  1  0.42357400  0.02454400  0.26122300  1
  H  120  1  0.47618200  0.07694200  0.24186100  1
  H  123  1  0.43060700  0.09844200  0.21573600  1
  H  124  1  0.40138900  0.07065600  0.28591300  1
  H  125  1  0.39032800  0.02380300  0.17770100  1
  H  126  1  0.47533300  0.11104700  0.32523900  1
  H  137  1  0.41557800  0.97279800  0.74132200  1
  H  146  1  0.47027400  0.92061200  0.75747700  1
  H  149  1  0.42623100  0.89821300  0.78488100  1
  H  150  1  0.39358500  0.92573300  0.71710700  1
  H  151  1  0.38603400  0.97048100  0.82629500  1
  H  152  1  0.46655300  0.88994400  0.67310500  1
  H  163  1  0.57765300  0.97698000  0.25231900  1
  H  172  1  0.52303000  0.92303800  0.24908800  1
  H  175  1  0.57001100  0.89614100  0.22540000  1
  H  176  1  0.60442400  0.92974600  0.27469000  1
  H  177  1  0.61204300  0.96195300  0.17469800  1
  H  178  1  0.53923300  0.88818300  0.32639500  1
  H  189  1  0.57849800  0.02885600  0.74235900  1
  H  198  1  0.52647700  0.08365600  0.75859400  1
  H  201  1  0.57423100  0.10592100  0.78242800  1
  H  202  1  0.60092000  0.07306600  0.71469300  1
  H  203  1  0.61057000  0.03358900  0.82632700  1
  H  204  1  0.52877000  0.11363000  0.67375400  1
  H  215  1  0.26135300  0.41853300  0.02751300  1
  H  224  1  0.24290900  0.47506300  0.07681700  1
  H  227  1  0.21869000  0.43071200  0.10208700  1
  H  228  1  0.28816100  0.40084600  0.07338400  1
  H  229  1  0.17745000  0.38694100  0.03147800  1
  H  230  1  0.32703200  0.47728600  0.10900700  1
  H  241  1  0.74160700  0.41846200  0.97230900  1
  H  250  1  0.75941900  0.47182000  0.91873500  1
  H  253  1  0.78488300  0.42716700  0.89763000  1
  H  254  1  0.71573900  0.39745400  0.92775900  1
  H  255  1  0.82573100  0.38718200  0.97083600  1
  H  256  1  0.67496000  0.47097000  0.88838700  1
  H  267  1  0.25393700  0.59019000  0.97703500  1
  H  276  1  0.24551800  0.52976400  0.93029200  1
  H  279  1  0.21865800  0.57051500  0.90066100  1
  H  280  1  0.27667900  0.61006500  0.92683400  1
  H  281  1  0.16711500  0.60978000  0.96873000  1
  H  282  1  0.32078300  0.53842500  0.88851000  1
  H  293  1  0.74450400  0.58043200  0.02780200  1
  H  302  1  0.75889600  0.52747200  0.08161300  1
  H  305  1  0.78464300  0.57440900  0.10503500  1
  H  306  1  0.71794900  0.60420900  0.07411800  1
  H  307  1  0.82871600  0.61172600  0.03327100  1
  H  308  1  0.67435700  0.53252200  0.11195200  1
  H  319  1  0.26084800  0.02854300  0.57985900  1
  H  328  1  0.24204800  0.07740700  0.52302600  1
  H  331  1  0.21717000  0.10245300  0.56709100  1
  H  332  1  0.28680900  0.07492900  0.59758300  1
  H  333  1  0.17700400  0.03167300  0.61163500  1
  H  334  1  0.32608300  0.11024800  0.52143800  1
  H  345  1  0.74272900  0.97252300  0.58219300  1
  H  354  1  0.75730600  0.91923900  0.52881300  1
  H  357  1  0.78339400  0.89563200  0.57533200  1
  H  358  1  0.71655900  0.92605200  0.60563200  1
  H  359  1  0.82725700  0.96760600  0.61260600  1
  H  360  1  0.67286300  0.88874700  0.53347300  1
  H  371  1  0.25576600  0.97773600  0.40876700  1
  H  380  1  0.24748700  0.93084400  0.46904200  1
  H  383  1  0.22107800  0.90085900  0.42788900  1
  H  384  1  0.27889600  0.92761900  0.38882700  1
  H  385  1  0.16908000  0.96821400  0.38854900  1
  H  386  1  0.32285700  0.88923800  0.46048200  1
  H  397  1  0.74055300  0.02794900  0.41917100  1
  H  406  1  0.75869400  0.08103400  0.47299100  1
  H  409  1  0.78439900  0.10224500  0.42813800  1
  H  410  1  0.71517900  0.07320300  0.39825600  1
  H  411  1  0.82485100  0.02916500  0.38816000  1
  H  412  1  0.67461900  0.11303700  0.47126700  1
  H  423  1  0.02451600  0.42353100  0.73854000  1
  H  432  1  0.07682300  0.47627600  0.75780400  1
  H  435  1  0.09857200  0.43068900  0.78386900  1
  H  436  1  0.07051200  0.40158800  0.71370800  1
  H  437  1  0.02428300  0.39014100  0.82204200  1
  H  438  1  0.11058100  0.47584900  0.67435700  1
  H  449  1  0.97271500  0.41571000  0.25914400  1
  H  458  1  0.92049600  0.47019800  0.24259200  1
  H  461  1  0.89814400  0.42581200  0.21536600  1
  H  462  1  0.92543100  0.39364900  0.28328400  1
  H  463  1  0.97051800  0.38562900  0.17428300  1
  H  464  1  0.88960400  0.46668500  0.32695000  1
  H  475  1  0.97651400  0.57747000  0.74841400  1
  H  484  1  0.92266300  0.52273100  0.75155700  1
  H  487  1  0.89574300  0.56954900  0.77538100  1
  H  488  1  0.92917700  0.60423500  0.72620600  1
  H  489  1  0.96152100  0.61154300  0.82616700  1
  H  490  1  0.88750700  0.53921900  0.67443600  1
  H  501  1  0.02871500  0.57847500  0.25778500  1
  H  510  1  0.08369200  0.52652000  0.24186600  1
  H  513  1  0.10591400  0.57419200  0.21795000  1
  H  514  1  0.07268600  0.60099100  0.28556600  1
  H  515  1  0.03365800  0.61036300  0.17377600  1
  H  516  1  0.11332000  0.52893000  0.32675400  1
  H  527  1  0.41881000  0.26159100  0.97278400  1
  H  536  1  0.47539200  0.24330500  0.92349200  1
  H  539  1  0.43108400  0.21878800  0.89825300  1
  H  540  1  0.40093300  0.28815400  0.92672600  1
  H  541  1  0.38721900  0.17771200  0.96885100  1
  H  542  1  0.47724000  0.32735900  0.89119400  1
  H  553  1  0.41766300  0.74185000  0.02839700  1
  H  562  1  0.47241300  0.75871900  0.08046200  1
  H  565  1  0.42842800  0.78545900  0.10278300  1
  H  566  1  0.39644000  0.71710200  0.07440700  1
  H  567  1  0.38725100  0.82619200  0.03012200  1
  H  568  1  0.46985100  0.67463700  0.11194000  1
  H  579  1  0.59043400  0.25454200  0.02317400  1
  H  588  1  0.53000800  0.24635800  0.07011900  1
  H  591  1  0.57048600  0.21936800  0.09950300  1
  H  592  1  0.61029400  0.27743700  0.07291200  1
  H  593  1  0.60958300  0.16761500  0.03149100  1
  H  594  1  0.53892000  0.32180500  0.11141300  1
  H  605  1  0.57936800  0.74283600  0.97193700  1
  H  614  1  0.52626000  0.75826500  0.91835500  1
  H  617  1  0.57338600  0.78301300  0.89482100  1
  H  618  1  0.60197600  0.71577800  0.92647100  1
  H  619  1  0.61135200  0.82678400  0.96645200  1
  H  620  1  0.52965100  0.67371700  0.88754400  1
  H  631  1  0.98718700  0.75548100  0.55379100  1
  H  640  1  0.94574600  0.74382300  0.51114600  1
  H  643  1  0.90085000  0.77784200  0.55324500  1
  H  644  1  0.94388600  0.72038200  0.59716300  1
  H  645  1  0.96532600  0.83675800  0.58003900  1
  H  646  1  0.92122600  0.66162500  0.53101100  1
  H  657  1  0.00784400  0.23631500  0.56059300  1
  H  666  1  0.04820200  0.25371100  0.51558000  1
  H  669  1  0.09609100  0.22437900  0.55512100  1
  H  670  1  0.04611400  0.27425800  0.60219300  1
  H  671  1  0.04058700  0.15781700  0.58343400  1
  H  672  1  0.06965100  0.33561600  0.53830300  1
  H  683  1  0.01420900  0.75664600  0.44378800  1
  H  692  1  0.05679400  0.74653400  0.48579400  1
  H  695  1  0.09989400  0.78092000  0.44097200  1
  H  696  1  0.05756600  0.72249300  0.39997600  1
  H  697  1  0.03284900  0.83954700  0.42118900  1
  H  698  1  0.08071400  0.66387000  0.46627700  1
  H  709  1  0.98596700  0.24837100  0.44264800  1
  H  718  1  0.94692200  0.25652700  0.48592600  1
  H  721  1  0.90105200  0.22153800  0.44284700  1
  H  722  1  0.93632400  0.28163500  0.40108600  1
  H  723  1  0.96892600  0.16527400  0.41802600  1
  H  724  1  0.91585600  0.33624200  0.46699300  1
  H  735  1  0.55404100  0.98740600  0.75490700  1
  H  744  1  0.51208100  0.94514500  0.74493100  1
  H  747  1  0.55646400  0.90178000  0.77940400  1
  H  748  1  0.59770900  0.94304300  0.72050600  1
  H  749  1  0.57879500  0.96843700  0.83729100  1
  H  750  1  0.53099400  0.92135000  0.66228300  1
  H  761  1  0.55441500  0.01125000  0.23452500  1
  H  770  1  0.51601100  0.05144300  0.25128700  1
  H  773  1  0.56254800  0.09938600  0.22215900  1
  H  774  1  0.60208000  0.04786800  0.27361100  1
  H  775  1  0.58658400  0.04323300  0.15945000  1
  H  776  1  0.53695400  0.07159100  0.33408800  1
  H  787  1  0.44133500  0.01441200  0.75374000  1
  H  796  1  0.48456900  0.05749500  0.74524600  1
  H  799  1  0.43994800  0.09973600  0.77907200  1
  H  800  1  0.39924000  0.05843900  0.71937300  1
  H  801  1  0.41995600  0.03189300  0.83729000  1
  H  802  1  0.46686600  0.08123800  0.66213200  1
  H  813  1  0.45182300  0.98562300  0.24896000  1
  H  822  1  0.48803400  0.95630200  0.27475500  1
  H  825  1  0.45560100  0.89909900  0.22770900  1
  H  826  1  0.40272600  0.93987100  0.27658700  1
  H  827  1  0.42879800  0.96299000  0.16713400  1
  H  828  1  0.45582700  0.91481500  0.34181900  1
  H  839  1  0.75869900  0.55432200  0.98727400  1
  H  848  1  0.74804800  0.51323400  0.94357600  1
  H  851  1  0.78416100  0.55733600  0.90183500  1
  H  852  1  0.72617000  0.59953900  0.94412600  1
  H  853  1  0.84157300  0.57818700  0.96947400  1
  H  854  1  0.66585100  0.53488900  0.92028500  1
  H  865  1  0.23363200  0.55831800  0.00812100  1
  H  874  1  0.25130600  0.51415500  0.04854000  1
  H  877  1  0.22187600  0.55445400  0.09656200  1
  H  878  1  0.27178400  0.60059600  0.04502400  1
  H  879  1  0.15520500  0.58112700  0.04085300  1
  H  880  1  0.33346000  0.53697000  0.06891100  1
  H  891  1  0.75361300  0.44338400  0.01347200  1
  H  900  1  0.74343000  0.48674600  0.05508800  1
  H  903  1  0.77568100  0.44298900  0.09965200  1
  H  904  1  0.71732200  0.40143000  0.05663200  1
  H  905  1  0.83567600  0.41952000  0.03465900  1
  H  906  1  0.66066100  0.46903600  0.07997600  1
  H  917  1  0.24813000  0.44168000  0.98535700  1
  H  926  1  0.25670500  0.48541000  0.94745900  1
  H  929  1  0.22223400  0.44308400  0.90012700  1
  H  930  1  0.28203900  0.40072500  0.93559100  1
  H  931  1  0.16549600  0.41648700  0.96709200  1
  H  932  1  0.33618000  0.46727500  0.91516400  1
  H  943  1  0.75307800  0.98706600  0.44479100  1
  H  952  1  0.74233600  0.94570700  0.48854800  1
  H  955  1  0.77584700  0.90092400  0.44692100  1
  H  956  1  0.71789300  0.94242500  0.40282400  1
  H  957  1  0.83493300  0.96549600  0.41982400  1
  H  958  1  0.65968800  0.92191400  0.46992600  1
  H  969  1  0.23438100  0.00804100  0.44079600  1
  H  978  1  0.25213900  0.04847300  0.48486400  1
  H  981  1  0.22222000  0.09638100  0.44513300  1
  H  982  1  0.27240800  0.04503700  0.39832700  1
  H  983  1  0.15609500  0.04050000  0.41717400  1
  H  984  1  0.33394000  0.06992900  0.46177900  1
  H  995  1  0.75747500  0.01338700  0.55629300  1
  H  1004  1  0.74743600  0.05665000  0.51482100  1
  H  1007  1  0.78241900  0.09888400  0.55957200  1
  H  1008  1  0.72380300  0.05618400  0.60068500  1
  H  1009  1  0.84029100  0.03143800  0.57986100  1
  H  1010  1  0.66498700  0.08080700  0.53501700  1
  H  1021  1  0.24943700  0.98524800  0.55770800  1
  H  1030  1  0.25748400  0.94714600  0.51399500  1
  H  1033  1  0.22302500  0.90017900  0.55716500  1
  H  1034  1  0.28317500  0.93475900  0.59849200  1
  H  1035  1  0.16615100  0.96794400  0.58127500  1
  H  1036  1  0.33729700  0.91591600  0.53199500  1
  H  1047  1  0.98734500  0.55402700  0.24542600  1
  H  1056  1  0.94508800  0.51203900  0.25538900  1
  H  1059  1  0.90175500  0.55646600  0.22086800  1
  H  1060  1  0.94309100  0.59771100  0.27978500  1
  H  1061  1  0.96844000  0.57841600  0.16294100  1
  H  1062  1  0.92094600  0.53103400  0.33794400  1
  H  1073  1  0.01104800  0.55447700  0.76570700  1
  H  1082  1  0.05125600  0.51622600  0.74876300  1
  H  1085  1  0.09918200  0.56282900  0.77787600  1
  H  1086  1  0.04757400  0.60232000  0.72664500  1
  H  1087  1  0.04317500  0.58642800  0.84078100  1
  H  1088  1  0.07095200  0.53734200  0.66592100  1
  H  1099  1  0.01443400  0.44138000  0.24676000  1
  H  1108  1  0.05758900  0.48453300  0.25510200  1
  H  1111  1  0.09974000  0.43971100  0.22132500  1
  H  1112  1  0.05854400  0.39927000  0.28114900  1
  H  1113  1  0.03177200  0.41980800  0.16323600  1
  H  1114  1  0.08099700  0.46702500  0.33835200  1
  H  1125  1  0.98549200  0.45160900  0.75099300  1
  H  1134  1  0.95576800  0.48799300  0.72568100  1
  H  1137  1  0.89905800  0.45486500  0.77273000  1
  H  1138  1  0.93979600  0.40256800  0.72336300  1
  H  1139  1  0.96341500  0.42828400  0.83288900  1
  H  1140  1  0.91434500  0.45596600  0.65843400  1
  H  1151  1  0.55393800  0.75713400  0.01233900  1
  H  1160  1  0.51291200  0.74562700  0.05493700  1
  H  1163  1  0.55607800  0.78153700  0.09809600  1
  H  1164  1  0.59934200  0.72408200  0.05601200  1
  H  1165  1  0.57890900  0.83945400  0.03133200  1
  H  1166  1  0.53487700  0.66406300  0.07971500  1
  H  1177  1  0.55862400  0.23453400  0.99195800  1
  H  1186  1  0.51439400  0.25234200  0.95183700  1
  H  1189  1  0.55413000  0.22276600  0.90361200  1
  H  1190  1  0.60089500  0.27271600  0.95498400  1
  H  1191  1  0.58140100  0.15610200  0.95912700  1
  H  1192  1  0.53729400  0.33434100  0.93091100  1
  H  1203  1  0.44283300  0.75437300  0.98728100  1
  H  1212  1  0.48565600  0.74363600  0.94529600  1
  H  1215  1  0.44190300  0.77638600  0.90104000  1
  H  1216  1  0.40003000  0.71858400  0.94435700  1
  H  1217  1  0.41953600  0.83661900  0.96620300  1
  H  1218  1  0.46695200  0.66091900  0.92112800  1
  H  1229  1  0.44195600  0.24827900  0.01512400  1
  H  1238  1  0.48565600  0.25680800  0.05345300  1
  H  1241  1  0.44342200  0.22211500  0.10029500  1
  H  1242  1  0.40085900  0.28192100  0.06463000  1
  H  1243  1  0.41642800  0.16569300  0.03327000  1
  H  1244  1  0.46711900  0.33646400  0.08510200  1
  H  1253  1  0.97940300  0.39339800  0.45545200  1
  H  1254  1  0.00957000  0.40171600  0.45490700  1
  H  1257  1  0.04181400  0.37259500  0.47090400  1
  H  1258  1  0.03320200  0.34463500  0.48203400  1
  H  1259  1  0.03876100  0.38111800  0.42612500  1
  H  1260  1  0.02805200  0.35894100  0.40638500  1
  H  1263  1  0.01851200  0.31238000  0.45285300  1
  H  1264  1  0.01562700  0.31832600  0.42226500  1
  H  1266  1  0.98866300  0.33252800  0.48261900  1
  H  1267  1  0.96721600  0.35244300  0.47145200  1
  H  1269  1  0.98337300  0.34657200  0.40688200  1
  H  1270  1  0.96390600  0.36068300  0.42686300  1
  H  1273  1  0.98097700  0.29891800  0.45263600  1
  H  1274  1  0.97906900  0.40247900  0.41119200  1
  H  1277  1  0.01092200  0.39268000  0.49955700  1
  H  1278  1  0.06190000  0.33779300  0.42111000  1
  H  1283  1  0.01904700  0.60803900  0.44968100  1
  H  1284  1  0.98899400  0.60079200  0.44475000  1
  H  1287  1  0.95564200  0.62985400  0.45777100  1
  H  1288  1  0.96324100  0.65653400  0.47227600  1
  H  1289  1  0.96415900  0.62526400  0.41315700  1
  H  1290  1  0.97880400  0.64769700  0.39684600  1
  H  1293  1  0.98245200  0.69055300  0.44820500  1
  H  1294  1  0.98950100  0.68690000  0.41793500  1
  H  1296  1  0.00752800  0.66705200  0.47998300  1
  H  1297  1  0.03008400  0.64761500  0.47056300  1
  H  1299  1  0.02277400  0.65849900  0.40502100  1
  H  1300  1  0.03891200  0.64230900  0.42637500  1
  H  1303  1  0.02105600  0.70139000  0.45714900  1
  H  1304  1  0.02486600  0.61295000  0.39469500  1
  H  1307  1  0.98031600  0.60744100  0.48898200  1
  H  1308  1  0.94371000  0.66965400  0.40901400  1
  H  1313  1  0.01281100  0.38967200  0.54693700  1
  H  1314  1  0.98385900  0.39980200  0.55319600  1
  H  1317  1  0.94737600  0.37273800  0.54541100  1
  H  1318  1  0.95143900  0.34430500  0.53303200  1
  H  1319  1  0.96043200  0.38033500  0.58881200  1
  H  1320  1  0.97408300  0.35778900  0.60572800  1
  H  1323  1  0.97056800  0.31109400  0.55799700  1
  H  1324  1  0.97938500  0.31632500  0.58759100  1
  H  1326  1  0.99360100  0.32925100  0.52319400  1
  H  1327  1  0.01860800  0.34722800  0.52872700  1
  H  1329  1  0.01622000  0.34337200  0.59559800  1
  H  1330  1  0.03170900  0.35624300  0.57159800  1
  H  1333  1  0.00882300  0.29667100  0.54799000  1
  H  1334  1  0.02145800  0.38816300  0.60367900  1
  H  1337  1  0.96993400  0.38799300  0.50956400  1
  H  1338  1  0.92921100  0.35462600  0.59038800  1
  H  1343  1  0.98289700  0.60566200  0.54432900  1
  H  1344  1  0.01307500  0.59831600  0.54820700  1
  H  1347  1  0.04594500  0.62808900  0.53470800  1
  H  1348  1  0.03760500  0.65539500  0.52185200  1
  H  1349  1  0.03855300  0.62064300  0.57910600  1
  H  1350  1  0.02526500  0.64295100  0.59703300  1
  H  1353  1  0.01930800  0.68800600  0.54831000  1
  H  1354  1  0.01341300  0.68285600  0.57859600  1
  H  1356  1  0.99284900  0.66577600  0.51634300  1
  H  1357  1  0.97092500  0.64573700  0.52592600  1
  H  1359  1  0.98066400  0.65408100  0.59159200  1
  H  1360  1  0.96359100  0.63890100  0.57026000  1
  H  1363  1  0.98115200  0.69931000  0.54117700  1
  H  1364  1  0.97827000  0.59795600  0.58861900  1
  H  1367  1  0.01976300  0.60641800  0.50404300  1
  H  1368  1  0.05979900  0.66514900  0.58498900  1
  H  1373  1  0.45714000  0.98088700  0.39438600  1
  H  1374  1  0.45603900  0.01114800  0.40229800  1
  H  1377  1  0.47028000  0.04329200  0.37240300  1
  H  1378  1  0.48089200  0.03463500  0.34425900  1
  H  1379  1  0.42548400  0.03927100  0.38225200  1
  H  1380  1  0.40580200  0.02774800  0.36050300  1
  H  1383  1  0.45105500  0.01861200  0.31294700  1
  H  1384  1  0.42076000  0.01506900  0.31993200  1
  H  1386  1  0.48227900  0.99021100  0.33259600  1
  H  1387  1  0.47248700  0.96848500  0.35284700  1
  H  1389  1  0.40712700  0.98284700  0.34901400  1
  H  1390  1  0.42808300  0.96410200  0.36271600  1
  H  1393  1  0.45332600  0.98054100  0.30093000  1
  H  1394  1  0.41401300  0.97977800  0.40524900  1
  H  1397  1  0.50058900  0.01337400  0.39175500  1
  H  1398  1  0.41918000  0.06142800  0.33770600  1
  H  1403  1  0.45177800  0.01863400  0.60650700  1
  H  1404  1  0.44637800  0.98859000  0.59954300  1
  H  1407  1  0.45791700  0.95538000  0.62934900  1
  H  1408  1  0.47201900  0.96304300  0.65622800  1
  H  1409  1  0.41362000  0.96476200  0.62364600  1
  H  1410  1  0.39715900  0.98006800  0.64549600  1
  H  1413  1  0.44757000  0.98323600  0.68950200  1
  H  1414  1  0.41754200  0.99084400  0.68503500  1
  H  1416  1  0.48039000  0.00719500  0.66639000  1
  H  1417  1  0.47192300  0.02976100  0.64650900  1
  H  1419  1  0.40600100  0.02398100  0.65579400  1
  H  1420  1  0.42809900  0.03944700  0.63993100  1
  H  1423  1  0.45738000  0.02203300  0.69970500  1
  H  1424  1  0.39638000  0.02554900  0.61032300  1
  H  1427  1  0.49026300  0.97894900  0.60757200  1
  H  1428  1  0.40825500  0.94509700  0.66879300  1
  H  1433  1  0.54825300  0.01479400  0.38847500  1
  H  1434  1  0.55455200  0.98574400  0.39828500  1
  H  1437  1  0.54609700  0.94947300  0.37104300  1
  H  1438  1  0.53324900  0.95384300  0.34286600  1
  H  1439  1  0.58958900  0.96226600  0.37803700  1
  H  1440  1  0.60627200  0.97603600  0.35536200  1
  H  1443  1  0.55784300  0.97293200  0.30935000  1
  H  1444  1  0.58748500  0.98174000  0.31420300  1
  H  1446  1  0.52322700  0.99617000  0.32838500  1
  H  1447  1  0.52931600  0.02099500  0.34643300  1
  H  1449  1  0.59606500  0.01832400  0.34130800  1
  H  1450  1  0.57238300  0.03380000  0.35473300  1
  H  1453  1  0.54770400  0.01128600  0.29524400  1
  H  1454  1  0.60475100  0.02322600  0.38635100  1
  H  1457  1  0.51073300  0.97221700  0.38735900  1
  H  1458  1  0.59237800  0.93207600  0.35108400  1
  H  1463  1  0.54627200  0.98285400  0.60632400  1
  H  1464  1  0.54945200  0.01312500  0.59900000  1
  H  1467  1  0.53435200  0.04567400  0.62852500  1
  H  1468  1  0.52122300  0.03693000  0.65557300  1
  H  1469  1  0.57885900  0.03952700  0.62198400  1
  H  1470  1  0.59694400  0.02675800  0.64450900  1
  H  1473  1  0.54750300  0.01944700  0.68866400  1
  H  1474  1  0.57804400  0.01439100  0.68415000  1
  H  1476  1  0.51672800  0.99195600  0.66578400  1
  H  1477  1  0.52740900  0.97041100  0.64589000  1
  H  1479  1  0.59257900  0.98200500  0.65566900  1
  H  1480  1  0.57208000  0.96433100  0.64003400  1
  H  1483  1  0.54169300  0.98119200  0.70004300  1
  H  1484  1  0.59083900  0.97975000  0.59930100  1
  H  1487  1  0.50522200  0.01846000  0.60578700  1
  H  1488  1  0.58364100  0.06103400  0.66588700  1
  H  1493  1  0.39374300  0.45609900  0.97813100  1
  H  1494  1  0.40237600  0.45526300  0.00819800  1
  H  1497  1  0.37289100  0.46999900  0.04110300  1
  H  1498  1  0.34470200  0.48071600  0.03276900  1
  H  1499  1  0.38228600  0.42620800  0.03734200  1
  H  1500  1  0.36130000  0.40536400  0.02648300  1
  H  1503  1  0.31294500  0.45112400  0.01771700  1
  H  1504  1  0.31957800  0.42074700  0.01410900  1
  H  1506  1  0.33246800  0.48205000  0.98846400  1
  H  1507  1  0.35241700  0.47172900  0.96663800  1
  H  1509  1  0.34779700  0.40671800  0.98173700  1
  H  1510  1  0.36132700  0.42727900  0.96248100  1
  H  1513  1  0.29943900  0.45193000  0.98029600  1
  H  1514  1  0.39937300  0.40812100  0.97553600  1
  H  1517  1  0.39207300  0.49985800  0.01099500  1
  H  1518  1  0.33849100  0.41911300  0.06010300  1
  H  1523  1  0.60486300  0.45729500  0.01613800  1
  H  1524  1  0.59813800  0.45302000  0.98586900  1
  H  1527  1  0.62887700  0.46531900  0.95349500  1
  H  1528  1  0.65619900  0.47787000  0.96222200  1
  H  1529  1  0.62046500  0.42115800  0.96142700  1
  H  1530  1  0.64213400  0.40311400  0.97552200  1
  H  1533  1  0.68796500  0.45113600  0.98169800  1
  H  1534  1  0.68211800  0.42105300  0.98798600  1
  H  1536  1  0.66571800  0.48395500  0.00701400  1
  H  1537  1  0.64510900  0.47515200  0.02874200  1
  H  1539  1  0.65231500  0.40916400  0.02025900  1
  H  1540  1  0.63718400  0.43109500  0.03662000  1
  H  1543  1  0.69828000  0.45906800  0.02012000  1
  H  1544  1  0.59646200  0.41322800  0.02171900  1
  H  1547  1  0.60740200  0.49708600  0.97856900  1
  H  1548  1  0.66593100  0.41435300  0.94150200  1
  H  1553  1  0.38794100  0.54797400  0.01287200  1
  H  1554  1  0.39815000  0.55444300  0.98400100  1
  H  1557  1  0.37171800  0.54559200  0.94732100  1
  H  1558  1  0.34360600  0.53243100  0.95112700  1
  H  1559  1  0.37789800  0.58926300  0.96024000  1
  H  1560  1  0.35469200  0.60560500  0.97351200  1
  H  1563  1  0.30952600  0.55641600  0.96983700  1
  H  1564  1  0.31375800  0.58621600  0.97854200  1
  H  1566  1  0.32840700  0.52236500  0.99327200  1
  H  1567  1  0.34603600  0.52851600  0.01837800  1
  H  1569  1  0.34013800  0.59524900  0.01559800  1
  H  1570  1  0.35361900  0.57173000  0.03130900  1
  H  1573  1  0.29480500  0.54652800  0.00805200  1
  H  1574  1  0.38477800  0.60428400  0.02159600  1
  H  1577  1  0.38778500  0.51030800  0.97013200  1
  H  1578  1  0.35292500  0.58951200  0.92858600  1
  H  1583  1  0.60978500  0.55230500  0.98044200  1
  H  1584  1  0.60211900  0.55668100  0.01047300  1
  H  1587  1  0.63022200  0.54199400  0.04399800  1
  H  1588  1  0.65670800  0.52708600  0.03650400  1
  H  1589  1  0.62687400  0.58690600  0.03653700  1
  H  1590  1  0.64993800  0.60307600  0.02273000  1
  H  1593  1  0.69158300  0.55079000  0.01854500  1
  H  1594  1  0.68879800  0.58131200  0.01224100  1
  H  1596  1  0.66779700  0.52022800  0.99210400  1
  H  1597  1  0.64894400  0.53076600  0.96956300  1
  H  1599  1  0.66140200  0.59578300  0.97876800  1
  H  1600  1  0.64500500  0.57527000  0.96178400  1
  H  1603  1  0.70308300  0.54275700  0.98002600  1
  H  1604  1  0.61563600  0.60679700  0.97582600  1
  H  1607  1  0.60734300  0.51222200  0.01801200  1
  H  1608  1  0.67028600  0.58959100  0.05822600  1
  H  1613  1  0.39383600  0.98025000  0.54426500  1
  H  1614  1  0.40178500  0.01051100  0.54493400  1
  H  1617  1  0.37220600  0.04247700  0.52927200  1
  H  1618  1  0.34428800  0.03360400  0.51823600  1
  H  1619  1  0.38099700  0.03928700  0.57402800  1
  H  1620  1  0.35902100  0.02820900  0.59378100  1
  H  1623  1  0.31236900  0.01834800  0.54749400  1
  H  1624  1  0.31850000  0.01537700  0.57803700  1
  H  1626  1  0.33270200  0.98890700  0.51748200  1
  H  1627  1  0.35295200  0.96765400  0.52843400  1
  H  1629  1  0.34721400  0.98338200  0.59310200  1
  H  1630  1  0.36146700  0.96420100  0.57294600  1
  H  1633  1  0.29935500  0.98067700  0.54778000  1
  H  1634  1  0.40306300  0.97970200  0.58858000  1
  H  1637  1  0.39242400  0.01193100  0.50025800  1
  H  1638  1  0.33736100  0.06189600  0.57931300  1
  H  1643  1  0.60837500  0.02004600  0.55108200  1
  H  1644  1  0.60067100  0.99006700  0.55577600  1
  H  1647  1  0.62916900  0.95637300  0.54240800  1
  H  1648  1  0.65591800  0.96367500  0.52787900  1
  H  1649  1  0.62490900  0.96457100  0.58710900  1
  H  1650  1  0.64758300  0.97878900  0.60345600  1
  H  1653  1  0.69030800  0.98214900  0.55199900  1
  H  1654  1  0.68685900  0.98901200  0.58233500  1
  H  1656  1  0.66710700  0.00783800  0.52048100  1
  H  1657  1  0.64806000  0.03062300  0.53014500  1
  H  1659  1  0.65899700  0.02262700  0.59561400  1
  H  1660  1  0.64300800  0.03918400  0.57443500  1
  H  1663  1  0.70177800  0.02062700  0.54335300  1
  H  1664  1  0.61337000  0.02522500  0.60611400  1
  H  1667  1  0.60699800  0.98163200  0.51151800  1
  H  1668  1  0.66884300  0.94345400  0.59099600  1
  H  1673  1  0.38891200  0.01401300  0.45285500  1
  H  1674  1  0.39939300  0.98520500  0.44653800  1
  H  1677  1  0.37287600  0.94836100  0.45433800  1
  H  1678  1  0.34446000  0.95200200  0.46688000  1
  H  1679  1  0.37997700  0.96157400  0.41087500  1
  H  1680  1  0.35715500  0.97501600  0.39417000  1
  H  1683  1  0.31090300  0.97076700  0.44221200  1
  H  1684  1  0.31579300  0.97970700  0.41258600  1
  H  1686  1  0.32891000  0.99399400  0.47692500  1
  H  1687  1  0.34653600  0.01922900  0.47132600  1
  H  1689  1  0.34233100  0.01691300  0.40444800  1
  H  1690  1  0.35512200  0.03253900  0.42838400  1
  H  1693  1  0.29589600  0.00868900  0.45235500  1
  H  1694  1  0.38715100  0.02230000  0.39576400  1
  H  1697  1  0.38802500  0.97095200  0.49011000  1
  H  1698  1  0.35498500  0.93000200  0.40955500  1
  H  1703  1  0.60476200  0.98447300  0.45640700  1
  H  1704  1  0.59788700  0.01476800  0.45257500  1
  H  1707  1  0.62825600  0.04712700  0.46584500  1
  H  1708  1  0.65551500  0.03836700  0.47851900  1
  H  1709  1  0.62038500  0.03986900  0.42142500  1
  H  1710  1  0.64239400  0.02623400  0.40341300  1
  H  1713  1  0.68765700  0.01953700  0.45183000  1
  H  1714  1  0.68220500  0.01375200  0.42157500  1
  H  1716  1  0.66526100  0.99345900  0.48392800  1
  H  1717  1  0.64479400  0.97185000  0.47449400  1
  H  1719  1  0.65279100  0.98145800  0.40878300  1
  H  1720  1  0.63748100  0.96464300  0.43023500  1
  H  1723  1  0.69828900  0.98113200  0.45875500  1
  H  1724  1  0.59676600  0.97980100  0.41223800  1
  H  1727  1  0.60648700  0.02123100  0.49676800  1
  H  1728  1  0.66536700  0.06045500  0.41539900  1
  H  1733  1  0.97995600  0.45782800  0.60575600  1
  H  1734  1  0.01016700  0.45669900  0.59766100  1
  H  1737  1  0.04252600  0.47079000  0.62743600  1
  H  1738  1  0.03404300  0.48132100  0.65566400  1
  H  1739  1  0.03836600  0.42607500  0.61745400  1
  H  1740  1  0.02694900  0.40631100  0.63918700  1
  H  1743  1  0.01814400  0.45138700  0.68697400  1
  H  1744  1  0.01454400  0.42112100  0.67989300  1
  H  1746  1  0.98970800  0.48270600  0.66760000  1
  H  1747  1  0.96783600  0.47304400  0.64744800  1
  H  1749  1  0.98213200  0.40763900  0.65093200  1
  H  1750  1  0.96332400  0.42868100  0.63743500  1
  H  1753  1  0.98005600  0.45366400  0.69915600  1
  H  1754  1  0.97847300  0.41451800  0.59498400  1
  H  1757  1  0.01259100  0.50122500  0.60839600  1
  H  1758  1  0.06079900  0.41955700  0.66185400  1
  H  1763  1  0.01832700  0.45151700  0.39380200  1
  H  1764  1  0.98825300  0.44618200  0.40068100  1
  H  1767  1  0.95514600  0.45802400  0.37086500  1
  H  1768  1  0.96291400  0.47219700  0.34405300  1
  H  1769  1  0.96434700  0.41367300  0.37639000  1
  H  1770  1  0.97962900  0.39722800  0.35450300  1
  H  1773  1  0.98305700  0.44782600  0.31072900  1
  H  1774  1  0.99053600  0.41774800  0.31506600  1
  H  1776  1  0.00715100  0.48043800  0.33402000  1
  H  1777  1  0.02962000  0.47178600  0.35392700  1
  H  1779  1  0.02359300  0.40593900  0.34430500  1
  H  1780  1  0.03910900  0.42790700  0.36030600  1
  H  1783  1  0.02192900  0.45742400  0.30058800  1
  H  1784  1  0.02520300  0.39637100  0.38989100  1
  H  1787  1  0.97885300  0.49013300  0.39290000  1
  H  1788  1  0.94469500  0.40851300  0.33140600  1
  H  1793  1  0.01378000  0.54904500  0.61177400  1
  H  1794  1  0.98464300  0.55526300  0.60216700  1
  H  1797  1  0.94857800  0.54645000  0.62957600  1
  H  1798  1  0.95318000  0.53348400  0.65766000  1
  H  1799  1  0.96110300  0.59002300  0.62273500  1
  H  1800  1  0.97491500  0.60668700  0.64540600  1
  H  1803  1  0.97232500  0.55799700  0.69118800  1
  H  1804  1  0.98096500  0.58770300  0.68644400  1
  H  1806  1  0.99565200  0.52359700  0.67183500  1
  H  1807  1  0.02033200  0.52992100  0.65366800  1
  H  1809  1  0.01734300  0.59661700  0.65918800  1
  H  1810  1  0.03285800  0.57308900  0.64554600  1
  H  1813  1  0.01077000  0.54801300  0.70505800  1
  H  1814  1  0.02213500  0.60521400  0.61398500  1
  H  1817  1  0.97144500  0.51132200  0.61288000  1
  H  1818  1  0.93107700  0.59256100  0.64984700  1
  H  1823  1  0.98248700  0.54613600  0.39407400  1
  H  1824  1  0.01274600  0.54941800  0.40140300  1
  H  1827  1  0.04536500  0.53445900  0.37183200  1
  H  1828  1  0.03664900  0.52131000  0.34478600  1
  H  1829  1  0.03906600  0.57886300  0.37840100  1
  H  1830  1  0.02623500  0.59698900  0.35594600  1
  H  1833  1  0.01908000  0.54755400  0.31171100  1
  H  1834  1  0.01389700  0.57807100  0.31625200  1
  H  1836  1  0.99170900  0.51664900  0.33460900  1
  H  1837  1  0.97011400  0.52724200  0.35449300  1
  H  1839  1  0.98148400  0.59246500  0.34475000  1
  H  1840  1  0.96387600  0.57189500  0.36036400  1
  H  1843  1  0.98086500  0.54150100  0.30033900  1
  H  1844  1  0.97909200  0.59090200  0.40095500  1
  H  1847  1  0.01830800  0.50522200  0.39455800  1
  H  1848  1  0.06051400  0.58381300  0.33442800  1
  H  1853  1  0.45567400  0.39383200  0.02229500  1
  H  1854  1  0.45469000  0.40251300  0.99224600  1
  H  1857  1  0.46953400  0.37322200  0.95924400  1
  H  1858  1  0.48051700  0.34510400  0.96746700  1
  H  1859  1  0.42566600  0.38217100  0.96310400  1
  H  1860  1  0.40501400  0.36107600  0.97406000  1
  H  1863  1  0.45125400  0.31304700  0.98256000  1
  H  1864  1  0.42083100  0.31941700  0.98627100  1
  H  1866  1  0.48212300  0.33276100  0.01172800  1
  H  1867  1  0.47171000  0.35256800  0.03364000  1
  H  1869  1  0.40670000  0.34747000  0.01875100  1
  H  1870  1  0.42723600  0.36113300  0.03794200  1
  H  1873  1  0.45229400  0.29949400  0.02007100  1
  H  1874  1  0.40660100  0.39803200  0.02505800  1
  H  1877  1  0.49938600  0.39254500  0.98930200  1
  H  1878  1  0.41887800  0.33843000  0.94033700  1
  H  1883  1  0.45515500  0.60566000  0.98463600  1
  H  1884  1  0.45046600  0.59879200  0.01482900  1
  H  1887  1  0.46242100  0.62934100  0.04749300  1
  H  1888  1  0.47529900  0.65659400  0.03901600  1
  H  1889  1  0.41844600  0.62125700  0.03902300  1
  H  1890  1  0.40060300  0.64297800  0.02475800  1
  H  1893  1  0.44893100  0.68869400  0.01928300  1
  H  1894  1  0.41889900  0.68299200  0.01261600  1
  H  1896  1  0.48198400  0.66637800  0.99457800  1
  H  1897  1  0.47341000  0.64600200  0.97249800  1
  H  1899  1  0.40729300  0.65327900  0.98011600  1
  H  1900  1  0.42939400  0.63812900  0.96399200  1
  H  1903  1  0.45750100  0.69895100  0.98075800  1
  H  1904  1  0.41138200  0.59749700  0.97843400  1
  H  1907  1  0.49436100  0.60802100  0.02297400  1
  H  1908  1  0.41166500  0.66724200  0.05878100  1
  H  1913  1  0.54745500  0.38906000  0.98730800  1
  H  1914  1  0.55385600  0.39920400  0.01621400  1
  H  1917  1  0.54551600  0.37243400  0.05279200  1
  H  1918  1  0.53269600  0.34418300  0.04885200  1
  H  1919  1  0.58903600  0.37928500  0.03978400  1
  H  1920  1  0.60564300  0.35639100  0.02630700  1
  H  1923  1  0.55708700  0.31053100  0.02992700  1
  H  1924  1  0.58678500  0.31519500  0.02111100  1
  H  1926  1  0.52263500  0.32913200  0.00667000  1
  H  1927  1  0.52853300  0.34694200  0.98163400  1
  H  1929  1  0.59534100  0.34188400  0.98419500  1
  H  1930  1  0.57162100  0.35509700  0.96859300  1
  H  1933  1  0.54703100  0.29589400  0.99190300  1
  H  1934  1  0.60403100  0.38672300  0.97863300  1
  H  1937  1  0.50991800  0.38815800  0.03018900  1
  H  1938  1  0.59002600  0.35377900  0.07116400  1
  H  1943  1  0.54919800  0.60782200  0.01865700  1
  H  1944  1  0.55236200  0.60008200  0.98848200  1
  H  1947  1  0.53705200  0.62905500  0.95555100  1
  H  1948  1  0.52370200  0.65610200  0.96396500  1
  H  1949  1  0.58151300  0.62296100  0.96166300  1
  H  1950  1  0.59956300  0.64568900  0.97410800  1
  H  1953  1  0.54982400  0.68968300  0.98096700  1
  H  1954  1  0.58039300  0.68541600  0.98605400  1
  H  1956  1  0.51917000  0.66691700  0.00862300  1
  H  1957  1  0.53000300  0.64748300  0.03054000  1
  H  1959  1  0.59514900  0.65745900  0.01876000  1
  H  1960  1  0.57477900  0.64193500  0.03667300  1
  H  1963  1  0.54365300  0.70137200  0.01910700  1
  H  1964  1  0.59363000  0.60098400  0.02167700  1
  H  1967  1  0.50811600  0.60660500  0.98298900  1
  H  1968  1  0.58597300  0.66699300  0.93975200  1
  H  1973  1  0.48010600  0.89215100  0.94963100  1
  H  1974  1  0.51011200  0.89966500  0.94482700  1
  H  1977  1  0.54367300  0.87096200  0.95815700  1
  H  1978  1  0.53625700  0.84424500  0.97268800  1
  H  1979  1  0.53533600  0.87534200  0.91347900  1
  H  1980  1  0.52101500  0.85270800  0.89715700  1
  H  1983  1  0.51748000  0.80998300  0.94861400  1
  H  1984  1  0.51057500  0.81349500  0.91829400  1
  H  1986  1  0.49203300  0.83334100  0.98023000  1
  H  1987  1  0.46935700  0.85254500  0.97060300  1
  H  1989  1  0.47708700  0.84150900  0.90513100  1
  H  1990  1  0.46068100  0.85760400  0.92634500  1
  H  1993  1  0.47896200  0.79886800  0.95737300  1
  H  1994  1  0.47459900  0.88703500  0.89463500  1
  H  1997  1  0.51858100  0.89326100  0.98916900  1
  H  1998  1  0.55672600  0.83160300  0.90963200  1
  H  2003  1  0.51393000  0.10417800  0.95486300  1
  H  2004  1  0.48342500  0.09853600  0.95057600  1
  H  2007  1  0.45206500  0.13016400  0.96398800  1
  H  2008  1  0.46190200  0.15677900  0.97721900  1
  H  2009  1  0.45942400  0.12269800  0.91999300  1
  H  2010  1  0.47410900  0.14405300  0.90201300  1
  H  2013  1  0.48227600  0.18859700  0.95122000  1
  H  2014  1  0.48815300  0.18334400  0.92093200  1
  H  2016  1  0.50703900  0.16432400  0.98332900  1
  H  2017  1  0.52796100  0.14331700  0.97364300  1
  H  2019  1  0.51917300  0.15277100  0.90794000  1
  H  2020  1  0.53534600  0.13662100  0.92929100  1
  H  2023  1  0.52139200  0.19650900  0.96027600  1
  H  2024  1  0.51922300  0.09724500  0.91011900  1
  H  2027  1  0.47682200  0.10631700  0.99454600  1
  H  2028  1  0.44107000  0.16865500  0.91404700  1
  H  2033  1  0.51621700  0.89553500  0.04403600  1
  H  2034  1  0.48599200  0.90262000  0.04803400  1
  H  2037  1  0.45334900  0.87230900  0.03525500  1
  H  2038  1  0.46188700  0.84495500  0.02265000  1
  H  2039  1  0.46094500  0.88039900  0.07944500  1
  H  2040  1  0.47462400  0.85855500  0.09761100  1
  H  2043  1  0.48071900  0.81283800  0.04941800  1
  H  2044  1  0.48683700  0.81847400  0.07957500  1
  H  2046  1  0.50660600  0.83496100  0.01687200  1
  H  2047  1  0.52846900  0.85528000  0.02602800  1
  H  2049  1  0.51931400  0.84777900  0.09189700  1
  H  2050  1  0.53606300  0.86283100  0.07023300  1
  H  2053  1  0.51886900  0.80199100  0.04183100  1
  H  2054  1  0.52127800  0.90374700  0.08824600  1
  H  2057  1  0.47903500  0.89381300  0.00393200  1
  H  2058  1  0.44059200  0.83509600  0.08603400  1
  H  2063  1  0.47831800  0.10766000  0.04995000  1
  H  2064  1  0.50842800  0.10030000  0.05433800  1
  H  2067  1  0.54167500  0.12902300  0.04039300  1
  H  2068  1  0.53387900  0.15550000  0.02561800  1
  H  2069  1  0.53403400  0.12510700  0.08530100  1
  H  2070  1  0.51978200  0.14784100  0.10148100  1
  H  2073  1  0.51541500  0.18997900  0.04959800  1
  H  2074  1  0.50892900  0.18679700  0.08005100  1
  H  2076  1  0.48940400  0.16608200  0.01860700  1
  H  2077  1  0.46701200  0.14692500  0.02889200  1
  H  2079  1  0.47578700  0.15864600  0.09408400  1
  H  2080  1  0.45909500  0.14231300  0.07328700  1
  H  2083  1  0.47672400  0.20078200  0.04099600  1
  H  2084  1  0.47401900  0.11308400  0.10544900  1
  H  2087  1  0.51607500  0.10588100  0.01040200  1
  H  2088  1  0.55499700  0.17001100  0.08798700  1
  H  2093  1  0.95402100  0.48525400  0.88859500  1
  H  2094  1  0.94750900  0.51420500  0.89854100  1
  H  2097  1  0.95556400  0.55065500  0.87138200  1
  H  2098  1  0.96830200  0.54649900  0.84312800  1
  H  2099  1  0.91225300  0.53749700  0.87853800  1
  H  2100  1  0.89553300  0.52370100  0.85590300  1
  H  2103  1  0.94374900  0.52736700  0.80969900  1
  H  2104  1  0.91418300  0.51829500  0.81461400  1
  H  2106  1  0.97865400  0.50426400  0.82851500  1
  H  2107  1  0.97275900  0.47929500  0.84643300  1
  H  2109  1  0.90599000  0.48159100  0.84158400  1
  H  2110  1  0.92983500  0.46616400  0.85477300  1
  H  2113  1  0.95460100  0.48932400  0.79553400  1
  H  2114  1  0.89735600  0.47639200  0.88652500  1
  H  2117  1  0.99133900  0.52828300  0.88723100  1
  H  2118  1  0.90918000  0.56782400  0.85171800  1
  H  2123  1  0.95413300  0.51626000  0.10699600  1
  H  2124  1  0.95085500  0.48599000  0.09971600  1
  H  2127  1  0.96537400  0.45343500  0.12949700  1
  H  2128  1  0.97825700  0.46216800  0.15666700  1
  H  2129  1  0.92099100  0.45982200  0.12244500  1
  H  2130  1  0.90273200  0.47278200  0.14471300  1
  H  2133  1  0.95171200  0.47988700  0.18942000  1
  H  2134  1  0.92126000  0.48513800  0.18454600  1
  H  2136  1  0.98290500  0.50709500  0.16683100  1
  H  2137  1  0.97261900  0.52869000  0.14678100  1
  H  2139  1  0.90725500  0.51753000  0.15579100  1
  H  2140  1  0.92804700  0.53503500  0.14035700  1
  H  2143  1  0.95773200  0.51817200  0.20070100  1
  H  2144  1  0.90967200  0.51962200  0.09943500  1
  H  2147  1  0.99504000  0.48044700  0.10703100  1
  H  2148  1  0.91556700  0.43868800  0.16649400  1
  H  2153  1  0.04618900  0.51864900  0.89379300  1
  H  2154  1  0.04676300  0.48820500  0.90096700  1
  H  2157  1  0.03107400  0.45706000  0.87059200  1
  H  2158  1  0.02009600  0.46665300  0.84289800  1
  H  2159  1  0.07593700  0.45987200  0.87954000  1
  H  2160  1  0.09564900  0.47143600  0.85780800  1
  H  2163  1  0.04956400  0.48270100  0.81142800  1
  H  2164  1  0.08008400  0.48543700  0.81778700  1
  H  2166  1  0.01942900  0.51151900  0.83243400  1
  H  2167  1  0.03022100  0.53237000  0.85310900  1
  H  2169  1  0.09511500  0.51665600  0.84724900  1
  H  2170  1  0.07493800  0.53552600  0.86191000  1
  H  2173  1  0.04871400  0.52071400  0.79988700  1
  H  2174  1  0.09017000  0.51853500  0.90350500  1
  H  2177  1  0.00194500  0.48714800  0.89149700  1
  H  2178  1  0.08111400  0.43863300  0.83474100  1
  H  2183  1  0.04845800  0.48024500  0.10844900  1
  H  2184  1  0.05380500  0.51020300  0.10109800  1
  H  2187  1  0.04193100  0.54380600  0.13034700  1
  H  2188  1  0.02768900  0.53648100  0.15725100  1
  H  2189  1  0.08632300  0.53444100  0.12501400  1
  H  2190  1  0.10266700  0.51955800  0.14725300  1
  H  2193  1  0.05196600  0.51677000  0.19094300  1
  H  2194  1  0.08206000  0.50926200  0.18677900  1
  H  2196  1  0.01942700  0.49241100  0.16802500  1
  H  2197  1  0.02803900  0.46965500  0.14842100  1
  H  2199  1  0.09389100  0.47571400  0.15811100  1
  H  2200  1  0.07195000  0.46000900  0.14224500  1
  H  2203  1  0.04270500  0.47792300  0.20173100  1
  H  2204  1  0.10418000  0.47371600  0.11318200  1
  H  2207  1  0.00994000  0.51995100  0.10878900  1
  H  2208  1  0.09133200  0.55512600  0.16959500  1
  H  2213  1  0.89199300  0.95052400  0.48155400  1
  H  2214  1  0.89950000  0.94557700  0.51153900  1
  H  2217  1  0.87088800  0.95900400  0.54515800  1
  H  2218  1  0.84424500  0.97370000  0.53779600  1
  H  2219  1  0.87503000  0.91436000  0.53669500  1
  H  2220  1  0.85229600  0.89816900  0.52237000  1
  H  2223  1  0.80983400  0.94990300  0.51902200  1
  H  2224  1  0.81314400  0.91958000  0.51202300  1
  H  2226  1  0.83340800  0.98144000  0.49357800  1
  H  2227  1  0.85247700  0.97173500  0.47084000  1
  H  2229  1  0.84105500  0.90631800  0.47850800  1
  H  2230  1  0.85722300  0.92747800  0.46209700  1
  H  2233  1  0.79887800  0.95925600  0.48039200  1
  H  2234  1  0.88658200  0.89575700  0.47575000  1
  H  2237  1  0.89327200  0.98996900  0.52025700  1
  H  2238  1  0.83130400  0.91063700  0.55801900  1
  H  2243  1  0.10935200  0.94809100  0.52028900  1
  H  2244  1  0.10206000  0.94361500  0.49017700  1
  H  2247  1  0.13030200  0.95856100  0.45694900  1
  H  2248  1  0.15642400  0.97395500  0.46475500  1
  H  2249  1  0.12751900  0.91351500  0.46442200  1
  H  2250  1  0.15074800  0.89784500  0.47848500  1
  H  2253  1  0.19150900  0.95086000  0.48307300  1
  H  2254  1  0.18918000  0.92029200  0.48936400  1
  H  2256  1  0.16695000  0.98101300  0.50933300  1
  H  2257  1  0.14801200  0.97015100  0.53163700  1
  H  2259  1  0.16152500  0.90534300  0.52252500  1
  H  2260  1  0.14459600  0.92561200  0.53929500  1
  H  2263  1  0.20238600  0.95891100  0.52195400  1
  H  2264  1  0.11628700  0.89326500  0.52474800  1
  H  2267  1  0.10629600  0.98778500  0.48281700  1
  H  2268  1  0.17209800  0.91194900  0.44339500  1
  H  2273  1  0.89528900  0.04612300  0.51692000  1
  H  2274  1  0.90186700  0.04947600  0.48651300  1
  H  2277  1  0.87130900  0.03516200  0.45460500  1
  H  2278  1  0.84429800  0.02233900  0.46388700  1
  H  2279  1  0.87867000  0.07952500  0.46097500  1
  H  2280  1  0.85674400  0.09779900  0.47444200  1
  H  2283  1  0.81205600  0.04894100  0.48243200  1
  H  2284  1  0.81716400  0.07935700  0.48767600  1
  H  2286  1  0.83518500  0.01754200  0.50907200  1
  H  2287  1  0.85575700  0.02772000  0.53021600  1
  H  2289  1  0.84664800  0.09314200  0.51945800  1
  H  2290  1  0.86241300  0.07225300  0.53654300  1
  H  2293  1  0.80177800  0.04262000  0.52084000  1
  H  2294  1  0.90288500  0.09093200  0.52051800  1
  H  2297  1  0.89405500  0.00511200  0.48089200  1
  H  2298  1  0.83407700  0.08495800  0.44051500  1
  H  2303  1  0.10367900  0.04330900  0.48441200  1
  H  2304  1  0.09779700  0.04757700  0.51487100  1
  H  2307  1  0.12965400  0.03495500  0.54647300  1
  H  2308  1  0.15657400  0.02226700  0.53675900  1
  H  2309  1  0.12128100  0.07855500  0.53892700  1
  H  2310  1  0.14216800  0.09712000  0.52427900  1
  H  2313  1  0.18790700  0.04888300  0.51645400  1
  H  2314  1  0.18200600  0.07902100  0.51041100  1
  H  2316  1  0.16435800  0.01612800  0.49170000  1
  H  2317  1  0.14325200  0.02530200  0.47065900  1
  H  2319  1  0.15131500  0.09121800  0.47924700  1
  H  2320  1  0.13571800  0.06948500  0.46305200  1
  H  2323  1  0.19603400  0.03959400  0.47744500  1
  H  2324  1  0.09627200  0.08860000  0.47864900  1
  H  2327  1  0.10670300  0.00385000  0.52192500  1
  H  2328  1  0.16719200  0.08583400  0.55725900  1
  H  2333  1  0.89203400  0.47913500  0.05114000  1
  H  2334  1  0.90003100  0.50906100  0.05566000  1
  H  2337  1  0.87195300  0.54295800  0.04187100  1
  H  2338  1  0.84516400  0.53584300  0.02731900  1
  H  2339  1  0.87597500  0.53502800  0.08665400  1
  H  2340  1  0.85306900  0.52121000  0.10303100  1
  H  2343  1  0.81051200  0.51790500  0.05144900  1
  H  2344  1  0.81378500  0.51125800  0.08185200  1
  H  2346  1  0.83353800  0.49172000  0.02019600  1
  H  2347  1  0.85234000  0.46884100  0.03012600  1
  H  2349  1  0.84119800  0.47741800  0.09547600  1
  H  2350  1  0.85709500  0.46053500  0.07449000  1
  H  2353  1  0.79869500  0.47950500  0.04317500  1
  H  2354  1  0.88675600  0.47433000  0.10613600  1
  H  2357  1  0.89401700  0.51714900  0.01127300  1
  H  2358  1  0.83283000  0.55717600  0.09018100  1
  H  2363  1  0.10369000  0.51335900  0.04523900  1
  H  2364  1  0.09819300  0.48283600  0.04958200  1
  H  2367  1  0.12996500  0.45160100  0.03624000  1
  H  2368  1  0.15654700  0.46153000  0.02301000  1
  H  2369  1  0.12243800  0.45901800  0.08025000  1
  H  2370  1  0.14375200  0.47383400  0.09817600  1
  H  2373  1  0.18825000  0.48210000  0.04898000  1
  H  2374  1  0.18296300  0.48799800  0.07925800  1
  H  2376  1  0.16389200  0.50670400  0.01683500  1
  H  2377  1  0.14277300  0.52754100  0.02646400  1
  H  2379  1  0.15223400  0.51891600  0.09218400  1
  H  2380  1  0.13601600  0.53497300  0.07079400  1
  H  2383  1  0.19594700  0.52127100  0.03991600  1
  H  2384  1  0.09674500  0.51873200  0.08998700  1
  H  2387  1  0.10606500  0.47620100  0.00558600  1
  H  2388  1  0.16842700  0.44083400  0.08622700  1
  H  2393  1  0.89649000  0.51463600  0.95666500  1
  H  2394  1  0.90310700  0.48430400  0.95266200  1
  H  2397  1  0.87224800  0.45214800  0.96525100  1
  H  2398  1  0.84496500  0.46108900  0.97773300  1
  H  2399  1  0.88067600  0.45966000  0.92103400  1
  H  2400  1  0.85908200  0.47368800  0.90285100  1
  H  2403  1  0.81326900  0.48046300  0.95082500  1
  H  2404  1  0.81914200  0.48647900  0.92069200  1
  H  2406  1  0.83559300  0.50595000  0.98345000  1
  H  2407  1  0.85631200  0.52750700  0.97444400  1
  H  2409  1  0.84904600  0.51853000  0.90853900  1
  H  2410  1  0.86425800  0.53500800  0.93031400  1
  H  2413  1  0.80302700  0.51888700  0.95819400  1
  H  2414  1  0.90490500  0.51976400  0.91257400  1
  H  2417  1  0.89388900  0.47750200  0.99678200  1
  H  2418  1  0.83501600  0.43993900  0.91434200  1
  H  2423  1  0.10757300  0.47779900  0.95003700  1
  H  2424  1  0.10007800  0.50788200  0.94571100  1
  H  2427  1  0.12857600  0.54123100  0.95988300  1
  H  2428  1  0.15505400  0.53353000  0.97470500  1
  H  2429  1  0.12486900  0.53371300  0.91493200  1
  H  2430  1  0.14772200  0.51961500  0.89878100  1
  H  2433  1  0.18968500  0.51532600  0.95080000  1
  H  2434  1  0.18665100  0.50893100  0.92031300  1
  H  2436  1  0.16584700  0.48905100  0.98160900  1
  H  2437  1  0.14681000  0.46662300  0.97119000  1
  H  2439  1  0.15872500  0.47566400  0.90606900  1
  H  2440  1  0.14240000  0.45882800  0.92675400  1
  H  2443  1  0.20069100  0.47663000  0.95919100  1
  H  2444  1  0.11318400  0.47369700  0.89455100  1
  H  2447  1  0.10544400  0.51541800  0.98968400  1
  H  2448  1  0.16946200  0.55492000  0.91238500  1
  H  2453  1  0.48609100  0.95342200  0.11150500  1
  H  2454  1  0.51514100  0.94704700  0.10175100  1
  H  2457  1  0.55138600  0.95559400  0.12904600  1
  H  2458  1  0.54699200  0.96847800  0.15719800  1
  H  2459  1  0.53860300  0.91217500  0.12210100  1
  H  2460  1  0.52483500  0.89544900  0.14475900  1
  H  2463  1  0.52790400  0.94400100  0.19067600  1
  H  2464  1  0.51906100  0.91434000  0.18591800  1
  H  2466  1  0.50458400  0.97861300  0.17151100  1
  H  2467  1  0.47976100  0.97239100  0.15350200  1
  H  2469  1  0.48256800  0.90567900  0.15884500  1
  H  2470  1  0.46701600  0.92930700  0.14542600  1
  H  2473  1  0.48978800  0.95467400  0.20462400  1
  H  2474  1  0.47740700  0.89709100  0.11369400  1
  H  2477  1  0.52881800  0.99109900  0.11283300  1
  H  2478  1  0.56881300  0.90948400  0.14904800  1
  H  2483  1  0.51663500  0.95413300  0.89348200  1
  H  2484  1  0.48637200  0.95080000  0.90076200  1
  H  2487  1  0.45377600  0.96527200  0.87095500  1
  H  2488  1  0.46250300  0.97819200  0.84380200  1
  H  2489  1  0.46023500  0.92095900  0.87798900  1
  H  2490  1  0.47322400  0.90267600  0.85576100  1
  H  2493  1  0.48026400  0.95169100  0.81103600  1
  H  2494  1  0.48558800  0.92124900  0.81590500  1
  H  2496  1  0.50741200  0.98295300  0.83367700  1
  H  2497  1  0.52903200  0.97268400  0.85371000  1
  H  2499  1  0.51797800  0.90729800  0.84465000  1
  H  2500  1  0.53545300  0.92810800  0.86008900  1
  H  2503  1  0.51850500  0.95791900  0.79981000  1
  H  2504  1  0.52019600  0.90943600  0.90086200  1
  H  2507  1  0.48067500  0.99499100  0.89343000  1
  H  2508  1  0.43914500  0.91547800  0.83385700  1
  H  2513  1  0.51909000  0.04606000  0.10616400  1
  H  2514  1  0.48867200  0.04654300  0.09888400  1
  H  2517  1  0.45746400  0.03076400  0.12914200  1
  H  2518  1  0.46697500  0.01982900  0.15688200  1
  H  2519  1  0.46018700  0.07565800  0.12019000  1
  H  2520  1  0.47161000  0.09538000  0.14199000  1
  H  2523  1  0.48282400  0.04934300  0.18839000  1
  H  2524  1  0.48549200  0.07987000  0.18203800  1
  H  2526  1  0.51182300  0.01929900  0.16751200  1
  H  2527  1  0.53271200  0.03013800  0.14690100  1
  H  2529  1  0.51679200  0.09498900  0.15270000  1
  H  2530  1  0.53576800  0.07486300  0.13810700  1
  H  2533  1  0.52079800  0.04860500  0.20006300  1
  H  2534  1  0.51889100  0.09015600  0.09646600  1
  H  2537  1  0.48768000  0.00163800  0.10844000  1
  H  2538  1  0.43873600  0.08077200  0.16484700  1
  H  2543  1  0.48052600  0.04865100  0.89203600  1
  H  2544  1  0.51050400  0.05397300  0.89930900  1
  H  2547  1  0.54402700  0.04190900  0.87003400  1
  H  2548  1  0.53662500  0.02761700  0.84317900  1
  H  2549  1  0.53476100  0.08632900  0.87526000  1
  H  2550  1  0.51988000  0.10265600  0.85300400  1
  H  2553  1  0.51691400  0.05183200  0.80946600  1
  H  2554  1  0.50947700  0.08195400  0.81355200  1
  H  2556  1  0.49249900  0.01940200  0.83252400  1
  H  2557  1  0.46981000  0.02813500  0.85214800  1
  H  2559  1  0.47599700  0.09394100  0.84222900  1
  H  2560  1  0.46027200  0.07208200  0.85818500  1
  H  2563  1  0.47804100  0.04262000  0.79875000  1
  H  2564  1  0.47399700  0.10425400  0.88722000  1
  H  2567  1  0.52012500  0.01003600  0.89175100  1
  H  2568  1  0.55541300  0.09120400  0.83075800  1
  H  2573  1  0.95353800  0.89379300  0.51730900  1
  H  2574  1  0.94977500  0.90120700  0.48712300  1
  H  2577  1  0.96373500  0.87149600  0.45419100  1
  H  2578  1  0.97687700  0.84436600  0.46265600  1
  H  2579  1  0.91966000  0.87838500  0.46126800  1
  H  2580  1  0.90147900  0.85619100  0.47446300  1
  H  2583  1  0.95066300  0.81141000  0.48067700  1
  H  2584  1  0.92030400  0.81624300  0.48650800  1
  H  2586  1  0.98239000  0.83412900  0.50724300  1
  H  2587  1  0.97241900  0.85387700  0.52927200  1
  H  2589  1  0.90681700  0.84490500  0.51913300  1
  H  2590  1  0.92787700  0.86027500  0.53637100  1
  H  2593  1  0.95835300  0.80045400  0.51893700  1
  H  2594  1  0.90878300  0.90101300  0.52155900  1
  H  2597  1  0.99387200  0.89364000  0.48033300  1
  H  2598  1  0.91397000  0.83414800  0.44002600  1
  H  2603  1  0.95053100  0.10764700  0.47958600  1
  H  2604  1  0.94633500  0.10044600  0.50975300  1
  H  2607  1  0.96105100  0.12913400  0.54275000  1
  H  2608  1  0.97583700  0.15553200  0.53473800  1
  H  2609  1  0.91603300  0.12535400  0.53552600  1
  H  2610  1  0.89978200  0.14822800  0.52153900  1
  H  2613  1  0.95195800  0.19000900  0.51648900  1
  H  2614  1  0.92141200  0.18706700  0.51034000  1
  H  2616  1  0.98244300  0.16587400  0.48990500  1
  H  2617  1  0.97172400  0.14660100  0.46786900  1
  H  2619  1  0.90681900  0.15911100  0.47740400  1
  H  2620  1  0.92726300  0.14254400  0.46051100  1
  H  2623  1  0.95979200  0.20094200  0.47786500  1
  H  2624  1  0.89551900  0.11364500  0.47528300  1
  H  2627  1  0.99065400  0.10549500  0.51668100  1
  H  2628  1  0.91360900  0.16991600  0.55647300  1
  H  2633  1  0.04859700  0.89387000  0.48360800  1
  H  2634  1  0.05230400  0.90057900  0.51395800  1
  H  2637  1  0.03773900  0.87046400  0.54614400  1
  H  2638  1  0.02433900  0.84364500  0.53709500  1
  H  2639  1  0.08213000  0.87698000  0.53941800  1
  H  2640  1  0.09993900  0.85467900  0.52592400  1
  H  2643  1  0.05025300  0.81077100  0.51847800  1
  H  2644  1  0.08072300  0.81533200  0.51304700  1
  H  2646  1  0.01909000  0.83426000  0.49215000  1
  H  2647  1  0.02940000  0.85449800  0.47071000  1
  H  2649  1  0.09479400  0.84449400  0.48098600  1
  H  2650  1  0.07401000  0.86054400  0.46400800  1
  H  2653  1  0.04364500  0.80050100  0.47983500  1
  H  2654  1  0.09317200  0.90076100  0.47969000  1
  H  2657  1  0.00797500  0.89347300  0.52008600  1
  H  2658  1  0.08691100  0.83229500  0.56001100  1
  H  2663  1  0.04624400  0.10522000  0.51736600  1
  H  2664  1  0.05175500  0.09902400  0.48717800  1
  H  2667  1  0.03973200  0.12956100  0.45464400  1
  H  2668  1  0.02550900  0.15616400  0.46299000  1
  H  2669  1  0.08403400  0.12370300  0.46395400  1
  H  2670  1  0.10046800  0.14541400  0.47951300  1
  H  2673  1  0.04969500  0.18907000  0.48398900  1
  H  2674  1  0.07980500  0.18466200  0.49132800  1
  H  2676  1  0.01712900  0.16496600  0.50763300  1
  H  2677  1  0.02594500  0.14459700  0.52954600  1
  H  2679  1  0.09169000  0.15490100  0.52360300  1
  H  2680  1  0.06981300  0.13865500  0.53901400  1
  H  2683  1  0.03882600  0.19744100  0.52338900  1
  H  2684  1  0.10134900  0.10990400  0.52485100  1
  H  2687  1  0.00773900  0.10668000  0.47804600  1
  H  2688  1  0.08921500  0.16934000  0.44512600  1
  C  1  1  0.06032900  0.24241600  0.43270400  1
  C  2  1  0.03818100  0.24473000  0.42057500  1
  C  3  1  0.02721200  0.22515100  0.40917800  1
  C  4  1  0.03756500  0.20245500  0.41092100  1
  C  5  1  0.05841500  0.19931900  0.42432300  1
  C  6  1  0.07071400  0.21939100  0.43330400  1
  C  9  1  0.07103500  0.26190600  0.44567400  1
  C  10  1  0.07154400  0.28535300  0.43627400  1
  C  11  1  0.07891300  0.30490900  0.45038700  1
  C  12  1  0.09014000  0.30085500  0.47234100  1
  C  13  1  0.08993000  0.27788900  0.48218700  1
  C  14  1  0.07987300  0.25884100  0.46923200  1
  C  27  1  0.94141500  0.76089800  0.42740400  1
  C  28  1  0.96442000  0.75872000  0.41695300  1
  C  29  1  0.97607800  0.77838300  0.40643300  1
  C  30  1  0.96541800  0.80098100  0.40728400  1
  C  31  1  0.94387500  0.80394800  0.41960700  1
  C  32  1  0.93096300  0.78385300  0.42754600  1
  C  35  1  0.92967000  0.74106200  0.43874200  1
  C  36  1  0.92947400  0.71836500  0.42774700  1
  C  37  1  0.92170100  0.69796000  0.44029500  1
  C  38  1  0.90956700  0.70058700  0.46200500  1
  C  39  1  0.90866000  0.72300200  0.47306200  1
  C  40  1  0.91922500  0.74285700  0.46177400  1
  C  53  1  0.94588900  0.24042700  0.57589900  1
  C  54  1  0.96706200  0.24040200  0.58976300  1
  C  55  1  0.97699500  0.21900400  0.59857900  1
  C  56  1  0.96615600  0.19710300  0.59307000  1
  C  57  1  0.94585500  0.19669400  0.57855300  1
  C  58  1  0.93479300  0.21816000  0.57152900  1
  C  61  1  0.93692400  0.26182100  0.56497600  1
  C  62  1  0.93429600  0.28311000  0.57832000  1
  C  63  1  0.92519600  0.30384900  0.56739100  1
  C  64  1  0.91623800  0.30326000  0.54403700  1
  C  65  1  0.91830500  0.28231300  0.53061800  1
  C  66  1  0.92910400  0.26207000  0.54084300  1
  C  79  1  0.05891800  0.75905100  0.57092900  1
  C  80  1  0.03586900  0.75669400  0.58128000  1
  C  81  1  0.02412600  0.77616300  0.59210100  1
  C  82  1  0.03469200  0.79881600  0.59155600  1
  C  83  1  0.05633600  0.80196800  0.57954600  1
  C  84  1  0.06933800  0.78204700  0.57130600  1
  C  87  1  0.07074800  0.73952700  0.55904200  1
  C  88  1  0.07046700  0.71625300  0.56883000  1
  C  89  1  0.07926300  0.69661900  0.55574200  1
  C  90  1  0.09201700  0.70022600  0.53457800  1
  C  91  1  0.09298900  0.72311900  0.52459300  1
  C  92  1  0.08187400  0.74234600  0.53641500  1
  C  105  1  0.43257600  0.05580000  0.24176100  1
  C  106  1  0.42227200  0.03287700  0.24510400  1
  C  107  1  0.41141600  0.02032400  0.22618500  1
  C  108  1  0.41161300  0.02996400  0.20312100  1
  C  109  1  0.42376400  0.05134200  0.19885200  1
  C  110  1  0.43245500  0.06499600  0.21820500  1
  C  113  1  0.44459000  0.06821000  0.26089900  1
  C  114  1  0.43488200  0.06887400  0.28424100  1
  C  115  1  0.44820700  0.07771600  0.30374200  1
  C  116  1  0.46969300  0.08978700  0.29964200  1
  C  117  1  0.47975000  0.08966600  0.27676300  1
  C  118  1  0.46755300  0.07849500  0.25779900  1
  C  131  1  0.42643200  0.94152900  0.75982500  1
  C  132  1  0.41526000  0.96415500  0.75732900  1
  C  133  1  0.40464400  0.97592200  0.77685500  1
  C  134  1  0.40630000  0.96593400  0.79971100  1
  C  135  1  0.41932800  0.94486200  0.80297500  1
  C  136  1  0.42738200  0.93172400  0.78306000  1
  C  139  1  0.43789700  0.92983500  0.74000600  1
  C  140  1  0.42695000  0.92948300  0.71726200  1
  C  141  1  0.43970200  0.92210100  0.69684800  1
  C  142  1  0.46163700  0.91035200  0.69950200  1
  C  143  1  0.47258000  0.90939700  0.72196700  1
  C  144  1  0.46108900  0.91974400  0.74180400  1
  C  157  1  0.56555400  0.94356900  0.23931200  1
  C  158  1  0.57665500  0.96625200  0.23764000  1
  C  159  1  0.58678400  0.97434400  0.21608100  1
  C  160  1  0.58581200  0.95984300  0.19574900  1
  C  161  1  0.57464300  0.93751400  0.19706700  1
  C  162  1  0.56553400  0.92884600  0.21881500  1
  C  165  1  0.55683800  0.93465400  0.26155600  1
  C  166  1  0.57187000  0.93452200  0.28182900  1
  C  167  1  0.56343500  0.92559600  0.30372200  1
  C  168  1  0.54114200  0.91440200  0.30532100  1
  C  169  1  0.52635300  0.91347000  0.28518500  1
  C  170  1  0.53406200  0.92378200  0.26355500  1
  C  183  1  0.56950400  0.06137500  0.75968800  1
  C  184  1  0.57958500  0.03816300  0.75794800  1
  C  185  1  0.59033600  0.02689400  0.77772000  1
  C  186  1  0.58988600  0.03810900  0.80006500  1
  C  187  1  0.57816000  0.06002200  0.80261600  1
  C  188  1  0.57025000  0.07258000  0.78228800  1
  C  191  1  0.55763800  0.07275100  0.73993600  1
  C  192  1  0.56741400  0.07185800  0.71669400  1
  C  193  1  0.55430300  0.08019100  0.69688800  1
  C  194  1  0.53321900  0.09313800  0.70018700  1
  C  195  1  0.52320100  0.09459400  0.72304300  1
  C  196  1  0.53502300  0.08394200  0.74253100  1
  C  209  1  0.24290000  0.43032600  0.05847200  1
  C  210  1  0.24545200  0.41821300  0.03633200  1
  C  211  1  0.22602600  0.40673800  0.02516200  1
  C  212  1  0.20322600  0.40834700  0.03529100  1
  C  213  1  0.19982300  0.42189500  0.05598200  1
  C  214  1  0.21970400  0.43097500  0.06850700  1
  C  217  1  0.26229200  0.44333100  0.06937500  1
  C  218  1  0.28584500  0.43415400  0.06985500  1
  C  219  1  0.30527200  0.44833700  0.07746800  1
  C  220  1  0.30098800  0.47023300  0.08874200  1
  C  221  1  0.27790800  0.47980700  0.08868000  1
  C  222  1  0.25901800  0.46677000  0.07845100  1
  C  235  1  0.76025900  0.42862900  0.94088300  1
  C  236  1  0.75756600  0.41772700  0.96362700  1
  C  237  1  0.77685900  0.40689900  0.97558600  1
  C  238  1  0.79978200  0.40811300  0.96569900  1
  C  239  1  0.80335000  0.42058000  0.94432900  1
  C  240  1  0.78360000  0.42897600  0.93114300  1
  C  243  1  0.74064400  0.44053800  0.92911300  1
  C  244  1  0.71724400  0.43095200  0.92967000  1
  C  245  1  0.69745700  0.44429900  0.92159000  1
  C  246  1  0.70109100  0.46560100  0.90902300  1
  C  247  1  0.72406800  0.47533500  0.90754500  1
  C  248  1  0.74339100  0.46325300  0.91817500  1
  C  261  1  0.23886900  0.57493300  0.94588900  1
  C  262  1  0.23858500  0.58816200  0.96746000  1
  C  263  1  0.21703100  0.59669700  0.97732900  1
  C  264  1  0.19530800  0.59157900  0.96594600  1
  C  265  1  0.19520000  0.57773700  0.94516700  1
  C  266  1  0.21682300  0.57107700  0.93421600  1
  C  269  1  0.26025400  0.56410400  0.93688100  1
  C  270  1  0.28142300  0.57757800  0.93413600  1
  C  271  1  0.30208700  0.56678600  0.92472100  1
  C  272  1  0.30155600  0.54344500  0.91572900  1
  C  273  1  0.28068100  0.52993500  0.91788200  1
  C  274  1  0.26047400  0.54003200  0.92886900  1
  C  287  1  0.76161600  0.57100800  0.06029700  1
  C  288  1  0.76010100  0.58123900  0.03714100  1
  C  289  1  0.78008200  0.59178700  0.02604700  1
  C  290  1  0.80231900  0.59116300  0.03747100  1
  C  291  1  0.80461000  0.57913000  0.05922900  1
  C  292  1  0.78414100  0.57127100  0.07160800  1
  C  295  1  0.74156400  0.55966400  0.07159200  1
  C  296  1  0.71892900  0.57075100  0.07144200  1
  C  297  1  0.69851000  0.55833700  0.07933500  1
  C  298  1  0.70083100  0.53661500  0.09144700  1
  C  299  1  0.72318000  0.52543700  0.09248600  1
  C  300  1  0.74319500  0.53665500  0.08213200  1
  C  313  1  0.24198400  0.05918800  0.56788600  1
  C  314  1  0.24483500  0.03715700  0.58012900  1
  C  315  1  0.22558300  0.02583600  0.59173900  1
  C  316  1  0.20265500  0.03566100  0.59011700  1
  C  317  1  0.19895800  0.05618700  0.57639600  1
  C  318  1  0.21865500  0.06889200  0.56715100  1
  C  321  1  0.26127800  0.07031300  0.55493300  1
  C  322  1  0.28474400  0.07111600  0.56428700  1
  C  323  1  0.30419700  0.07871200  0.55015300  1
  C  324  1  0.29997300  0.08996600  0.52824500  1
  C  325  1  0.27696700  0.08963500  0.51849600  1
  C  326  1  0.25807100  0.07926800  0.53143300  1
  C  339  1  0.76001700  0.94020500  0.57248900  1
  C  340  1  0.75840000  0.96329600  0.58283700  1
  C  341  1  0.77839700  0.97454900  0.59317000  1
  C  342  1  0.80073900  0.96335100  0.59219800  1
  C  343  1  0.80311500  0.94157200  0.58013600  1
  C  344  1  0.78263600  0.92907900  0.57252100  1
  C  347  1  0.73998800  0.92887800  0.56112600  1
  C  348  1  0.71733800  0.92889400  0.57218900  1
  C  349  1  0.69683600  0.92132200  0.55967300  1
  C  350  1  0.69929400  0.90921000  0.53793100  1
  C  351  1  0.72164300  0.90825100  0.52674800  1
  C  352  1  0.74163000  0.91856600  0.53802700  1
  C  365  1  0.24094500  0.94637800  0.42382500  1
  C  366  1  0.24051400  0.96796900  0.41063300  1
  C  367  1  0.21891100  0.97757400  0.40191700  1
  C  368  1  0.19729200  0.96589500  0.40680200  1
  C  369  1  0.19733200  0.94510200  0.42062500  1
  C  370  1  0.21903400  0.93440100  0.42743700  1
  C  373  1  0.26232800  0.93754800  0.43477500  1
  C  374  1  0.28352200  0.93486400  0.42134300  1
  C  375  1  0.30417900  0.92549300  0.43218000  1
  C  376  1  0.30361000  0.91644800  0.45549800  1
  C  377  1  0.28270900  0.91856300  0.46897800  1
  C  378  1  0.26250000  0.92952000  0.45884400  1
  C  391  1  0.75941600  0.05915000  0.42964700  1
  C  392  1  0.75659100  0.03649800  0.41856300  1
  C  393  1  0.77585200  0.02451500  0.40766300  1
  C  394  1  0.79882900  0.03426900  0.40899500  1
  C  395  1  0.80244100  0.05542000  0.42172200  1
  C  396  1  0.78279300  0.06874800  0.43012300  1
  C  399  1  0.73992900  0.07110000  0.44154900  1
  C  400  1  0.71663200  0.07108200  0.43174400  1
  C  401  1  0.69699800  0.07969000  0.44495700  1
  C  402  1  0.70063600  0.09212200  0.46631300  1
  C  403  1  0.72354500  0.09297500  0.47626500  1
  C  404  1  0.74272500  0.08191200  0.46433100  1
  C  417  1  0.05582500  0.43260100  0.75788400  1
  C  418  1  0.03292700  0.42221800  0.75461800  1
  C  419  1  0.02049600  0.41127000  0.77356300  1
  C  420  1  0.03022900  0.41145300  0.79658700  1
  C  421  1  0.05158600  0.42366600  0.80079100  1
  C  422  1  0.06512400  0.43245700  0.78140200  1
  C  425  1  0.06809300  0.44471300  0.73871600  1
  C  426  1  0.06865700  0.43508100  0.71533700  1
  C  427  1  0.07733800  0.44849700  0.69582700  1
  C  428  1  0.08936700  0.47000800  0.69993600  1
  C  429  1  0.08933700  0.47999600  0.72284600  1
  C  430  1  0.07831300  0.46770200  0.74183100  1
  C  443  1  0.94144700  0.42634300  0.24051100  1
  C  444  1  0.96410200  0.41525800  0.24312200  1
  C  445  1  0.97591100  0.40451900  0.22368700  1
  C  446  1  0.96593400  0.40596700  0.20081200  1
  C  447  1  0.94484300  0.41893300  0.19743400  1
  C  448  1  0.93164600  0.42706700  0.21727500  1
  C  451  1  0.92967300  0.43789500  0.26022200  1
  C  452  1  0.92921400  0.42700900  0.28298300  1
  C  453  1  0.92180200  0.43984300  0.30333400  1
  C  454  1  0.91003700  0.46175200  0.30057000  1
  C  455  1  0.90915500  0.47262600  0.27806700  1
  C  456  1  0.91958000  0.46107600  0.25830100  1
  C  469  1  0.94315600  0.56524400  0.76142900  1
  C  470  1  0.96582200  0.57638000  0.76311000  1
  C  471  1  0.97392800  0.58643900  0.78469800  1
  C  472  1  0.95944800  0.58537300  0.80504200  1
  C  473  1  0.93714200  0.57415400  0.80371500  1
  C  474  1  0.92846200  0.56512200  0.78194400  1
  C  477  1  0.93421400  0.55659200  0.73917300  1
  C  478  1  0.93398500  0.57170800  0.71896600  1
  C  479  1  0.92497000  0.56335200  0.69708000  1
  C  480  1  0.91379400  0.54105300  0.69543100  1
  C  481  1  0.91294500  0.52619300  0.71551500  1
  C  482  1  0.92334800  0.53381700  0.73712900  1
  C  495  1  0.06130700  0.56948700  0.24059300  1
  C  496  1  0.03807600  0.57953900  0.24222700  1
  C  497  1  0.02685800  0.59022700  0.22239600  1
  C  498  1  0.03814300  0.58973800  0.20008800  1
  C  499  1  0.06007800  0.57803000  0.19763300  1
  C  500  1  0.07257700  0.57017700  0.21802000  1
  C  503  1  0.07262000  0.55768300  0.26042300  1
  C  504  1  0.07156900  0.56747700  0.28365600  1
  C  505  1  0.07984300  0.55441700  0.30351900  1
  C  506  1  0.09284500  0.53335200  0.30031000  1
  C  507  1  0.09445000  0.52331300  0.27747400  1
  C  508  1  0.08387600  0.53509000  0.25791600  1
  C  521  1  0.43063400  0.24312000  0.94184600  1
  C  522  1  0.41851900  0.24567800  0.96398400  1
  C  523  1  0.40706100  0.22624900  0.97516900  1
  C  524  1  0.40866900  0.20344800  0.96504100  1
  C  525  1  0.42220800  0.20004300  0.94434300  1
  C  526  1  0.43131300  0.21992300  0.93182700  1
  C  529  1  0.44356400  0.26254100  0.93091100  1
  C  530  1  0.43424300  0.28603400  0.93036200  1
  C  531  1  0.44833100  0.30553500  0.92277300  1
  C  532  1  0.47027100  0.30136000  0.91154000  1
  C  533  1  0.47997600  0.27833300  0.91162900  1
  C  534  1  0.46702600  0.25937700  0.92185400  1
  C  547  1  0.42860300  0.76048700  0.05956200  1
  C  548  1  0.41730500  0.75787000  0.03700400  1
  C  549  1  0.40658500  0.77730000  0.02516200  1
  C  550  1  0.40816600  0.80020400  0.03504700  1
  C  551  1  0.42100000  0.80363500  0.05621600  1
  C  552  1  0.42946200  0.78381400  0.06925500  1
  C  555  1  0.44031200  0.74073800  0.07124600  1
  C  556  1  0.42988700  0.71771200  0.07144300  1
  C  557  1  0.44281500  0.69761200  0.07940000  1
  C  558  1  0.46465700  0.70071700  0.09118400  1
  C  559  1  0.47524400  0.72335100  0.09191600  1
  C  560  1  0.46343500  0.74293300  0.08143500  1
  C  573  1  0.57506900  0.23955400  0.05431000  1
  C  574  1  0.58832200  0.23920400  0.03275200  1
  C  575  1  0.59677000  0.21762100  0.02287900  1
  C  576  1  0.59153100  0.19591300  0.03423000  1
  C  577  1  0.57770700  0.19585100  0.05502500  1
  C  578  1  0.57107700  0.21750000  0.06595000  1
  C  581  1  0.56432600  0.26101900  0.06326600  1
  C  582  1  0.57778500  0.28224300  0.06575100  1
  C  583  1  0.56704300  0.30299100  0.07505800  1
  C  584  1  0.54376900  0.30248400  0.08423200  1
  C  585  1  0.53026200  0.28158200  0.08231100  1
  C  586  1  0.54029700  0.26131000  0.07139500  1
  C  599  1  0.56987300  0.76006500  0.93952100  1
  C  600  1  0.58028600  0.75841800  0.96259200  1
  C  601  1  0.59110100  0.77828000  0.97365900  1
  C  602  1  0.59054800  0.80056100  0.96231600  1
  C  603  1  0.57846600  0.80300300  0.94060000  1
  C  604  1  0.57031200  0.78262900  0.92825700  1
  C  607  1  0.55807800  0.74019800  0.92829800  1
  C  608  1  0.56849100  0.71722600  0.92858600  1
  C  609  1  0.55565500  0.69718300  0.92039100  1
  C  610  1  0.53411200  0.70009500  0.90811400  1
  C  611  1  0.52345700  0.72269400  0.90724600  1
  C  612  1  0.53511900  0.74238200  0.91773400  1
  C  625  1  0.95102200  0.76106700  0.55246700  1
  C  626  1  0.97434200  0.76765500  0.55538600  1
  C  627  1  0.97906100  0.78692100  0.56922200  1
  C  628  1  0.96418900  0.80633300  0.56655700  1
  C  629  1  0.94232900  0.80459500  0.55144800  1
  C  630  1  0.93411300  0.77921900  0.55134100  1
  C  633  1  0.94611600  0.73773600  0.54722000  1
  C  634  1  0.94722300  0.71943000  0.56399700  1
  C  635  1  0.94810900  0.69413900  0.55552800  1
  C  636  1  0.93393500  0.69233700  0.53308400  1
  C  637  1  0.93113200  0.71181200  0.51837800  1
  C  638  1  0.94455800  0.73129800  0.52367900  1
  C  651  1  0.04414000  0.23514300  0.55673300  1
  C  652  1  0.02206200  0.22577500  0.56121400  1
  C  653  1  0.02094900  0.20639500  0.57579600  1
  C  654  1  0.03753900  0.18876000  0.57149000  1
  C  655  1  0.05764400  0.19325500  0.55468900  1
  C  656  1  0.06315200  0.21930800  0.55490600  1
  C  659  1  0.04572200  0.25888200  0.55165600  1
  C  660  1  0.04375600  0.27646800  0.56898300  1
  C  661  1  0.04272300  0.30191100  0.56128100  1
  C  662  1  0.05697500  0.30483400  0.53903700  1
  C  663  1  0.06176600  0.28561400  0.52450600  1
  C  664  1  0.04811500  0.26599200  0.52838200  1
  C  677  1  0.05023300  0.76311900  0.44438200  1
  C  678  1  0.02661500  0.76931500  0.44277200  1
  C  679  1  0.02112200  0.78888200  0.42950600  1
  C  680  1  0.03552300  0.80851100  0.43292900  1
  C  681  1  0.05808400  0.80663200  0.44693300  1
  C  682  1  0.06683900  0.78154800  0.44536900  1
  C  685  1  0.05565200  0.74000600  0.44985700  1
  C  686  1  0.05463100  0.72167200  0.43319500  1
  C  687  1  0.05395500  0.69651200  0.44185600  1
  C  688  1  0.06832200  0.69471700  0.46417300  1
  C  689  1  0.07118500  0.71423600  0.47876300  1
  C  690  1  0.05809800  0.73387800  0.47339100  1
  C  703  1  0.95032000  0.24058900  0.44402100  1
  C  704  1  0.97403600  0.23526000  0.44143500  1
  C  705  1  0.98016800  0.21583900  0.42839400  1
  C  706  1  0.96595400  0.19592000  0.43077400  1
  C  707  1  0.94370800  0.19678600  0.44532300  1
  C  708  1  0.93433000  0.22167300  0.44526600  1
  C  711  1  0.94421500  0.26343800  0.45007400  1
  C  712  1  0.94386400  0.28201400  0.43355800  1
  C  713  1  0.94708900  0.30700100  0.44228900  1
  C  714  1  0.93491200  0.30893800  0.46579900  1
  C  715  1  0.93396200  0.28983300  0.48110900  1
  C  716  1  0.94464700  0.26935100  0.47383000  1
  C  729  1  0.55356100  0.95137600  0.76146500  1
  C  730  1  0.55553200  0.97496700  0.76750900  1
  C  731  1  0.56819900  0.98081500  0.78725900  1
  C  732  1  0.56542700  0.96627500  0.80687900  1
  C  733  1  0.55148700  0.94366200  0.80518400  1
  C  734  1  0.55257600  0.93490100  0.78002000  1
  C  737  1  0.54806600  0.94577100  0.73833000  1
  C  738  1  0.56460200  0.94699300  0.71982300  1
  C  739  1  0.55590600  0.94819400  0.69463700  1
  C  740  1  0.53330800  0.93428200  0.69288400  1
  C  741  1  0.51870600  0.93141600  0.71240400  1
  C  742  1  0.52443000  0.94420200  0.73219800  1
  C  755  1  0.55739400  0.04771300  0.23358400  1
  C  756  1  0.55711700  0.02522600  0.22399300  1
  C  757  1  0.56977300  0.02154900  0.20361700  1
  C  758  1  0.56780800  0.03925900  0.18664900  1
  C  759  1  0.55387600  0.06132000  0.19169400  1
  C  760  1  0.55722000  0.06681400  0.21764300  1
  C  763  1  0.55199800  0.04989100  0.25721000  1
  C  764  1  0.56875700  0.04647100  0.27509100  1
  C  765  1  0.56069100  0.04527100  0.30044000  1
  C  766  1  0.53819200  0.05919800  0.30320500  1
  C  767  1  0.52380200  0.06398200  0.28386000  1
  C  768  1  0.52852800  0.05123600  0.26386700  1
  C  781  1  0.44279200  0.05028700  0.76081900  1
  C  782  1  0.44062400  0.02662200  0.76662000  1
  C  783  1  0.42741100  0.02103900  0.78619600  1
  C  784  1  0.43096300  0.03508200  0.80601500  1
  C  785  1  0.44507100  0.05754100  0.80437700  1
  C  786  1  0.44395900  0.06661400  0.77944000  1
  C  789  1  0.44877900  0.05594100  0.73791900  1
  C  790  1  0.43245200  0.05535700  0.71927900  1
  C  791  1  0.44171900  0.05475800  0.69436700  1
  C  792  1  0.46392600  0.06934800  0.69311500  1
  C  793  1  0.47800900  0.07225100  0.71300200  1
  C  794  1  0.47241600  0.05882400  0.73235300  1
  C  807  1  0.45416900  0.94965400  0.24354200  1
  C  808  1  0.45119300  0.97289100  0.23659900  1
  C  809  1  0.43726900  0.97687000  0.21725500  1
  C  810  1  0.44130800  0.96214700  0.19799800  1
  C  811  1  0.45618100  0.94022900  0.20042400  1
  C  812  1  0.45601600  0.93240700  0.22587300  1
  C  815  1  0.45489700  0.94442700  0.26726200  1
  C  816  1  0.43518400  0.94450300  0.28242300  1
  C  817  1  0.43982700  0.94748100  0.30854300  1
  C  818  1  0.46115300  0.93281100  0.31431100  1
  C  819  1  0.47948300  0.93078700  0.29814200  1
  C  820  1  0.47708200  0.94258000  0.27715400  1
  C  833  1  0.76559700  0.55399200  0.95128900  1
  C  834  1  0.77140700  0.55587000  0.97495200  1
  C  835  1  0.79097300  0.56877300  0.98089500  1
  C  836  1  0.81081400  0.56577100  0.96667900  1
  C  837  1  0.80927200  0.55182100  0.94404200  1
  C  838  1  0.78426200  0.55328700  0.93493800  1
  C  841  1  0.74241100  0.54933100  0.94532100  1
  C  842  1  0.72440600  0.56634400  0.94686500  1
  C  843  1  0.69900300  0.55836200  0.94724200  1
  C  844  1  0.69674400  0.53625200  0.93268700  1
  C  845  1  0.71589900  0.52123300  0.92966400  1
  C  846  1  0.73567200  0.52595400  0.94288400  1
  C  859  1  0.23271600  0.55524400  0.04453100  1
  C  860  1  0.22317100  0.55910700  0.02239200  1
  C  861  1  0.20369500  0.57353900  0.02111300  1
  C  862  1  0.18612800  0.56917000  0.03780300  1
  C  863  1  0.19082000  0.55263100  0.05811500  1
  C  864  1  0.21690600  0.55351100  0.06363700  1
  C  867  1  0.25650400  0.55020500  0.04606300  1
  C  868  1  0.27410900  0.56735700  0.04303400  1
  C  869  1  0.29959900  0.55978900  0.04201300  1
  C  870  1  0.30274000  0.53745400  0.05604900  1
  C  871  1  0.28364900  0.52288200  0.06112000  1
  C  872  1  0.26362300  0.52692000  0.04813100  1
  C  885  1  0.75931800  0.44479700  0.04957000  1
  C  886  1  0.76600300  0.44249500  0.02616700  1
  C  887  1  0.78561600  0.42903300  0.02132200  1
  C  888  1  0.80489600  0.43214900  0.03619000  1
  C  889  1  0.80276900  0.44654000  0.05842500  1
  C  890  1  0.77741400  0.44620900  0.06649100  1
  C  893  1  0.73617800  0.45092500  0.05427200  1
  C  894  1  0.71745400  0.43464200  0.05364800  1
  C  895  1  0.69249400  0.44395500  0.05283100  1
  C  896  1  0.69135200  0.46624000  0.06735300  1
  C  897  1  0.71125000  0.48038300  0.07009200  1
  C  898  1  0.73055500  0.47460600  0.05665700  1
  C  911  1  0.24078000  0.44342500  0.94964200  1
  C  912  1  0.23518900  0.44044800  0.97324500  1
  C  913  1  0.21601500  0.42682000  0.97881800  1
  C  914  1  0.19615800  0.42929300  0.96452500  1
  C  915  1  0.19705700  0.44428300  0.94256200  1
  C  916  1  0.22204200  0.44473300  0.93345000  1
  C  919  1  0.26366000  0.44964000  0.94390900  1
  C  920  1  0.28228400  0.43318300  0.94319400  1
  C  921  1  0.30727300  0.44201500  0.94623000  1
  C  922  1  0.30892300  0.46565800  0.93424100  1
  C  923  1  0.28968600  0.48083300  0.93361500  1
  C  924  1  0.26952700  0.47339300  0.94478200  1
  C  937  1  0.75900000  0.95100500  0.44693500  1
  C  938  1  0.76538500  0.97430900  0.44353900  1
  C  939  1  0.78482800  0.97901300  0.42994900  1
  C  940  1  0.80425900  0.96424600  0.43276100  1
  C  941  1  0.80248400  0.94251400  0.44799100  1
  C  942  1  0.77719800  0.93422700  0.44838300  1
  C  945  1  0.73580100  0.94603300  0.45252900  1
  C  946  1  0.71736300  0.94667900  0.43589000  1
  C  947  1  0.69223600  0.94811600  0.44469000  1
  C  948  1  0.69054300  0.93415000  0.46728200  1
  C  949  1  0.71018200  0.93119900  0.48174100  1
  C  950  1  0.72965800  0.94453200  0.47616900  1
  C  963  1  0.23334800  0.04443700  0.44385600  1
  C  964  1  0.22389900  0.02228600  0.43988500  1
  C  965  1  0.20462900  0.02099800  0.42517300  1
  C  966  1  0.18691200  0.03756100  0.42943300  1
  C  967  1  0.19129300  0.05783100  0.44610800  1
  C  968  1  0.21739700  0.06341900  0.44563300  1
  C  971  1  0.25716900  0.04606200  0.44879000  1
  C  972  1  0.27477900  0.04331100  0.43156800  1
  C  973  1  0.30032800  0.04266800  0.43908100  1
  C  974  1  0.30328100  0.05693100  0.46130600  1
  C  975  1  0.28411300  0.06178900  0.47587200  1
  C  976  1  0.26438200  0.04829700  0.47202800  1
  C  989  1  0.76419700  0.04936700  0.55604100  1
  C  990  1  0.77022200  0.02569400  0.55750500  1
  C  991  1  0.78972500  0.01991300  0.57076000  1
  C  992  1  0.80944600  0.03427000  0.56766200  1
  C  993  1  0.80784000  0.05689900  0.55373700  1
  C  994  1  0.78278200  0.06582500  0.55519400  1
  C  997  1  0.74105700  0.05502500  0.55075400  1
  C  998  1  0.72274400  0.05371600  0.56743600  1
  C  999  1  0.69751200  0.05345600  0.55893700  1
  C  1000  1  0.69570100  0.06801800  0.53676800  1
  C  1001  1  0.71514900  0.07092800  0.52211700  1
  C  1002  1  0.73483100  0.05781200  0.52728800  1
  C  1015  1  0.24180800  0.94957600  0.55605300  1
  C  1016  1  0.23636600  0.97325700  0.55875000  1
  C  1017  1  0.21692200  0.97915200  0.57183100  1
  C  1018  1  0.19703500  0.96496800  0.56911100  1
  C  1019  1  0.19812900  0.94275300  0.55452300  1
  C  1020  1  0.22302900  0.93345100  0.55473200  1
  C  1023  1  0.26459800  0.94365800  0.54975500  1
  C  1024  1  0.28323900  0.94297700  0.56618300  1
  C  1025  1  0.30811200  0.94671400  0.55735500  1
  C  1026  1  0.31000000  0.93494400  0.53361400  1
  C  1027  1  0.29079200  0.93406700  0.51841400  1
  C  1028  1  0.27038200  0.94467000  0.52597700  1
  C  1041  1  0.95132100  0.55352200  0.23883700  1
  C  1042  1  0.97491900  0.55543800  0.23280000  1
  C  1043  1  0.98079800  0.56797300  0.21297500  1
  C  1044  1  0.96627900  0.56507200  0.19336400  1
  C  1045  1  0.94363100  0.55119500  0.19512300  1
  C  1046  1  0.93486200  0.55244600  0.22027400  1
  C  1049  1  0.94571300  0.54802900  0.26196900  1
  C  1050  1  0.94684200  0.56458100  0.28046400  1
  C  1051  1  0.94789200  0.55587900  0.30565600  1
  C  1052  1  0.93386600  0.53334300  0.30733900  1
  C  1053  1  0.93112100  0.51872000  0.28780700  1
  C  1054  1  0.94406700  0.52440000  0.26810400  1
  C  1067  1  0.04750300  0.55756200  0.76657200  1
  C  1068  1  0.02504200  0.55714900  0.77622400  1
  C  1069  1  0.02136100  0.56960600  0.79672100  1
  C  1070  1  0.03914400  0.56762100  0.81360900  1
  C  1071  1  0.06125000  0.55382100  0.80841100  1
  C  1072  1  0.06664500  0.55734100  0.78246400  1
  C  1075  1  0.04963400  0.55222300  0.74292100  1
  C  1076  1  0.04607600  0.56900800  0.72508500  1
  C  1077  1  0.04472400  0.56100200  0.69972100  1
  C  1078  1  0.05862300  0.53850000  0.69683200  1
  C  1079  1  0.06355200  0.52407400  0.71611500  1
  C  1080  1  0.05095300  0.52876700  0.73621000  1
  C  1093  1  0.05030700  0.44273900  0.23963800  1
  C  1094  1  0.02662900  0.44061100  0.23386900  1
  C  1095  1  0.02100200  0.42735400  0.21433600  1
  C  1096  1  0.03502600  0.43084600  0.19449300  1
  C  1097  1  0.05752000  0.44490700  0.19608200  1
  C  1098  1  0.06662500  0.44379500  0.22100600  1
  C  1101  1  0.05600800  0.44876200  0.26251500  1
  C  1102  1  0.05536400  0.43247300  0.28118300  1
  C  1103  1  0.05464500  0.44178900  0.30607000  1
  C  1104  1  0.06919900  0.46401800  0.30734200  1
  C  1105  1  0.07217500  0.47806700  0.28744300  1
  C  1106  1  0.05886100  0.47241300  0.26803200  1
  C  1119  1  0.94954800  0.45384200  0.75663700  1
  C  1120  1  0.97283600  0.45089800  0.76342500  1
  C  1121  1  0.97698000  0.43693800  0.78270900  1
  C  1122  1  0.96234800  0.44085500  0.80205500  1
  C  1123  1  0.94034800  0.45562400  0.79978400  1
  C  1124  1  0.93237500  0.45548000  0.77439100  1
  C  1127  1  0.94417800  0.45470600  0.73296500  1
  C  1128  1  0.94422700  0.43508600  0.71770000  1
  C  1129  1  0.94705600  0.43991600  0.69160800  1
  C  1130  1  0.93222900  0.46118300  0.68603300  1
  C  1131  1  0.93024400  0.47941900  0.70230800  1
  C  1132  1  0.94212800  0.47694700  0.72323700  1
  C  1145  1  0.55371600  0.76356400  0.04838800  1
  C  1146  1  0.55559400  0.76967400  0.02481800  1
  C  1147  1  0.56867400  0.78919600  0.01911800  1
  C  1148  1  0.56592700  0.80888100  0.03359800  1
  C  1149  1  0.55186100  0.80726500  0.05615400  1
  C  1150  1  0.55276800  0.78207800  0.06491200  1
  C  1153  1  0.54908700  0.74025800  0.05402800  1
  C  1154  1  0.56620700  0.72228500  0.05273900  1
  C  1155  1  0.55831600  0.69680000  0.05204200  1
  C  1156  1  0.53601300  0.69454800  0.06636600  1
  C  1157  1  0.52089400  0.71367400  0.06926600  1
  C  1158  1  0.52570200  0.73334800  0.05592900  1
  C  1171  1  0.55546300  0.23361800  0.95556900  1
  C  1172  1  0.55934000  0.22405900  0.97769400  1
  C  1173  1  0.57370100  0.20452400  0.97896700  1
  C  1174  1  0.56931800  0.18696900  0.96227100  1
  C  1175  1  0.55273000  0.19163900  0.94200000  1
  C  1176  1  0.55346500  0.21775300  0.93654500  1
  C  1179  1  0.55047300  0.25744200  0.95405300  1
  C  1180  1  0.56766200  0.27505300  0.95696500  1
  C  1181  1  0.56013900  0.30058400  0.95791000  1
  C  1182  1  0.53778300  0.30367200  0.94388900  1
  C  1183  1  0.52314700  0.28457300  0.93898900  1
  C  1184  1  0.52719800  0.26462100  0.95209100  1
  C  1197  1  0.44396100  0.76001000  0.95115900  1
  C  1198  1  0.44189900  0.76674100  0.97457000  1
  C  1199  1  0.42851000  0.78639300  0.97944700  1
  C  1200  1  0.43169200  0.80565600  0.96455200  1
  C  1201  1  0.44598700  0.80340000  0.94225600  1
  C  1202  1  0.44531800  0.77805800  0.93418400  1
  C  1205  1  0.44976100  0.73681100  0.94643300  1
  C  1206  1  0.43325100  0.71830100  0.94720500  1
  C  1207  1  0.44227400  0.69324300  0.94802700  1
  C  1208  1  0.46446800  0.69178200  0.93339600  1
  C  1209  1  0.47873600  0.71154500  0.93036900  1
  C  1210  1  0.47335300  0.73089600  0.94388600  1
  C  1223  1  0.44373100  0.24082400  0.05081900  1
  C  1224  1  0.44067500  0.23531500  0.02720500  1
  C  1225  1  0.42699600  0.21618400  0.02158600  1
  C  1226  1  0.42936000  0.19630300  0.03586800  1
  C  1227  1  0.44443700  0.19709100  0.05777200  1
  C  1228  1  0.44495500  0.22204200  0.06696900  1
  C  1231  1  0.44984700  0.26371000  0.05665100  1
  C  1232  1  0.43334300  0.28229500  0.05713900  1
  C  1233  1  0.44210400  0.30729600  0.05408900  1
  C  1234  1  0.46568200  0.30909800  0.06616000  1
  C  1235  1  0.48094000  0.28994200  0.06689200  1
  C  1236  1  0.47359000  0.26961900  0.05595500  1
  C  1249  1  0.00001200  0.37602300  0.42703900  1
  C  1250  1  0.02599000  0.36647800  0.42427500  1
  C  1251  1  0.99747400  0.38655500  0.45288500  1
  C  1252  1  0.00294100  0.36745800  0.47259700  1
  C  1255  1  0.02902400  0.35808000  0.46856700  1
  C  1256  1  0.03206500  0.34716600  0.44296500  1
  C  1261  1  0.01381700  0.32629500  0.43999600  1
  C  1262  1  0.98722300  0.33420000  0.44386600  1
  C  1265  1  0.98534400  0.34598300  0.46899400  1
  C  1268  1  0.98213500  0.35422000  0.42474300  1
  C  1271  1  0.97290700  0.31179100  0.44338400  1
  C  1272  1  0.99492300  0.39495500  0.40941600  1
  C  1275  1  0.00115600  0.37821600  0.49655100  1
  C  1276  1  0.05594100  0.33812900  0.43780800  1
  C  1279  1  0.00273500  0.62817300  0.42041800  1
  C  1280  1  0.97787100  0.63902700  0.41431500  1
  C  1281  1  0.00161900  0.61562200  0.44539300  1
  C  1282  1  0.99395500  0.63350900  0.46546800  1
  C  1285  1  0.96898800  0.64404800  0.45845100  1
  C  1286  1  0.96979000  0.65701400  0.43362800  1
  C  1291  1  0.98862300  0.67753100  0.43503600  1
  C  1292  1  0.01417600  0.66833400  0.44186200  1
  C  1295  1  0.01247600  0.65455200  0.46601800  1
  C  1298  1  0.02131700  0.64953300  0.42224700  1
  C  1301  1  0.02871000  0.69025100  0.44559000  1
  C  1302  1  0.00881700  0.61093600  0.40157400  1
  C  1305  1  0.99143500  0.62121900  0.48857800  1
  C  1306  1  0.94688800  0.66687600  0.42621000  1
  C  1309  1  0.99745100  0.37362500  0.57892000  1
  C  1310  1  0.97249400  0.36510500  0.58768700  1
  C  1311  1  0.99522500  0.38398100  0.55309000  1
  C  1312  1  0.98455600  0.36510100  0.53544200  1
  C  1315  1  0.95932600  0.35734200  0.54515800  1
  C  1316  1  0.96079700  0.34635300  0.57086500  1
  C  1321  1  0.97812900  0.32444500  0.56991900  1
  C  1322  1  0.00383800  0.33105000  0.56069400  1
  C  1325  1  0.00100400  0.34245200  0.53541600  1
  C  1328  1  0.01404600  0.35084400  0.57774200  1
  C  1331  1  0.01731000  0.30830400  0.55843500  1
  C  1332  1  0.00609400  0.39176700  0.59590200  1
  C  1335  1  0.98209800  0.37525100  0.51132000  1
  C  1336  1  0.93691500  0.34164300  0.58117500  1
  C  1339  1  0.99998700  0.62448700  0.57413800  1
  C  1340  1  0.02524600  0.63492000  0.57924200  1
  C  1341  1  0.00040400  0.61313700  0.54851600  1
  C  1342  1  0.00730400  0.63182500  0.52889100  1
  C  1345  1  0.03250600  0.64220000  0.53526100  1
  C  1346  1  0.03261500  0.65390700  0.56065700  1
  C  1351  1  0.01362800  0.67433600  0.56103600  1
  C  1352  1  0.98778500  0.66551000  0.55476200  1
  C  1355  1  0.98862400  0.65270200  0.53001000  1
  C  1358  1  0.98137600  0.64588400  0.57395000  1
  C  1361  1  0.97342400  0.68781400  0.55233900  1
  C  1362  1  0.99379700  0.60575300  0.59165200  1
  C  1365  1  0.00889900  0.62036200  0.50526300  1
  C  1366  1  0.05571900  0.66352100  0.56783800  1
  C  1369  1  0.42766300  0.00051300  0.37756900  1
  C  1370  1  0.42384100  0.02629500  0.36778000  1
  C  1371  1  0.45389000  0.99878300  0.38737500  1
  C  1372  1  0.47291900  0.00442200  0.36765000  1
  C  1375  1  0.46789300  0.03027200  0.35810400  1
  C  1376  1  0.44191000  0.03253800  0.34785800  1
  C  1381  1  0.43877500  0.01386100  0.32736200  1
  C  1382  1  0.44358000  0.98755500  0.33556100  1
  C  1385  1  0.46916400  0.98650900  0.34647600  1
  C  1388  1  0.42523200  0.98220500  0.35615400  1
  C  1391  1  0.44294300  0.97313300  0.31333100  1
  C  1392  1  0.41066300  0.99494800  0.39688700  1
  C  1395  1  0.49729300  0.00330000  0.37757400  1
  C  1396  1  0.43606500  0.05606000  0.33825800  1
  C  1399  1  0.42170300  0.00323200  0.62614100  1
  C  1400  1  0.41479000  0.97864000  0.63723700  1
  C  1401  1  0.44692600  0.00140800  0.61420700  1
  C  1402  1  0.46635900  0.99356000  0.63269300  1
  C  1405  1  0.45857500  0.96889900  0.64338100  1
  C  1406  1  0.43350300  0.97038800  0.65580100  1
  C  1411  1  0.43483200  0.98946900  0.67608500  1
  C  1412  1  0.44237800  0.01471900  0.66666667  1
  C  1415  1  0.46682700  0.01232400  0.65351000  1
  C  1418  1  0.42340700  0.02204400  0.64727700  1
  C  1421  1  0.44595300  0.02954500  0.68833500  1
  C  1422  1  0.40342200  0.00955100  0.60838700  1
  C  1425  1  0.48970800  0.99038200  0.62108600  1
  C  1426  1  0.42550900  0.94777400  0.66590800  1
  C  1429  1  0.57988200  0.99939500  0.37177000  1
  C  1430  1  0.58833100  0.97448300  0.36293500  1
  C  1431  1  0.55421900  0.99722300  0.38254800  1
  C  1432  1  0.53617000  0.98678000  0.36391300  1
  C  1435  1  0.54563100  0.96156300  0.35576300  1
  C  1436  1  0.57116900  0.96302000  0.34436200  1
  C  1441  1  0.56993000  0.98046500  0.32257200  1
  C  1442  1  0.56086800  0.00618000  0.32948800  1
  C  1445  1  0.53579300  0.00338800  0.34137600  1
  C  1448  1  0.57834300  0.01615300  0.34908700  1
  C  1451  1  0.55818200  0.01980200  0.30682300  1
  C  1452  1  0.59725900  0.00767200  0.38974500  1
  C  1455  1  0.51224500  0.98436100  0.37456800  1
  C  1456  1  0.58142100  0.93922700  0.33918100  1
  C  1459  1  0.57517200  0.00080400  0.62572500  1
  C  1460  1  0.57926700  0.02619200  0.63623400  1
  C  1461  1  0.54980800  0.00048600  0.61385500  1
  C  1462  1  0.52962400  0.00687100  0.63210600  1
  C  1465  1  0.53501700  0.03223600  0.64263300  1
  C  1466  1  0.56015300  0.03303700  0.65483500  1
  C  1471  1  0.56066000  0.01409500  0.67527500  1
  C  1472  1  0.55530300  0.98806800  0.66632800  1
  C  1475  1  0.53080500  0.98819400  0.65299900  1
  C  1478  1  0.57509700  0.98220100  0.64711300  1
  C  1481  1  0.55299200  0.97360200  0.68857500  1
  C  1482  1  0.59310400  0.99536900  0.60716700  1
  C  1485  1  0.50635700  0.00782100  0.61991000  1
  C  1486  1  0.56661900  0.05635900  0.66437500  1
  C  1489  1  0.37714900  0.42707800  0.99847300  1
  C  1490  1  0.36785800  0.42363800  0.02450000  1
  C  1491  1  0.38713900  0.45314800  0.99622700  1
  C  1492  1  0.36766600  0.47239500  0.00227700  1
  C  1495  1  0.35840200  0.46760100  0.02829500  1
  C  1496  1  0.34800200  0.44170200  0.03089900  1
  C  1501  1  0.32713100  0.43869500  0.01268200  1
  C  1502  1  0.33481600  0.44339100  0.98619300  1
  C  1505  1  0.34614600  0.46875700  0.98475700  1
  C  1508  1  0.35513100  0.42473200  0.98075000  1
  C  1511  1  0.31231700  0.44287600  0.97201000  1
  C  1512  1  0.39605100  0.40954500  0.99274600  1
  C  1515  1  0.37777000  0.49670600  0.00104700  1
  C  1516  1  0.33892800  0.43597400  0.05465300  1
  C  1519  1  0.62349600  0.42682400  0.99999600  1
  C  1520  1  0.63442700  0.42103600  0.97505400  1
  C  1521  1  0.61265300  0.45265200  0.99888400  1
  C  1522  1  0.63186900  0.47180200  0.99209500  1
  C  1525  1  0.64267700  0.46476200  0.96725400  1
  C  1526  1  0.65395500  0.43916100  0.96780900  1
  C  1531  1  0.67392700  0.43875800  0.98725600  1
  C  1532  1  0.66458100  0.44562700  0.01274500  1
  C  1535  1  0.65230600  0.47061200  0.01123600  1
  C  1538  1  0.64447200  0.42694100  0.01905900  1
  C  1541  1  0.68653000  0.44799000  0.02756900  1
  C  1542  1  0.60436500  0.40978500  0.00632700  1
  C  1545  1  0.62103100  0.49566700  0.98978400  1
  C  1546  1  0.66426300  0.43161200  0.94508800  1
  C  1549  1  0.37107300  0.57942800  0.99720200  1
  C  1550  1  0.36256100  0.58778000  0.97212400  1
  C  1551  1  0.38222900  0.55388000  0.99521100  1
  C  1552  1  0.36399700  0.53556300  0.98446400  1
  C  1555  1  0.35621100  0.54494800  0.95911100  1
  C  1556  1  0.34447100  0.57033300  0.96033400  1
  C  1561  1  0.32242100  0.56879500  0.97746200  1
  C  1562  1  0.32900600  0.55992400  0.00330400  1
  C  1565  1  0.34120000  0.53498200  0.00071100  1
  C  1568  1  0.34817800  0.57762500  0.01357400  1
  C  1571  1  0.30618900  0.55717700  0.01661900  1
  C  1572  1  0.38849800  0.59710100  0.00596900  1
  C  1575  1  0.37483000  0.51168300  0.98212100  1
  C  1576  1  0.33987300  0.58043900  0.93634000  1
  C  1579  1  0.63032700  0.58064900  0.99783700  1
  C  1580  1  0.64084300  0.58580000  0.02303900  1
  C  1581  1  0.61715800  0.55596300  0.99810200  1
  C  1582  1  0.63439000  0.53522700  0.00556400  1
  C  1585  1  0.64464100  0.54132800  0.03089400  1
  C  1586  1  0.65817400  0.56584600  0.03095700  1
  C  1591  1  0.67900900  0.56442800  0.01247700  1
  C  1592  1  0.67016500  0.55848100  0.98657300  1
  C  1595  1  0.65573300  0.53464500  0.98738100  1
  C  1598  1  0.65199100  0.57875600  0.97961100  1
  C  1601  1  0.69232700  0.55469600  0.97239500  1
  C  1602  1  0.61362600  0.60004300  0.99193100  1
  C  1605  1  0.62140600  0.51239600  0.00723700  1
  C  1606  1  0.66757100  0.57255200  0.05425100  1
  C  1609  1  0.37636300  0.00048500  0.57289700  1
  C  1610  1  0.36651400  0.02633500  0.57585300  1
  C  1611  1  0.38678700  0.99822100  0.54697100  1
  C  1612  1  0.36751000  0.00356200  0.52738100  1
  C  1615  1  0.35785100  0.02950800  0.53161100  1
  C  1616  1  0.34703200  0.03228300  0.55728400  1
  C  1621  1  0.32640500  0.01376300  0.56026000  1
  C  1622  1  0.33462900  0.98729000  0.55620600  1
  C  1625  1  0.34627800  0.98568700  0.53101300  1
  C  1628  1  0.35479500  0.98233600  0.57519800  1
  C  1631  1  0.31245800  0.97263300  0.55672600  1
  C  1632  1  0.39538200  0.99547400  0.59045500  1
  C  1635  1  0.37806300  0.00203200  0.50331400  1
  C  1636  1  0.33770600  0.05602000  0.56258900  1
  C  1639  1  0.62833100  0.00317500  0.58014200  1
  C  1640  1  0.63884000  0.97811200  0.58601000  1
  C  1641  1  0.61569600  0.00246400  0.55519900  1
  C  1642  1  0.63339500  0.99469000  0.53500800  1
  C  1645  1  0.64356600  0.96950400  0.54178700  1
  C  1646  1  0.65661900  0.96991000  0.56657500  1
  C  1651  1  0.67742800  0.98842300  0.56525700  1
  C  1652  1  0.66862100  0.01417700  0.55866600  1
  C  1655  1  0.65473500  0.01287700  0.53453200  1
  C  1658  1  0.64997000  0.02144800  0.57840000  1
  C  1661  1  0.69080100  0.02835700  0.55501600  1
  C  1662  1  0.61118200  0.00927100  0.59906300  1
  C  1665  1  0.62092200  0.99256600  0.51195500  1
  C  1666  1  0.66610600  0.94680100  0.57382200  1
  C  1669  1  0.37292300  0.99848600  0.42092900  1
  C  1670  1  0.36462600  0.97346400  0.41215400  1
  C  1671  1  0.38342600  0.99636000  0.44671100  1
  C  1672  1  0.36479200  0.98541500  0.46444000  1
  C  1675  1  0.35732300  0.96010100  0.45470600  1
  C  1676  1  0.34617300  0.96147600  0.42906500  1
  C  1681  1  0.32405200  0.97853100  0.43019600  1
  C  1682  1  0.33032200  0.00433000  0.43941800  1
  C  1685  1  0.34193400  0.00158300  0.46462700  1
  C  1688  1  0.34992300  0.01481100  0.42225900  1
  C  1691  1  0.30730600  0.01739800  0.44184900  1
  C  1692  1  0.39098500  0.00715000  0.40384700  1
  C  1695  1  0.37516600  0.98301000  0.48847900  1
  C  1696  1  0.34184000  0.93754600  0.41867200  1
  C  1699  1  0.62365300  0.00125400  0.42645200  1
  C  1700  1  0.63445700  0.02635000  0.42124400  1
  C  1701  1  0.61249300  0.00185500  0.45215900  1
  C  1702  1  0.63144000  0.00844000  0.47164600  1
  C  1705  1  0.64215600  0.03347700  0.46519200  1
  C  1706  1  0.65369800  0.03341900  0.43971500  1
  C  1711  1  0.67380800  0.01410200  0.43919300  1
  C  1712  1  0.66457200  0.98841100  0.44551500  1
  C  1715  1  0.65200700  0.98943900  0.47036700  1
  C  1718  1  0.64473000  0.98230800  0.42648200  1
  C  1721  1  0.68656700  0.97360600  0.44767700  1
  C  1722  1  0.60476600  0.99520200  0.40907300  1
  C  1725  1  0.62025200  0.01016100  0.49539500  1
  C  1726  1  0.66372200  0.05636300  0.43254300  1
  C  1729  1  0.99962800  0.42826800  0.62235400  1
  C  1730  1  0.02547100  0.42438100  0.63199200  1
  C  1731  1  0.99788600  0.45452500  0.61264700  1
  C  1732  1  0.00368500  0.47346900  0.63241300  1
  C  1735  1  0.02958300  0.46837500  0.64180200  1
  C  1736  1  0.03187200  0.44235600  0.65195000  1
  C  1741  1  0.01331200  0.43916500  0.67253800  1
  C  1742  1  0.98697700  0.44402600  0.66448500  1
  C  1745  1  0.98589600  0.46966100  0.65368600  1
  C  1748  1  0.98146600  0.42577200  0.64386700  1
  C  1751  1  0.97266300  0.44326500  0.68675900  1
  C  1752  1  0.99382500  0.41131300  0.60306500  1
  C  1755  1  0.00255600  0.49788500  0.62259400  1
  C  1756  1  0.05544300  0.43644900  0.66140100  1
  C  1759  1  0.00285200  0.42158900  0.37399200  1
  C  1760  1  0.97825700  0.41483100  0.36283200  1
  C  1761  1  0.00109900  0.44676400  0.38604100  1
  C  1762  1  0.99336500  0.46631800  0.36762900  1
  C  1765  1  0.96869300  0.45868400  0.35686000  1
  C  1766  1  0.97010900  0.43365800  0.34434600  1
  C  1771  1  0.98922000  0.43500100  0.32409300  1
  C  1772  1  0.01449100  0.44240200  0.33361500  1
  C  1775  1  0.01218000  0.46679900  0.34685600  1
  C  1778  1  0.02170600  0.42331200  0.35289900  1
  C  1781  1  0.02939200  0.44598500  0.31197600  1
  C  1782  1  0.00909800  0.40320700  0.39165700  1
  C  1785  1  0.99023900  0.48962100  0.37934800  1
  C  1786  1  0.94747200  0.42576400  0.33423900  1
  C  1789  1  0.99831200  0.58050500  0.62874400  1
  C  1790  1  0.97341400  0.58877200  0.63775900  1
  C  1791  1  0.99621300  0.55489000  0.61783400  1
  C  1792  1  0.98597700  0.53668200  0.63643300  1
  C  1795  1  0.96076100  0.54596900  0.64478100  1
  C  1796  1  0.96215200  0.57145600  0.65630400  1
  C  1801  1  0.97972900  0.57018800  0.67799100  1
  C  1802  1  0.00545200  0.56129000  0.67088900  1
  C  1805  1  0.00272200  0.53627300  0.65886900  1
  C  1808  1  0.01521400  0.57892900  0.65132600  1
  C  1811  1  0.01921400  0.55854000  0.69347100  1
  C  1812  1  0.00640900  0.59800300  0.61080600  1
  C  1815  1  0.98360300  0.51280400  0.62566300  1
  C  1816  1  0.93834300  0.58157500  0.66165500  1
  C  1819  1  0.00033400  0.57510900  0.37469600  1
  C  1820  1  0.02571300  0.57928600  0.36417100  1
  C  1821  1  0.00010800  0.54973900  0.38654800  1
  C  1822  1  0.00657500  0.52959000  0.36828000  1
  C  1825  1  0.03191400  0.53508300  0.35773500  1
  C  1826  1  0.03262000  0.56022600  0.34554000  1
  C  1831  1  0.01367400  0.56067800  0.32511000  1
  C  1832  1  0.98767600  0.55521400  0.33407000  1
  C  1835  1  0.98789000  0.53071100  0.34739300  1
  C  1838  1  0.98173900  0.57497800  0.35329700  1
  C  1841  1  0.97325400  0.55277000  0.31181000  1
  C  1842  1  0.99482500  0.59302000  0.39327400  1
  C  1845  1  0.00763900  0.50631600  0.38045200  1
  C  1846  1  0.05591000  0.56677600  0.33597400  1
  C  1849  1  0.42675400  0.37703200  0.00199700  1
  C  1850  1  0.42325200  0.36775500  0.97597500  1
  C  1851  1  0.45273700  0.38723800  0.00419400  1
  C  1852  1  0.47212100  0.36792200  0.99804700  1
  C  1855  1  0.46730200  0.35868000  0.97202300  1
  C  1856  1  0.44147700  0.34806600  0.96948300  1
  C  1861  1  0.43872000  0.32711700  0.98765500  1
  C  1862  1  0.44344300  0.33479600  0.01413500  1
  C  1865  1  0.46872500  0.34632100  0.01551700  1
  C  1868  1  0.42465900  0.35495000  0.01967400  1
  C  1871  1  0.44308900  0.31229800  0.02830800  1
  C  1872  1  0.40897500  0.39566600  0.00779800  1
  C  1875  1  0.49636400  0.37820000  0.99923100  1
  C  1876  1  0.43575500  0.33901400  0.94572200  1
  C  1879  1  0.42460700  0.62437000  0.00051500  1
  C  1880  1  0.41850400  0.63524200  0.02542100  1
  C  1881  1  0.45031800  0.61337300  0.00187500  1
  C  1882  1  0.46939000  0.63247600  0.00899500  1
  C  1885  1  0.46213500  0.64320000  0.03378400  1
  C  1886  1  0.43662100  0.65466800  0.03293200  1
  C  1891  1  0.43655700  0.67472400  0.01354900  1
  C  1892  1  0.44369900  0.66539900  0.98813500  1
  C  1895  1  0.46862900  0.65306500  0.98999200  1
  C  1898  1  0.42503100  0.64538100  0.98151600  1
  C  1901  1  0.44634100  0.68728700  0.97329500  1
  C  1902  1  0.40777600  0.60523000  0.99387500  1
  C  1905  1  0.49308400  0.62146800  0.01152000  1
  C  1906  1  0.42892500  0.66494400  0.05560100  1
  C  1909  1  0.57918800  0.37256300  0.00279000  1
  C  1910  1  0.58771600  0.36400700  0.02779900  1
  C  1911  1  0.55349000  0.38333800  0.00492200  1
  C  1912  1  0.53545300  0.36480800  0.01562900  1
  C  1915  1  0.54502600  0.35699400  0.04090700  1
  C  1916  1  0.57055800  0.34558800  0.03952800  1
  C  1921  1  0.56925400  0.32362300  0.02229800  1
  C  1922  1  0.56018500  0.33020700  0.99653100  1
  C  1925  1  0.53510300  0.34209400  0.99926100  1
  C  1928  1  0.57762100  0.34968600  0.98630100  1
  C  1931  1  0.55757800  0.30732200  0.98326500  1
  C  1932  1  0.59660800  0.39036600  0.99416300  1
  C  1935  1  0.51143700  0.37531500  0.01809900  1
  C  1936  1  0.58080500  0.34082300  0.06342500  1
  C  1939  1  0.57793200  0.62715200  0.00036800  1
  C  1940  1  0.58191700  0.63736000  0.97483300  1
  C  1941  1  0.55265800  0.61511600  0.00091000  1
  C  1942  1  0.53236300  0.63313200  0.99430600  1
  C  1945  1  0.53762500  0.64334800  0.96879800  1
  C  1946  1  0.56266700  0.65574600  0.96780500  1
  C  1951  1  0.56306300  0.67644200  0.98647700  1
  C  1952  1  0.55778000  0.66780300  0.01261800  1
  C  1955  1  0.53336600  0.65432100  0.01264600  1
  C  1958  1  0.57772300  0.64878700  0.01870200  1
  C  1961  1  0.55522600  0.69023100  0.02677500  1
  C  1962  1  0.59587000  0.60863800  0.00595600  1
  C  1965  1  0.50920700  0.62076000  0.99359200  1
  C  1966  1  0.56898200  0.66505400  0.94435400  1
  C  1969  1  0.49675400  0.87208600  0.92051400  1
  C  1970  1  0.52175600  0.86144900  0.91460100  1
  C  1971  1  0.49762500  0.88471800  0.94546000  1
  C  1972  1  0.50535200  0.86696900  0.96564800  1
  C  1975  1  0.53046000  0.85664100  0.95880500  1
  C  1976  1  0.52990100  0.84360600  0.93402100  1
  C  1981  1  0.51126100  0.82291300  0.93537600  1
  C  1982  1  0.48558100  0.83187100  0.94205200  1
  C  1985  1  0.48704100  0.84574100  0.96617900  1
  C  1988  1  0.47837000  0.85054500  0.92233400  1
  C  1991  1  0.47124200  0.80979000  0.94563100  1
  C  1992  1  0.49061100  0.88920000  0.90155200  1
  C  1995  1  0.50760400  0.87937100  0.98873100  1
  C  1996  1  0.55292800  0.83398500  0.92676500  1
  C  1999  1  0.49821400  0.12419000  0.92508600  1
  C  2000  1  0.47359400  0.13610700  0.91983500  1
  C  2001  1  0.49690300  0.11263700  0.95054400  1
  C  2002  1  0.49079800  0.13151600  0.97020000  1
  C  2005  1  0.46633100  0.14344900  0.96370500  1
  C  2006  1  0.46715800  0.15541800  0.93843700  1
  C  2011  1  0.48725300  0.17471600  0.93842000  1
  C  2012  1  0.51239400  0.16422700  0.94481800  1
  C  2015  1  0.51067400  0.15125100  0.96947600  1
  C  2018  1  0.51795500  0.14450500  0.92552200  1
  C  2021  1  0.52787200  0.18555100  0.94785400  1
  C  2022  1  0.50364300  0.10516900  0.90769300  1
  C  2025  1  0.48817400  0.11987600  0.99359400  1
  C  2026  1  0.44475400  0.16657700  0.93124700  1
  C  2029  1  0.49953900  0.87696400  0.07423600  1
  C  2030  1  0.47442800  0.86629800  0.07969700  1
  C  2031  1  0.49881900  0.88793700  0.04845900  1
  C  2032  1  0.49197700  0.86891700  0.02914000  1
  C  2035  1  0.46694400  0.85835200  0.03587300  1
  C  2036  1  0.46714200  0.84694100  0.06142100  1
  C  2041  1  0.48636200  0.82674900  0.06190000  1
  C  2042  1  0.51203900  0.83576900  0.05527200  1
  C  2045  1  0.51085900  0.84823100  0.03035600  1
  C  2048  1  0.51837500  0.85573200  0.07415500  1
  C  2051  1  0.52654100  0.81354100  0.05299400  1
  C  2052  1  0.50572600  0.89605800  0.09140600  1
  C  2055  1  0.49005500  0.88002300  0.00536900  1
  C  2056  1  0.44423600  0.83693700  0.06881000  1
  C  2059  1  0.49531400  0.12800400  0.07865600  1
  C  2060  1  0.52035800  0.13890200  0.08413900  1
  C  2061  1  0.49587100  0.11519300  0.05381500  1
  C  2062  1  0.50324100  0.13276900  0.03341400  1
  C  2065  1  0.52837900  0.14327000  0.03976600  1
  C  2066  1  0.52815800  0.15661700  0.06439800  1
  C  2071  1  0.50941700  0.17718500  0.06307100  1
  C  2072  1  0.48367400  0.16801400  0.05691900  1
  C  2075  1  0.48475700  0.15385700  0.03292500  1
  C  2078  1  0.47682000  0.14947000  0.07694200  1
  C  2081  1  0.46929200  0.19002200  0.05306000  1
  C  2082  1  0.48958500  0.11070600  0.09761700  1
  C  2085  1  0.50529000  0.11993900  0.01058300  1
  C  2086  1  0.55127000  0.16657700  0.07102800  1
  C  2089  1  0.92216100  0.50043900  0.87209400  1
  C  2090  1  0.91350400  0.52533900  0.86339000  1
  C  2091  1  0.94788100  0.50279300  0.88276100  1
  C  2092  1  0.96579000  0.51345300  0.86407800  1
  C  2095  1  0.95605800  0.53862100  0.85606100  1
  C  2096  1  0.93047700  0.53700600  0.84477800  1
  C  2101  1  0.93176000  0.51968200  0.82292100  1
  C  2102  1  0.94105000  0.49404300  0.82968900  1
  C  2105  1  0.96616200  0.49691200  0.84150400  1
  C  2108  1  0.92373400  0.48381800  0.84930000  1
  C  2111  1  0.94392700  0.48075100  0.80687200  1
  C  2112  1  0.90478100  0.49195600  0.89001500  1
  C  2115  1  0.98983400  0.51611000  0.87446800  1
  C  2116  1  0.91996300  0.56068500  0.83965000  1
  C  2119  1  0.92489000  0.49853900  0.12610100  1
  C  2120  1  0.92050500  0.47320900  0.13664100  1
  C  2121  1  0.95039800  0.49867100  0.11453000  1
  C  2122  1  0.97032200  0.49221400  0.13303800  1
  C  2125  1  0.96463700  0.46691400  0.14356200  1
  C  2126  1  0.93935900  0.46630400  0.15548500  1
  C  2131  1  0.93874300  0.48529500  0.17587000  1
  C  2132  1  0.94436300  0.51126100  0.16690500  1
  C  2135  1  0.96901300  0.51094100  0.15387300  1
  C  2138  1  0.92483500  0.51720100  0.14744200  1
  C  2141  1  0.94653800  0.52577100  0.18913400  1
  C  2142  1  0.90720500  0.50404300  0.10732000  1
  C  2145  1  0.99374200  0.49103800  0.12116800  1
  C  2146  1  0.93268700  0.44306800  0.16511900  1
  C  2149  1  0.07485000  0.49879000  0.87587200  1
  C  2150  1  0.07774600  0.47317200  0.86537900  1
  C  2151  1  0.04886000  0.50086100  0.88628800  1
  C  2152  1  0.02922300  0.49608600  0.86688400  1
  C  2155  1  0.03346300  0.47038300  0.85657500  1
  C  2156  1  0.05915800  0.46778800  0.84572100  1
  C  2161  1  0.06226900  0.48687600  0.82564900  1
  C  2162  1  0.05823500  0.51310100  0.83456600  1
  C  2165  1  0.03293500  0.51447600  0.84611300  1
  C  2168  1  0.07720500  0.51753700  0.85483400  1
  C  2171  1  0.05875300  0.52798000  0.81262700  1
  C  2172  1  0.09245200  0.50324300  0.89501000  1
  C  2175  1  0.00507300  0.49737600  0.87738900  1
  C  2176  1  0.06435300  0.44430800  0.83560000  1
  C  2179  1  0.07833200  0.49602800  0.12809600  1
  C  2180  1  0.08509100  0.52079800  0.13884400  1
  C  2181  1  0.05319400  0.49759700  0.11594100  1
  C  2182  1  0.03360100  0.50564800  0.13417600  1
  C  2185  1  0.04122700  0.53048700  0.14456700  1
  C  2186  1  0.06622100  0.52924700  0.15715600  1
  C  2191  1  0.06482500  0.51042900  0.17769700  1
  C  2192  1  0.05742900  0.48501300  0.16854700  1
  C  2195  1  0.03304800  0.48717300  0.15525600  1
  C  2198  1  0.07654400  0.47750200  0.14943700  1
  C  2201  1  0.05408800  0.47031900  0.19036000  1
  C  2202  1  0.09683900  0.48950000  0.11070400  1
  C  2205  1  0.01032100  0.50854000  0.12234200  1
  C  2206  1  0.07412800  0.55205600  0.16684000  1
  C  2209  1  0.87176100  0.92147300  0.49813400  1
  C  2210  1  0.86112600  0.91556700  0.52313100  1
  C  2211  1  0.88454700  0.94634800  0.49906600  1
  C  2212  1  0.86692300  0.96663500  0.50685900  1
  C  2215  1  0.85656800  0.95977000  0.53195100  1
  C  2216  1  0.84340200  0.93506100  0.53133300  1
  C  2221  1  0.82267200  0.93660200  0.51274800  1
  C  2222  1  0.83164700  0.94327200  0.48709100  1
  C  2225  1  0.84569800  0.96731300  0.48854800  1
  C  2228  1  0.85019300  0.92346500  0.47979800  1
  C  2231  1  0.80958500  0.94723300  0.47283200  1
  C  2232  1  0.88869500  0.90238300  0.49188700  1
  C  2235  1  0.87939200  0.98967900  0.50926200  1
  C  2236  1  0.83374100  0.92779700  0.55432400  1
  C  2239  1  0.13047300  0.92003900  0.50311100  1
  C  2240  1  0.14136300  0.91495500  0.47802500  1
  C  2241  1  0.11695900  0.94451700  0.50270700  1
  C  2242  1  0.13395800  0.96544500  0.49540900  1
  C  2245  1  0.14455800  0.95948600  0.47021900  1
  C  2246  1  0.15851800  0.93520300  0.47029800  1
  C  2251  1  0.17910500  0.93700400  0.48900300  1
  C  2252  1  0.16982100  0.94276700  0.51481000  1
  C  2255  1  0.15505700  0.96639500  0.51388000  1
  C  2258  1  0.15187600  0.92223100  0.52156800  1
  C  2261  1  0.19165100  0.94682300  0.52938600  1
  C  2262  1  0.11386100  0.90057900  0.50894500  1
  C  2265  1  0.12049300  0.98791500  0.49340400  1
  C  2266  1  0.16844700  0.92887100  0.44709800  1
  C  2269  1  0.87590000  0.07554300  0.49977000  1
  C  2270  1  0.86477400  0.08000600  0.47467000  1
  C  2271  1  0.88735400  0.04994300  0.49953000  1
  C  2272  1  0.86863700  0.03004500  0.49342900  1
  C  2275  1  0.85755400  0.03589800  0.46839800  1
  C  2276  1  0.84570000  0.06121900  0.46811000  1
  C  2281  1  0.82577700  0.06184000  0.48757000  1
  C  2282  1  0.83532900  0.05608400  0.51329500  1
  C  2285  1  0.84827000  0.03139000  0.51263800  1
  C  2288  1  0.85495700  0.07555000  0.51887800  1
  C  2291  1  0.81342400  0.05385700  0.52825200  1
  C  2292  1  0.89479100  0.09328800  0.50502100  1
  C  2295  1  0.88020800  0.00645500  0.49185100  1
  C  2296  1  0.83551100  0.06791400  0.44509900  1
  C  2299  1  0.12296000  0.07355600  0.50010700  1
  C  2300  1  0.13469400  0.07909300  0.52477100  1
  C  2301  1  0.11195800  0.04786000  0.50146600  1
  C  2302  1  0.13124000  0.02863600  0.50776300  1
  C  2305  1  0.14296900  0.03547400  0.53224100  1
  C  2306  1  0.15440400  0.06098700  0.53136200  1
  C  2311  1  0.17376800  0.06134800  0.51135200  1
  C  2312  1  0.16351200  0.05460800  0.48620400  1
  C  2315  1  0.15102600  0.02969800  0.48796100  1
  C  2318  1  0.14341200  0.07347200  0.48048100  1
  C  2321  1  0.18500700  0.05192700  0.47090100  1
  C  2322  1  0.10362900  0.09063500  0.49455900  1
  C  2325  1  0.12016100  0.00496500  0.51045600  1
  C  2326  1  0.16525500  0.06858100  0.55379200  1
  C  2329  1  0.87214200  0.49641900  0.07999600  1
  C  2330  1  0.86189000  0.52164200  0.08561600  1
  C  2331  1  0.88488000  0.49681900  0.05509800  1
  C  2332  1  0.86734200  0.50463400  0.03476700  1
  C  2335  1  0.85741500  0.52998300  0.04130500  1
  C  2336  1  0.84428400  0.52989100  0.06604400  1
  C  2341  1  0.82327800  0.51159900  0.06480100  1
  C  2342  1  0.83182300  0.48569800  0.05843100  1
  C  2345  1  0.84580700  0.48667500  0.03434000  1
  C  2348  1  0.85031000  0.47837500  0.07829400  1
  C  2351  1  0.80950100  0.47169200  0.05496400  1
  C  2352  1  0.88911100  0.49025200  0.09906300  1
  C  2355  1  0.87993300  0.50642300  0.01174600  1
  C  2356  1  0.83510500  0.55315600  0.07307900  1
  C  2359  1  0.12376900  0.49779600  0.07505600  1
  C  2360  1  0.13579400  0.47324000  0.08036200  1
  C  2361  1  0.11222800  0.49638000  0.04959300  1
  C  2362  1  0.13115000  0.49032700  0.02995600  1
  C  2365  1  0.14318700  0.46592500  0.03650500  1
  C  2366  1  0.15513700  0.46685000  0.06177800  1
  C  2371  1  0.17434400  0.48703100  0.06177000  1
  C  2372  1  0.16372400  0.51211000  0.05533100  1
  C  2375  1  0.15078500  0.51029700  0.03066600  1
  C  2378  1  0.14398000  0.51762400  0.07460200  1
  C  2381  1  0.18493400  0.52771300  0.05230500  1
  C  2382  1  0.10476700  0.50320700  0.09246400  1
  C  2385  1  0.11957600  0.48760900  0.00653500  1
  C  2386  1  0.16637800  0.44450500  0.06902000  1
  C  2389  1  0.87779600  0.49828700  0.92635200  1
  C  2390  1  0.86677000  0.47334300  0.92078500  1
  C  2391  1  0.88863800  0.49736500  0.95218000  1
  C  2392  1  0.86940200  0.49081600  0.97138400  1
  C  2395  1  0.85850000  0.46595200  0.96457500  1
  C  2396  1  0.84721200  0.46633300  0.93897100  1
  C  2401  1  0.82732700  0.48586900  0.93840400  1
  C  2402  1  0.83675600  0.51138800  0.94507600  1
  C  2405  1  0.84901900  0.51000900  0.97006300  1
  C  2408  1  0.85689200  0.51744400  0.92632200  1
  C  2411  1  0.81485200  0.52634000  0.94717300  1
  C  2412  1  0.89698400  0.50435100  0.90928100  1
  C  2415  1  0.88029400  0.48874400  0.99523800  1
  C  2416  1  0.83685200  0.44358400  0.93156200  1
  C  2419  1  0.12793400  0.49498400  0.92145700  1
  C  2420  1  0.13871900  0.52009500  0.91609600  1
  C  2421  1  0.11503200  0.49540000  0.94625300  1
  C  2422  1  0.13250000  0.50279400  0.96674500  1
  C  2425  1  0.14289000  0.52800900  0.96051000  1
  C  2426  1  0.15630800  0.52793000  0.93592000  1
  C  2431  1  0.17697600  0.50929900  0.93726000  1
  C  2432  1  0.16792200  0.48348000  0.94329000  1
  C  2435  1  0.15368000  0.48440900  0.96724300  1
  C  2438  1  0.14948400  0.47659800  0.92318200  1
  C  2441  1  0.19000000  0.46918200  0.94706800  1
  C  2442  1  0.11075400  0.48925100  0.90239500  1
  C  2445  1  0.11956300  0.50471400  0.98953100  1
  C  2446  1  0.16609200  0.55112400  0.92934200  1
  C  2449  1  0.50143900  0.92177500  0.12829600  1
  C  2450  1  0.52635800  0.91339400  0.13718000  1
  C  2451  1  0.50364500  0.94745100  0.11747200  1
  C  2452  1  0.51406700  0.96558700  0.13608500  1
  C  2455  1  0.53926900  0.95609500  0.14430100  1
  C  2456  1  0.53779400  0.93057300  0.15573900  1
  C  2461  1  0.52035800  0.93187200  0.17750200  1
  C  2462  1  0.49467800  0.94092400  0.17056400  1
  C  2465  1  0.49740500  0.96597100  0.15857300  1
  C  2468  1  0.48469300  0.92338300  0.15101700  1
  C  2471  1  0.48129900  0.94388000  0.19333600  1
  C  2472  1  0.49316700  0.90419900  0.11044200  1
  C  2475  1  0.51661600  0.98960400  0.12556700  1
  C  2476  1  0.56151100  0.92023500  0.16104900  1
  C  2479  1  0.49896600  0.92486500  0.87437200  1
  C  2480  1  0.47363800  0.92045900  0.86381000  1
  C  2481  1  0.49905400  0.95037500  0.88594700  1
  C  2482  1  0.49255200  0.97030600  0.86744900  1
  C  2485  1  0.46726800  0.96457000  0.85690100  1
  C  2486  1  0.46670400  0.93929800  0.84495800  1
  C  2491  1  0.48570200  0.93873300  0.82458600  1
  C  2492  1  0.51164900  0.94440700  0.83356100  1
  C  2495  1  0.51128600  0.96904900  0.84661800  1
  C  2498  1  0.51762100  0.92487000  0.85301400  1
  C  2501  1  0.52611100  0.94665700  0.81130900  1
  C  2502  1  0.50450600  0.90714800  0.89314400  1
  C  2505  1  0.49129400  0.99373100  0.87931400  1
  C  2506  1  0.44349500  0.93260100  0.83526900  1
  C  2509  1  0.49909300  0.07468000  0.12400500  1
  C  2510  1  0.47342600  0.07749100  0.13440600  1
  C  2511  1  0.50127000  0.04867900  0.11360800  1
  C  2512  1  0.49648100  0.02901400  0.13300000  1
  C  2515  1  0.47072600  0.03319600  0.14321100  1
  C  2516  1  0.46801200  0.05888800  0.15404000  1
  C  2521  1  0.48701500  0.06206000  0.17418300  1
  C  2522  1  0.51328400  0.05810200  0.16536400  1
  C  2525  1  0.51478300  0.03280200  0.15383200  1
  C  2528  1  0.51774700  0.07708200  0.14511500  1
  C  2531  1  0.52807100  0.05868100  0.18735900  1
  C  2532  1  0.50357000  0.09236400  0.10493100  1
  C  2535  1  0.49786400  0.00482300  0.12256500  1
  C  2536  1  0.44447700  0.06402800  0.16406300  1
  C  2539  1  0.49632300  0.07844100  0.87226800  1
  C  2540  1  0.52108900  0.08509900  0.86145800  1
  C  2541  1  0.49786900  0.05332900  0.88449200  1
  C  2542  1  0.50584300  0.03365000  0.86630200  1
  C  2545  1  0.53067900  0.04119700  0.85584100  1
  C  2546  1  0.52946900  0.06615800  0.84319200  1
  C  2551  1  0.51061900  0.06474200  0.82268200  1
  C  2552  1  0.48520000  0.05742600  0.83188900  1
  C  2555  1  0.48732400  0.03308000  0.84525900  1
  C  2558  1  0.47776300  0.07661800  0.85095400  1
  C  2561  1  0.47047500  0.05405200  0.81009900  1
  C  2562  1  0.48985500  0.09704200  0.88959700  1
  C  2565  1  0.50873400  0.01038600  0.87818400  1
  C  2566  1  0.55228400  0.07400400  0.83347800  1
  C  2569  1  0.92405400  0.87472300  0.49996600  1
  C  2570  1  0.91928300  0.86420500  0.47467200  1
  C  2571  1  0.94953300  0.88633800  0.49974700  1
  C  2572  1  0.96936300  0.86789400  0.49287600  1
  C  2575  1  0.96328000  0.85740600  0.46766000  1
  C  2576  1  0.93803700  0.84539600  0.46745500  1
  C  2581  1  0.93778300  0.82493600  0.48636400  1
  C  2582  1  0.94384800  0.83386000  0.51221800  1
  C  2585  1  0.96848100  0.84696300  0.51150900  1
  C  2588  1  0.92437400  0.85328500  0.51855300  1
  C  2591  1  0.94669100  0.81155400  0.52649500  1
  C  2592  1  0.90646300  0.89354600  0.50575200  1
  C  2595  1  0.99275300  0.87973000  0.49124300  1
  C  2596  1  0.93108700  0.83573700  0.44435700  1
  C  2599  1  0.92216000  0.12831600  0.49678600  1
  C  2600  1  0.91708300  0.13919600  0.52188600  1
  C  2601  1  0.94692400  0.11529100  0.49714300  1
  C  2602  1  0.96763800  0.13270700  0.50422100  1
  C  2605  1  0.96159500  0.14333900  0.52940900  1
  C  2606  1  0.93702700  0.15680100  0.52944400  1
  C  2611  1  0.93832000  0.17732000  0.51064900  1
  C  2612  1  0.94414400  0.16810000  0.48483900  1
  C  2615  1  0.96800800  0.15370000  0.48561300  1
  C  2618  1  0.92387800  0.14976000  0.47826500  1
  C  2621  1  0.94781000  0.19011200  0.47039000  1
  C  2622  1  0.90284700  0.11137900  0.49110100  1
  C  2625  1  0.99045100  0.11970300  0.50611400  1
  C  2626  1  0.93061200  0.16683900  0.55260200  1
  C  2629  1  0.07777700  0.87405200  0.50067600  1
  C  2630  1  0.08228000  0.86300400  0.52579400  1
  C  2631  1  0.05242500  0.88598400  0.50102100  1
  C  2632  1  0.03232000  0.86763600  0.50737800  1
  C  2635  1  0.03812000  0.85661600  0.53242400  1
  C  2636  1  0.06321800  0.84430500  0.53257100  1
  C  2641  1  0.06336100  0.82424600  0.51322200  1
  C  2642  1  0.05761600  0.83381400  0.48749700  1
  C  2645  1  0.03311900  0.84709800  0.48831300  1
  C  2648  1  0.07733700  0.85308000  0.48166600  1
  C  2651  1  0.05501900  0.81203600  0.47246400  1
  C  2652  1  0.09565300  0.89263700  0.49515400  1
  C  2655  1  0.00902000  0.87964500  0.50906800  1
  C  2656  1  0.06986900  0.83425300  0.55562300  1
  C  2659  1  0.07613600  0.12552600  0.50244400  1
  C  2660  1  0.08286800  0.13710100  0.47802600  1
  C  2661  1  0.05101500  0.11337900  0.50033100  1
  C  2662  1  0.03135400  0.13186300  0.49291800  1
  C  2665  1  0.03902600  0.14324800  0.46850800  1
  C  2666  1  0.06402900  0.15577800  0.47022300  1
  C  2671  1  0.06258300  0.17560300  0.48979300  1
  C  2672  1  0.05519700  0.16549600  0.51478500  1
  C  2675  1  0.03086400  0.15211800  0.51226600  1
  C  2678  1  0.07434300  0.14626000  0.52166900  1
  C  2681  1  0.05145400  0.18680200  0.53000500  1
  C  2682  1  0.09473100  0.10810300  0.50867500  1
  C  2685  1  0.00800300  0.12020500  0.48948400  1
  C  2686  1  0.07196000  0.16652500  0.44786000  1
  N  23  1  0.09636100  0.27602500  0.50480800  1
  N  24  1  0.06348400  0.32221300  0.45204400  1
  N  25  1  0.05715200  0.18098400  0.43858200  1
  N  26  1  0.00608800  0.22637700  0.39863300  1
  N  49  1  0.89970600  0.72371200  0.49492300  1
  N  50  1  0.93697500  0.68049100  0.44136200  1
  N  51  1  0.94573600  0.82114000  0.43512900  1
  N  52  1  0.99801300  0.77735000  0.39771900  1
  N  75  1  0.90660200  0.28158700  0.51017600  1
  N  76  1  0.92296700  0.32374300  0.57921800  1
  N  77  1  0.94640600  0.17983600  0.56242800  1
  N  78  1  0.99870100  0.21819600  0.60801400  1
  N  101  1  0.10236000  0.72489800  0.50298100  1
  N  102  1  0.06439000  0.67883600  0.55354700  1
  N  103  1  0.05499300  0.81951600  0.56429300  1
  N  104  1  0.00218800  0.77497700  0.60081700  1
  N  127  1  0.50197300  0.09746200  0.27512100  1
  N  128  1  0.44996400  0.06327900  0.32187700  1
  N  129  1  0.43800000  0.04985700  0.18051800  1
  N  130  1  0.40392900  0.99800200  0.22804900  1
  N  153  1  0.49432900  0.90021500  0.72292600  1
  N  154  1  0.44051000  0.93741600  0.67938100  1
  N  155  1  0.43468600  0.94713900  0.82030200  1
  N  156  1  0.39564100  0.99770700  0.77537700  1
  N  179  1  0.50601600  0.90169500  0.28753700  1
  N  180  1  0.57740100  0.92457900  0.32225400  1
  N  181  1  0.57585800  0.92384400  0.17832400  1
  N  182  1  0.59861100  0.99467800  0.21404800  1
  N  205  1  0.50145800  0.10370400  0.72456200  1
  N  206  1  0.55205800  0.06486200  0.67950900  1
  N  207  1  0.56252800  0.05904900  0.81985400  1
  N  208  1  0.59949000  0.00513200  0.77691600  1
  N  231  1  0.27570100  0.50226600  0.09555100  1
  N  232  1  0.32290300  0.45000300  0.06239300  1
  N  233  1  0.18151200  0.43614500  0.05437000  1
  N  234  1  0.22736700  0.39660200  0.00384000  1
  N  257  1  0.72594600  0.49699700  0.89829300  1
  N  258  1  0.67944800  0.44593000  0.93623500  1
  N  259  1  0.82153700  0.43504000  0.94594200  1
  N  260  1  0.77502100  0.39772100  0.99727600  1
  N  283  1  0.28009400  0.50945900  0.90623000  1
  N  284  1  0.32197300  0.57856700  0.92239600  1
  N  285  1  0.17859800  0.56136700  0.94527000  1
  N  286  1  0.21581800  0.60588300  0.99912800  1
  N  309  1  0.72372600  0.50358400  0.10146100  1
  N  310  1  0.68126600  0.55719900  0.06375000  1
  N  311  1  0.82144200  0.56310800  0.05798900  1
  N  312  1  0.77969800  0.60058500  0.00412900  1
  N  335  1  0.27496300  0.09626000  0.49594100  1
  N  336  1  0.32166700  0.06346500  0.54842900  1
  N  337  1  0.18063100  0.05421700  0.56221700  1
  N  338  1  0.22722000  0.00462200  0.60203900  1
  N  361  1  0.72218400  0.89950000  0.50480600  1
  N  362  1  0.67958300  0.93682200  0.55860200  1
  N  363  1  0.82018300  0.94288800  0.56441000  1
  N  364  1  0.77781900  0.99640500  0.60213600  1
  N  387  1  0.28208500  0.90679800  0.48938800  1
  N  388  1  0.32409800  0.92338500  0.42042500  1
  N  389  1  0.18066500  0.94504700  0.43692200  1
  N  390  1  0.21748800  0.99940600  0.39283800  1
  N  413  1  0.72545100  0.10222000  0.49791700  1
  N  414  1  0.67908900  0.06490200  0.44686700  1
  N  415  1  0.82011700  0.05348400  0.43679700  1
  N  416  1  0.77406800  0.00280300  0.39851100  1
  N  439  1  0.09710800  0.50222500  0.72452300  1
  N  440  1  0.06278300  0.45028300  0.67778500  1
  N  441  1  0.05014400  0.43783800  0.81917600  1
  N  442  1  0.99819800  0.40370500  0.77175900  1
  N  465  1  0.89998500  0.49437700  0.27702600  1
  N  466  1  0.93715300  0.44078200  0.32076000  1
  N  467  1  0.94720300  0.43428400  0.18011500  1
  N  468  1  0.99771400  0.39557700  0.22524400  1
  N  491  1  0.90116800  0.50585900  0.71313900  1
  N  492  1  0.92380000  0.57740400  0.67863200  1
  N  493  1  0.92348700  0.57518800  0.82248500  1
  N  494  1  0.99421300  0.59834600  0.78672200  1
  N  517  1  0.10362300  0.50159200  0.27602500  1
  N  518  1  0.06449300  0.55220900  0.32088800  1
  N  519  1  0.05917800  0.56237000  0.18041800  1
  N  520  1  0.00508300  0.59935600  0.22311600  1
  N  543  1  0.50243000  0.27624900  0.90469900  1
  N  544  1  0.44990900  0.32314500  0.93788200  1
  N  545  1  0.43642400  0.18170800  0.94592100  1
  N  546  1  0.39688300  0.22761800  0.99646900  1
  N  569  1  0.49711500  0.72462600  0.10078400  1
  N  570  1  0.44361400  0.67955100  0.06479800  1
  N  571  1  0.43557000  0.82170000  0.05443000  1
  N  572  1  0.39725500  0.77564400  0.00351600  1
  N  595  1  0.50988600  0.28098600  0.09413700  1
  N  596  1  0.57890200  0.32286000  0.07729900  1
  N  597  1  0.56145200  0.17913400  0.05509600  1
  N  598  1  0.60602000  0.21641000  0.00110900  1
  N  621  1  0.50150300  0.72371000  0.89857500  1
  N  622  1  0.55406600  0.67977000  0.93573900  1
  N  623  1  0.56277400  0.82015600  0.94178500  1
  N  624  1  0.60012500  0.77776400  0.99548900  1
  N  647  1  0.90926700  0.71826900  0.51392600  1
  N  648  1  0.93787300  0.68051700  0.57179000  1
  N  649  1  0.92550000  0.81783000  0.56127000  1
  N  650  1  0.98323300  0.78027800  0.59107600  1
  N  673  1  0.08421800  0.28003200  0.52263300  1
  N  674  1  0.05332000  0.31453200  0.57810300  1
  N  675  1  0.07655000  0.18161700  0.56256700  1
  N  676  1  0.01735100  0.21210700  0.59803800  1
  N  699  1  0.09301700  0.72041800  0.48363000  1
  N  700  1  0.06421200  0.68294500  0.42556400  1
  N  701  1  0.07408400  0.82071500  0.43691800  1
  N  702  1  0.01693700  0.78252400  0.40757900  1
  N  725  1  0.91302400  0.28516000  0.48958700  1
  N  726  1  0.93658900  0.32150300  0.42695900  1
  N  727  1  0.92773300  0.18296000  0.43492100  1
  N  728  1  0.98625800  0.22172300  0.40682700  1
  N  751  1  0.51363300  0.90954100  0.71824700  1
  N  752  1  0.57193800  0.93789100  0.68079500  1
  N  753  1  0.56177000  0.92762400  0.81903900  1
  N  754  1  0.59011200  0.98585500  0.78159200  1
  N  777  1  0.52055400  0.08641300  0.27888300  1
  N  778  1  0.57721700  0.05609500  0.31324800  1
  N  779  1  0.56251700  0.07922700  0.17902900  1
  N  780  1  0.59130900  0.01448900  0.20815800  1
  N  803  1  0.48235400  0.09409700  0.71956400  1
  N  804  1  0.42569200  0.06485100  0.68036600  1
  N  805  1  0.43473600  0.07345000  0.81832600  1
  N  806  1  0.40544600  0.01678400  0.78005300  1
  N  829  1  0.48630800  0.90916200  0.29362600  1
  N  830  1  0.42120100  0.93925700  0.32042700  1
  N  831  1  0.44573200  0.92320200  0.18796400  1
  N  832  1  0.41506800  0.97964500  0.22345400  1
  N  855  1  0.72180900  0.51636800  0.90775100  1
  N  856  1  0.68598400  0.57508100  0.93696500  1
  N  857  1  0.82354300  0.56185600  0.92821600  1
  N  858  1  0.78500600  0.59078200  0.98522100  1
  N  881  1  0.27881000  0.52043300  0.08367000  1
  N  882  1  0.31199500  0.57662100  0.05285200  1
  N  883  1  0.17883500  0.56023700  0.07691800  1
  N  884  1  0.20941800  0.59579900  0.01761800  1
  N  907  1  0.71795000  0.48467200  0.09190900  1
  N  908  1  0.67826700  0.42798200  0.06269800  1
  N  909  1  0.81580400  0.43609800  0.07502600  1
  N  910  1  0.77941300  0.40719700  0.01658300  1
  N  933  1  0.28435100  0.48901200  0.91270400  1
  N  934  1  0.32175600  0.42686600  0.93545300  1
  N  935  1  0.18353300  0.43399200  0.92626100  1
  N  936  1  0.22236000  0.40519000  0.98425400  1
  N  959  1  0.71662200  0.90927600  0.48594700  1
  N  960  1  0.67817300  0.93800500  0.42872900  1
  N  961  1  0.81551700  0.92563700  0.43799100  1
  N  962  1  0.77860000  0.98355800  0.40805900  1
  N  985  1  0.27871400  0.08425900  0.47796600  1
  N  986  1  0.31263800  0.05345700  0.42215300  1
  N  987  1  0.17934200  0.07662300  0.43842900  1
  N  988  1  0.21068200  0.01773300  0.40295900  1
  N  1011  1  0.72121300  0.09278600  0.51727400  1
  N  1012  1  0.68421200  0.06375800  0.57542100  1
  N  1013  1  0.82203100  0.07277400  0.56380000  1
  N  1014  1  0.78330900  0.01540300  0.59259900  1
  N  1037  1  0.28593400  0.91316100  0.50994700  1
  N  1038  1  0.32288000  0.93617800  0.57240400  1
  N  1039  1  0.18435600  0.92673100  0.56492100  1
  N  1040  1  0.22279800  0.98487800  0.59350900  1
  N  1063  1  0.90928600  0.51367500  0.28179000  1
  N  1064  1  0.93761900  0.57195400  0.31947000  1
  N  1065  1  0.92762600  0.56145900  0.18121800  1
  N  1066  1  0.98581900  0.58992700  0.21849700  1
  N  1089  1  0.08601800  0.52081200  0.72092100  1
  N  1090  1  0.05548300  0.57754600  0.68688200  1
  N  1091  1  0.07916100  0.56246800  0.82106500  1
  N  1092  1  0.01411300  0.59112400  0.79241100  1
  N  1115  1  0.09404300  0.48246600  0.28099100  1
  N  1116  1  0.06471700  0.42580600  0.32013500  1
  N  1117  1  0.07338700  0.43452600  0.18211800  1
  N  1118  1  0.01677600  0.40540700  0.22056200  1
  N  1141  1  0.90862800  0.48618600  0.70694100  1
  N  1142  1  0.93888700  0.42131100  0.67965300  1
  N  1143  1  0.92343900  0.44505500  0.81230300  1
  N  1144  1  0.97981400  0.41476500  0.77644200  1
  N  1167  1  0.51626000  0.71985400  0.09116300  1
  N  1168  1  0.57495500  0.68363000  0.06226300  1
  N  1169  1  0.56210300  0.82108500  0.07224400  1
  N  1170  1  0.59059000  0.78308600  0.01453300  1
  N  1193  1  0.52062500  0.27958000  0.91648000  1
  N  1194  1  0.57697200  0.31299000  0.94708400  1
  N  1195  1  0.56036700  0.17973800  0.92315700  1
  N  1196  1  0.59597300  0.21012200  0.98256200  1
  N  1219  1  0.48267800  0.71823000  0.90847400  1
  N  1220  1  0.42609300  0.67921900  0.93821300  1
  N  1221  1  0.43565700  0.81659200  0.92570800  1
  N  1222  1  0.40665900  0.78020800  0.98420800  1
  N  1245  1  0.48934300  0.28494500  0.08779300  1
  N  1246  1  0.42685000  0.32171700  0.06480200  1
  N  1247  1  0.43421800  0.18349900  0.07406400  1
  N  1248  1  0.40540300  0.22259300  0.01608100  1
  O  8  1  0.02514100  0.18297400  0.40332800  1
  O  15  1  0.09613900  0.31976000  0.48646100  1
  O  17  1  0.09179800  0.21559000  0.44467800  1
  O  18  1  0.06230400  0.29017700  0.41438500  1
  O  34  1  0.97828200  0.82052800  0.40057600  1
  O  41  1  0.90298600  0.68082900  0.47459700  1
  O  43  1  0.90938300  0.78759900  0.43796100  1
  O  44  1  0.93944200  0.71517400  0.40587000  1
  O  60  1  0.97769900  0.17631500  0.59817900  1
  O  67  1  0.90595800  0.32299900  0.53426800  1
  O  69  1  0.91428500  0.21668800  0.55863600  1
  O  70  1  0.94049200  0.28425200  0.60174500  1
  O  86  1  0.02176100  0.81827600  0.59837100  1
  O  93  1  0.09936000  0.68111100  0.52142200  1
  O  95  1  0.09123600  0.78600300  0.56165500  1
  O  96  1  0.05966200  0.71181200  0.59008000  1
  O  112  1  0.40463500  0.01620800  0.18429400  1
  O  119  1  0.48325200  0.09695900  0.31855400  1
  O  121  1  0.44290400  0.08628600  0.21312500  1
  O  122  1  0.41352200  0.05847900  0.28912400  1
  O  138  1  0.39945900  0.97902900  0.81904500  1
  O  145  1  0.47443500  0.90405100  0.67979200  1
  O  147  1  0.43842500  0.91053300  0.78719000  1
  O  148  1  0.40479900  0.93878800  0.71399800  1
  O  164  1  0.59544600  0.96748300  0.17478100  1
  O  171  1  0.53379300  0.90480900  0.32640900  1
  O  173  1  0.55693200  0.90616100  0.21952300  1
  O  174  1  0.59464100  0.94288800  0.28082000  1
  O  190  1  0.59645100  0.02555200  0.81984900  1
  O  197  1  0.52017700  0.10016900  0.68088400  1
  O  199  1  0.56107100  0.09480600  0.78544100  1
  O  200  1  0.58861200  0.06083500  0.71252000  1
  O  216  1  0.18388800  0.40063300  0.02270400  1
  O  223  1  0.31971700  0.48453000  0.09486800  1
  O  225  1  0.21546400  0.44239900  0.08948300  1
  O  226  1  0.29089200  0.41236400  0.06051100  1
  O  242  1  0.81891500  0.40107400  0.97898700  1
  O  249  1  0.68198700  0.47904400  0.90221800  1
  O  251  1  0.78810600  0.43938700  0.90971900  1
  O  252  1  0.71272200  0.40951800  0.94005600  1
  O  268  1  0.17433500  0.59635400  0.97729700  1
  O  275  1  0.32129700  0.53376300  0.90536200  1
  O  277  1  0.21573800  0.55879400  0.91330800  1
  O  278  1  0.28248700  0.60093800  0.94057900  1
  O  294  1  0.82228400  0.59763300  0.02515400  1
  O  301  1  0.68093500  0.52423600  0.09802500  1
  O  303  1  0.78703200  0.56141100  0.09358300  1
  O  304  1  0.71596000  0.59255400  0.06123400  1
  O  320  1  0.18350600  0.02288300  0.59798500  1
  O  327  1  0.31877300  0.09617000  0.51407000  1
  O  329  1  0.21413500  0.08969400  0.55552100  1
  O  330  1  0.28975900  0.06199800  0.58618400  1
  O  346  1  0.82062400  0.97580600  0.59865700  1
  O  353  1  0.67943400  0.90280500  0.52541000  1
  O  355  1  0.78563700  0.90722800  0.56243600  1
  O  356  1  0.71434100  0.93896200  0.59404800  1
  O  372  1  0.17621600  0.97699600  0.40188100  1
  O  379  1  0.32334800  0.90607900  0.46518500  1
  O  381  1  0.21814800  0.91345100  0.43966500  1
  O  382  1  0.28462300  0.94136700  0.39800000  1
  O  398  1  0.81797700  0.02098600  0.40200600  1
  O  405  1  0.68156000  0.09931800  0.47960400  1
  O  407  1  0.78735500  0.09020200  0.44047200  1
  O  408  1  0.71208700  0.06084500  0.41024000  1
  O  424  1  0.01657000  0.40438800  0.81545300  1
  O  431  1  0.09641200  0.48363700  0.68102800  1
  O  433  1  0.08639400  0.44297700  0.78641300  1
  O  434  1  0.05832500  0.41369600  0.71043800  1
  O  450  1  0.97907900  0.39904100  0.18154000  1
  O  457  1  0.90367100  0.47460600  0.32022400  1
  O  459  1  0.91043400  0.43803900  0.21306400  1
  O  460  1  0.93850100  0.40485900  0.28632600  1
  O  476  1  0.96708700  0.59495900  0.82603200  1
  O  483  1  0.90413100  0.53377600  0.67435000  1
  O  485  1  0.90579100  0.55648000  0.78123600  1
  O  486  1  0.94232600  0.59448600  0.72003700  1
  O  502  1  0.02563400  0.59623800  0.18025200  1
  O  509  1  0.09982300  0.52036000  0.31966600  1
  O  511  1  0.09481900  0.56101300  0.21494600  1
  O  512  1  0.06048500  0.58865700  0.28775800  1
  O  528  1  0.40093200  0.18411400  0.97761700  1
  O  535  1  0.48445900  0.32016700  0.90541000  1
  O  537  1  0.44278500  0.21569500  0.91087500  1
  O  538  1  0.41239200  0.29095400  0.93963400  1
  O  554  1  0.40112400  0.81943100  0.02189700  1
  O  561  1  0.47771300  0.68127200  0.09779700  1
  O  563  1  0.44049000  0.78814700  0.09040800  1
  O  564  1  0.40801800  0.71382000  0.06171800  1
  O  580  1  0.59624700  0.17493300  0.02286600  1
  O  587  1  0.53415400  0.32226300  0.09458700  1
  O  589  1  0.55878000  0.21642400  0.08684700  1
  O  590  1  0.60111900  0.28327100  0.05921100  1
  O  606  1  0.59726600  0.82043700  0.97464700  1
  O  613  1  0.52130800  0.68053900  0.90131900  1
  O  615  1  0.56047000  0.78569900  0.90630000  1
  O  616  1  0.59005100  0.71352300  0.93906200  1
  O  632  1  0.97496300  0.82730900  0.56893200  1
  O  639  1  0.93235000  0.67152200  0.52185600  1
  O  641  1  0.91309100  0.77420800  0.54131100  1
  O  642  1  0.95622900  0.72444600  0.58547500  1
  O  658  1  0.02912200  0.16670400  0.57368300  1
  O  665  1  0.05882400  0.32598000  0.52853300  1
  O  667  1  0.08291900  0.22669100  0.54386700  1
  O  668  1  0.03414600  0.27059900  0.58999100  1
  O  684  1  0.02390500  0.82913700  0.43201400  1
  O  691  1  0.06960800  0.67385400  0.47536200  1
  O  693  1  0.08863300  0.77649900  0.45358800  1
  O  694  1  0.04530100  0.72644200  0.41178800  1
  O  710  1  0.97773300  0.17538000  0.42924600  1
  O  717  1  0.92984600  0.33001800  0.47542800  1
  O  719  1  0.91293800  0.22584100  0.45492000  1
  O  720  1  0.94988900  0.27695700  0.41106500  1
  O  736  1  0.56724400  0.97740500  0.82771800  1
  O  743  1  0.52203200  0.93271000  0.67209500  1
  O  745  1  0.54392700  0.91321800  0.77522000  1
  O  746  1  0.58628400  0.95559200  0.72469400  1
  O  762  1  0.57331500  0.03301100  0.16445100  1
  O  769  1  0.52742900  0.06073100  0.32424800  1
  O  771  1  0.54983500  0.08794500  0.22575400  1
  O  772  1  0.58958700  0.03644600  0.26925600  1
  O  788  1  0.43044000  0.02306700  0.82643900  1
  O  795  1  0.47572300  0.07036700  0.67257000  1
  O  797  1  0.45252400  0.08837600  0.77479500  1
  O  798  1  0.41090000  0.04607800  0.72347200  1
  O  814  1  0.43947300  0.97280000  0.17690000  1
  O  821  1  0.46668100  0.92755300  0.33676700  1
  O  823  1  0.46677500  0.91195100  0.23163800  1
  O  824  1  0.41456800  0.95235100  0.27350400  1
  O  840  1  0.83144500  0.56697700  0.97826500  1
  O  847  1  0.67571100  0.52540300  0.93116400  1
  O  849  1  0.77965100  0.54480100  0.91315000  1
  O  850  1  0.72970500  0.58755600  0.95634800  1
  O  866  1  0.16403100  0.57121400  0.02947900  1
  O  873  1  0.32399700  0.52717600  0.05795400  1
  O  875  1  0.22459400  0.54305900  0.08359200  1
  O  876  1  0.26805200  0.58823200  0.03324600  1
  O  892  1  0.82584100  0.43046700  0.02522600  1
  O  899  1  0.67077800  0.47792300  0.06883200  1
  O  901  1  0.77210400  0.45537200  0.08784500  1
  O  902  1  0.72170000  0.41310400  0.04438300  1
  O  918  1  0.17557300  0.42750000  0.97618700  1
  O  925  1  0.32987900  0.47555700  0.92921100  1
  O  927  1  0.22632500  0.45491100  0.91232800  1
  O  928  1  0.27737300  0.41065600  0.94919700  1
  O  944  1  0.82521700  0.97513700  0.43069600  1
  O  951  1  0.66987700  0.93298400  0.47882700  1
  O  953  1  0.77234100  0.91331500  0.45873900  1
  O  954  1  0.72218400  0.95505800  0.41411400  1
  O  970  1  0.16488900  0.02911500  0.42710300  1
  O  977  1  0.32449000  0.05902500  0.47164400  1
  O  979  1  0.22482700  0.08329700  0.45642100  1
  O  980  1  0.26880300  0.03331300  0.41077900  1
  O  996  1  0.83002900  0.02259300  0.56881600  1
  O  1003  1  0.67477000  0.06967700  0.52574600  1
  O  1005  1  0.77793500  0.08765300  0.54695100  1
  O  1006  1  0.72755400  0.04404500  0.58868000  1
  O  1022  1  0.17649400  0.97678100  0.57029600  1
  O  1029  1  0.33103700  0.93004100  0.52381400  1
  O  1031  1  0.22730500  0.91207700  0.54509800  1
  O  1032  1  0.27825200  0.94846400  0.58882900  1
  O  1048  1  0.97739500  0.56685400  0.17251600  1
  O  1055  1  0.93226300  0.52204300  0.32811300  1
  O  1057  1  0.91314300  0.54390200  0.22510800  1
  O  1058  1  0.95558800  0.58621300  0.27564200  1
  O  1074  1  0.03300900  0.57308900  0.83584900  1
  O  1081  1  0.06009100  0.52780600  0.67574800  1
  O  1083  1  0.08778200  0.55008900  0.77424400  1
  O  1084  1  0.03613700  0.58984900  0.73102300  1
  O  1100  1  0.02298000  0.43031900  0.17408800  1
  O  1107  1  0.07013800  0.47584600  0.32787300  1
  O  1109  1  0.08841300  0.45231400  0.22561200  1
  O  1110  1  0.04616100  0.41088800  0.27699800  1
  O  1126  1  0.97312400  0.43902100  0.82309100  1
  O  1133  1  0.92697800  0.46687900  0.66361900  1
  O  1135  1  0.91181900  0.46613700  0.76878300  1
  O  1136  1  0.95223400  0.41445200  0.72644400  1
  O  1152  1  0.56756900  0.82966000  0.02233100  1
  O  1159  1  0.52539700  0.67345900  0.06842800  1
  O  1161  1  0.54376400  0.77727700  0.08644700  1
  O  1162  1  0.58754100  0.72774800  0.04365100  1
  O  1178  1  0.57147900  0.16486200  0.97054300  1
  O  1185  1  0.52752000  0.32493100  0.94193100  1
  O  1187  1  0.54281000  0.22538600  0.91666800  1
  O  1188  1  0.58852700  0.26899100  0.96675900  1
  O  1204  1  0.43036700  0.82659700  0.97557300  1
  O  1211  1  0.47600000  0.67111300  0.93207100  1
  O  1213  1  0.45430100  0.77264800  0.91277800  1
  O  1214  1  0.41180700  0.72283100  0.95655300  1
  O  1230  1  0.42747300  0.17573800  0.02417700  1
  O  1237  1  0.47546800  0.33012800  0.07111000  1
  O  1239  1  0.45521500  0.22622700  0.08806700  1
  O  1240  1  0.41085400  0.27730000  0.05105600  1
