# generated using pymatgen
data_H9(C6N)2
_symmetry_space_group_name_H-M   'P 1'
_cell_length_a   32.91240000
_cell_length_b   32.91240000
_cell_length_c   32.91240000
_cell_angle_alpha   90.00000000
_cell_angle_beta   90.00000000
_cell_angle_gamma   90.00000000
_symmetry_Int_Tables_number   1
_chemical_formula_structural   H9(C6N)2
_chemical_formula_sum   'H432 C576 N96'
_cell_volume   35651.56983002
_cell_formula_units_Z   48
loop_
 _symmetry_equiv_pos_site_id
 _symmetry_equiv_pos_as_xyz
  1  'x, y, z'
loop_
 _atom_site_type_symbol
 _atom_site_label
 _atom_site_symmetry_multiplicity
 _atom_site_fract_x
 _atom_site_fract_y
 _atom_site_fract_z
 _atom_site_occupancy
  H  7  1  0.15883300  0.35752500  0.44690200  1
  H  16  1  0.09771000  0.41760600  0.33333333  1
  H  17  1  0.24539900  0.47890200  0.30662900  1
  H  18  1  0.20892500  0.47817900  0.27299900  1
  H  19  1  0.01005700  0.29593300  0.45034700  1
  H  20  1  0.04054900  0.29591800  0.48973100  1
  H  21  1  0.08517100  0.35047900  0.34375500  1
  H  22  1  0.19373800  0.40632100  0.41593500  1
  H  29  1  0.35825700  0.65969700  0.94689000  1
  H  38  1  0.41957500  0.59940400  0.83344300  1
  H  39  1  0.27180700  0.53815600  0.80664800  1
  H  40  1  0.30821800  0.53856600  0.77299200  1
  H  41  1  0.50721300  0.72112100  0.95091600  1
  H  42  1  0.47651400  0.72116900  0.99009800  1
  H  43  1  0.43242700  0.66634200  0.84404400  1
  H  44  1  0.32351000  0.61076100  0.91600200  1
  H  51  1  0.85765300  0.85733100  0.06976400  1
  H  60  1  0.91883900  0.91745400  0.18334200  1
  H  61  1  0.77125400  0.97969200  0.20955600  1
  H  62  1  0.80753200  0.97871100  0.24327200  1
  H  63  1  0.00635400  0.79528400  0.06601700  1
  H  64  1  0.97575400  0.79510500  0.02678700  1
  H  65  1  0.93163100  0.85052200  0.17274800  1
  H  66  1  0.82296700  0.90630000  0.10050400  1
  H  73  1  0.65855100  0.15933100  0.57007400  1
  H  82  1  0.59759300  0.09903900  0.68368800  1
  H  83  1  0.74547600  0.03807000  0.71001200  1
  H  84  1  0.70915200  0.03900100  0.74378400  1
  H  85  1  0.50973200  0.22075800  0.56648300  1
  H  86  1  0.54031300  0.22097100  0.52717500  1
  H  87  1  0.58467300  0.16597900  0.67307500  1
  H  88  1  0.69327700  0.11027000  0.60072500  1
  H  95  1  0.44699300  0.15840300  0.35762200  1
  H  104  1  0.33337000  0.09756200  0.41798200  1
  H  105  1  0.30711800  0.24543600  0.47903200  1
  H  106  1  0.27335900  0.20909700  0.47820000  1
  H  107  1  0.45024100  0.00954300  0.29617100  1
  H  108  1  0.48963900  0.04001000  0.29608400  1
  H  109  1  0.34380700  0.08479800  0.35091000  1
  H  110  1  0.41629300  0.19328500  0.40659500  1
  H  117  1  0.94733900  0.35778600  0.65949300  1
  H  126  1  0.83370700  0.41885400  0.59927600  1
  H  127  1  0.80747400  0.27111200  0.53778500  1
  H  128  1  0.77371500  0.30741600  0.53835100  1
  H  129  1  0.95112800  0.50666600  0.72107200  1
  H  130  1  0.99034700  0.47601500  0.72112700  1
  H  131  1  0.84439000  0.43183100  0.66612300  1
  H  132  1  0.91660300  0.32304600  0.61055400  1
  H  139  1  0.06984500  0.85768900  0.85729700  1
  H  148  1  0.18340200  0.91910700  0.91744500  1
  H  149  1  0.20965600  0.77147200  0.97955500  1
  H  150  1  0.24343100  0.80770200  0.97851300  1
  H  151  1  0.06549600  0.00651800  0.79563700  1
  H  152  1  0.02637700  0.97576900  0.79535700  1
  H  153  1  0.17250800  0.93210200  0.85064900  1
  H  154  1  0.10044300  0.82332800  0.90655800  1
  H  161  1  0.57052400  0.65882800  0.15955400  1
  H  170  1  0.68387600  0.59737400  0.09940900  1
  H  171  1  0.71099700  0.74510200  0.03837800  1
  H  172  1  0.74455600  0.70856300  0.03908700  1
  H  173  1  0.56637900  0.51008800  0.22146500  1
  H  174  1  0.52722700  0.54082400  0.22142400  1
  H  175  1  0.67332700  0.58466700  0.16647800  1
  H  176  1  0.60154300  0.69358100  0.11076600  1
  H  183  1  0.35727300  0.44712600  0.15909400  1
  H  192  1  0.41756000  0.33356700  0.09800600  1
  H  193  1  0.47858900  0.30705500  0.24582800  1
  H  194  1  0.47771100  0.27333900  0.20944900  1
  H  195  1  0.29619100  0.45097600  0.01012700  1
  H  196  1  0.29595300  0.49025900  0.04074800  1
  H  197  1  0.35067000  0.34424700  0.08503600  1
  H  198  1  0.40631500  0.41640200  0.19380800  1
  H  205  1  0.65947800  0.94736700  0.35824200  1
  H  214  1  0.59900900  0.83378300  0.41906700  1
  H  215  1  0.53755400  0.80772300  0.27126900  1
  H  216  1  0.53804700  0.77394900  0.30755600  1
  H  217  1  0.72106000  0.95055400  0.50715600  1
  H  218  1  0.72113900  0.98987700  0.47663500  1
  H  219  1  0.66599500  0.84413500  0.43188600  1
  H  220  1  0.61057300  0.91667300  0.32328900  1
  H  227  1  0.85746100  0.07043500  0.85836700  1
  H  236  1  0.91751800  0.18399200  0.91960800  1
  H  237  1  0.97927300  0.21067300  0.77189800  1
  H  238  1  0.97850700  0.24432300  0.80826700  1
  H  239  1  0.79539100  0.06667900  0.00708000  1
  H  240  1  0.79531800  0.02742800  0.97650200  1
  H  241  1  0.85047900  0.17345700  0.93226300  1
  H  242  1  0.90630000  0.10136500  0.82357700  1
  H  249  1  0.15974000  0.57041700  0.65919900  1
  H  258  1  0.09970400  0.68380300  0.59755900  1
  H  259  1  0.03848600  0.71093600  0.74521800  1
  H  260  1  0.03931600  0.74453400  0.70871500  1
  H  261  1  0.22128000  0.56605100  0.51047000  1
  H  262  1  0.22142900  0.52686900  0.54121300  1
  H  263  1  0.16668300  0.67306300  0.58483100  1
  H  264  1  0.11073500  0.60137800  0.69371400  1
  H  271  1  0.11069800  0.41543300  0.82407000  1
  H  280  1  0.16687500  0.34337800  0.93255500  1
  H  281  1  0.22028600  0.48960300  0.97760200  1
  H  282  1  0.22009100  0.45021300  0.00811600  1
  H  283  1  0.04144300  0.27135600  0.80778700  1
  H  284  1  0.04048300  0.30512800  0.77145700  1
  H  285  1  0.09990200  0.33244300  0.91977200  1
  H  286  1  0.15960500  0.44644000  0.85895300  1
  H  293  1  0.40731800  0.60104400  0.32452800  1
  H  302  1  0.35072200  0.67333000  0.43284300  1
  H  303  1  0.29692500  0.52703300  0.47741900  1
  H  304  1  0.29703900  0.56625200  0.50811000  1
  H  305  1  0.47610900  0.74540900  0.30734000  1
  H  306  1  0.47717900  0.71133700  0.27133700  1
  H  307  1  0.41732000  0.68484500  0.41965400  1
  H  308  1  0.35794100  0.57044500  0.35896500  1
  H  315  1  0.60985200  0.10096000  0.19241900  1
  H  324  1  0.66614100  0.17375000  0.08440600  1
  H  325  1  0.71977200  0.02767900  0.03853100  1
  H  326  1  0.71949500  0.06713300  0.00817400  1
  H  327  1  0.53973600  0.24474300  0.20963700  1
  H  328  1  0.53865400  0.21070700  0.24561000  1
  H  329  1  0.59933100  0.18478400  0.09735200  1
  H  330  1  0.65894900  0.07029800  0.15748600  1
  H  337  1  0.90626700  0.91511400  0.69263000  1
  H  346  1  0.85022400  0.84304400  0.58409900  1
  H  347  1  0.79696700  0.98933000  0.53893100  1
  H  348  1  0.79723500  0.94995800  0.50838900  1
  H  349  1  0.97604900  0.77125400  0.70884300  1
  H  350  1  0.97683600  0.80500700  0.74519400  1
  H  351  1  0.91724100  0.83215500  0.59690600  1
  H  352  1  0.85746400  0.94616000  0.65765200  1
  H  359  1  0.91525100  0.69284600  0.90633700  1
  H  368  1  0.84344800  0.58420900  0.85001700  1
  H  369  1  0.98989800  0.53975700  0.79661500  1
  H  370  1  0.95062700  0.50908500  0.79682200  1
  H  371  1  0.77122600  0.70897600  0.97580900  1
  H  372  1  0.80500100  0.74530300  0.97673900  1
  H  373  1  0.83226100  0.59711300  0.91691900  1
  H  374  1  0.94624600  0.65819000  0.85737300  1
  H  381  1  0.10112800  0.19280000  0.61016800  1
  H  390  1  0.17318100  0.08430000  0.66659700  1
  H  391  1  0.02682900  0.03983800  0.72027300  1
  H  392  1  0.06604200  0.00913400  0.72021800  1
  H  393  1  0.24519500  0.20937200  0.54047700  1
  H  394  1  0.21125300  0.24550100  0.53962400  1
  H  395  1  0.18456800  0.09736700  0.59992000  1
  H  396  1  0.07035400  0.15827900  0.65935700  1
  H  403  1  0.60085000  0.32462200  0.40723600  1
  H  412  1  0.67352800  0.43268800  0.35074900  1
  H  413  1  0.52735200  0.47802400  0.29691800  1
  H  414  1  0.56670800  0.50850200  0.29722600  1
  H  415  1  0.74488700  0.30716700  0.47659600  1
  H  416  1  0.71079000  0.27125900  0.47791700  1
  H  417  1  0.68482400  0.41958700  0.41746900  1
  H  418  1  0.57030800  0.35928700  0.35796200  1
  H  425  1  0.41575500  0.82483200  0.11011400  1
  H  434  1  0.34302300  0.93285900  0.16633800  1
  H  435  1  0.48903200  0.97876200  0.21968000  1
  H  436  1  0.44950600  0.00910200  0.21948500  1
  H  437  1  0.27175900  0.80758000  0.04058300  1
  H  438  1  0.30580000  0.77154800  0.03974500  1
  H  439  1  0.33210000  0.91997900  0.09940300  1
  H  440  1  0.44650400  0.85985300  0.15911500  1
  H  447  1  0.19241000  0.61024100  0.10135800  1
  H  456  1  0.08395900  0.66646000  0.17355600  1
  H  457  1  0.03886300  0.71963500  0.02725200  1
  H  458  1  0.00832200  0.71944000  0.06662500  1
  H  459  1  0.20916200  0.54092100  0.24538500  1
  H  460  1  0.24537100  0.53995800  0.21149100  1
  H  461  1  0.09703400  0.59964000  0.18475700  1
  H  462  1  0.15759300  0.65924400  0.07054600  1
  H  469  1  0.69294300  0.90687100  0.91589200  1
  H  478  1  0.58468000  0.85033600  0.84362500  1
  H  479  1  0.53978200  0.79676100  0.98988900  1
  H  480  1  0.50916700  0.79683700  0.95060300  1
  H  481  1  0.70950200  0.97665700  0.77185500  1
  H  482  1  0.74563100  0.97749800  0.80580000  1
  H  483  1  0.59752900  0.91712000  0.83243700  1
  H  484  1  0.65832700  0.85767700  0.94667700  1
  H  491  1  0.82484400  0.11001900  0.41585600  1
  H  500  1  0.93294100  0.16625100  0.34310200  1
  H  501  1  0.97865600  0.22001900  0.48918400  1
  H  502  1  0.00903200  0.21978000  0.44974900  1
  H  503  1  0.80738600  0.04057100  0.27186000  1
  H  504  1  0.77143900  0.03934900  0.30591500  1
  H  505  1  0.91987300  0.09946600  0.33200300  1
  H  506  1  0.85975500  0.15909500  0.44649800  1
  H  513  1  0.32455300  0.40677700  0.60148200  1
  H  522  1  0.43281600  0.35037000  0.67377100  1
  H  523  1  0.47797200  0.29690600  0.52756100  1
  H  524  1  0.50848000  0.29713000  0.56695700  1
  H  525  1  0.30793600  0.47580900  0.74559500  1
  H  526  1  0.27171400  0.47691800  0.71171100  1
  H  527  1  0.42000600  0.41729600  0.68480600  1
  H  528  1  0.35935700  0.35771000  0.57062400  1
  H  535  1  0.28661000  0.43318000  0.37292600  1
  H  536  1  0.33707700  0.48409700  0.38741300  1
  H  537  1  0.24438500  0.56950000  0.40694700  1
  H  539  1  0.17631000  0.54913400  0.40842400  1
  H  540  1  0.16194400  0.50164400  0.40093700  1
  H  547  1  0.23054900  0.58359200  0.87264400  1
  H  548  1  0.18025900  0.53251700  0.88713400  1
  H  549  1  0.27326900  0.44759400  0.90727800  1
  H  551  1  0.34127300  0.46819200  0.90860300  1
  H  552  1  0.35550100  0.51569000  0.90094700  1
  H  559  1  0.73005000  0.93347800  0.14396800  1
  H  560  1  0.67966800  0.98451400  0.12951400  1
  H  561  1  0.77260300  0.06935300  0.10856100  1
  H  563  1  0.84061400  0.04877500  0.10704000  1
  H  564  1  0.85487900  0.00132200  0.11493800  1
  H  571  1  0.78638500  0.08324000  0.64396700  1
  H  572  1  0.83674000  0.03223100  0.62945600  1
  H  573  1  0.74384500  0.94720600  0.60918100  1
  H  575  1  0.67577300  0.96771800  0.60800800  1
  H  576  1  0.66149900  0.01518300  0.61581700  1
  H  583  1  0.37323600  0.28640600  0.43349900  1
  H  584  1  0.38768700  0.33683700  0.48446800  1
  H  585  1  0.40758200  0.24403700  0.56969100  1
  H  587  1  0.40902500  0.17598400  0.54924900  1
  H  588  1  0.40141400  0.16165600  0.50176900  1
  H  595  1  0.87316100  0.22997400  0.58331200  1
  H  596  1  0.88773000  0.17969200  0.53225200  1
  H  597  1  0.90854900  0.27275200  0.44752800  1
  H  599  1  0.90976100  0.34074700  0.46815200  1
  H  600  1  0.90179100  0.35497600  0.51559900  1
  H  607  1  0.14348000  0.73046100  0.93329600  1
  H  608  1  0.12904200  0.67997200  0.98422200  1
  H  609  1  0.10931500  0.77265700  0.06961100  1
  H  611  1  0.10792500  0.84076200  0.04926700  1
  H  612  1  0.11549100  0.85513700  0.00179000  1
  H  619  1  0.64498500  0.78639700  0.08369200  1
  H  620  1  0.63037700  0.83680300  0.03275100  1
  H  621  1  0.61001000  0.74397500  0.94766800  1
  H  623  1  0.60871900  0.67590700  0.96814600  1
  H  624  1  0.61651300  0.66160200  0.01560300  1
  H  631  1  0.43324100  0.37312700  0.28690800  1
  H  632  1  0.48428300  0.38757400  0.33727100  1
  H  633  1  0.56932400  0.40768200  0.24434200  1
  H  635  1  0.54878400  0.40912000  0.17632500  1
  H  636  1  0.50129500  0.40145100  0.16205900  1
  H  643  1  0.58325200  0.87331900  0.23017200  1
  H  644  1  0.53221900  0.88783900  0.17985700  1
  H  645  1  0.44745200  0.90871000  0.27284500  1
  H  647  1  0.46804000  0.91000700  0.34084700  1
  H  648  1  0.51547800  0.90206200  0.35510900  1
  H  655  1  0.93305600  0.14436900  0.73077300  1
  H  656  1  0.98394300  0.12986300  0.68025800  1
  H  657  1  0.06943000  0.11035100  0.77288500  1
  H  659  1  0.04912900  0.10890300  0.84098700  1
  H  660  1  0.00164400  0.11637100  0.85538900  1
  H  667  1  0.08358900  0.64470000  0.78650900  1
  H  668  1  0.03251900  0.63008200  0.83678200  1
  H  669  1  0.94754600  0.61015900  0.74375900  1
  H  671  1  0.96815800  0.60897700  0.67572100  1
  H  672  1  0.01567000  0.61665500  0.66153200  1
  H  679  1  0.78612300  0.93308600  0.87319400  1
  H  680  1  0.83648700  0.98414600  0.88755300  1
  H  681  1  0.74366800  0.06985500  0.90518800  1
  H  683  1  0.67553900  0.04952600  0.90606900  1
  H  684  1  0.66122800  0.00196300  0.89895900  1
  H  691  1  0.73143900  0.08429500  0.37315700  1
  H  692  1  0.68080400  0.03348200  0.38748600  1
  H  693  1  0.77317700  0.94735500  0.40541300  1
  H  695  1  0.84145200  0.96728300  0.40610500  1
  H  696  1  0.85604200  0.01474700  0.39891400  1
  H  703  1  0.23123700  0.43275500  0.64410400  1
  H  704  1  0.18077600  0.48375400  0.62983300  1
  H  705  1  0.27341500  0.56973400  0.61263000  1
  H  707  1  0.34157700  0.54954100  0.61160000  1
  H  708  1  0.35598500  0.50197200  0.61845700  1
  H  715  1  0.28568100  0.58435100  0.14426500  1
  H  716  1  0.33622000  0.53346800  0.12992100  1
  H  717  1  0.24370700  0.44752100  0.11187200  1
  H  719  1  0.17547400  0.46761100  0.11110300  1
  H  720  1  0.16098500  0.51510400  0.11831700  1
  H  727  1  0.87231000  0.78601400  0.93248200  1
  H  728  1  0.88667500  0.83637800  0.98355700  1
  H  729  1  0.90454100  0.74352900  0.06919200  1
  H  731  1  0.90562600  0.67543600  0.04883000  1
  H  732  1  0.89856400  0.66112500  0.00126100  1
  H  739  1  0.37303600  0.73139000  0.08415800  1
  H  740  1  0.38740100  0.68084100  0.03328800  1
  H  741  1  0.40537600  0.77333500  0.94731500  1
  H  743  1  0.40608700  0.84157400  0.96737100  1
  H  744  1  0.39885300  0.85608200  0.01485300  1
  H  751  1  0.64324700  0.23124900  0.43281300  1
  H  752  1  0.62897900  0.18059200  0.48363200  1
  H  753  1  0.61179100  0.27291400  0.56996800  1
  H  755  1  0.61098000  0.34118800  0.55007900  1
  H  756  1  0.61792200  0.35578400  0.50257400  1
  H  763  1  0.14399800  0.28603500  0.58409600  1
  H  764  1  0.12965500  0.33646000  0.53310600  1
  H  765  1  0.11184800  0.24375300  0.44732700  1
  H  767  1  0.11106900  0.17559200  0.46752900  1
  H  768  1  0.11818900  0.16117500  0.51505200  1
  H  775  1  0.93244200  0.87217600  0.78588600  1
  H  776  1  0.98342600  0.88657500  0.83633300  1
  H  777  1  0.06914600  0.90470800  0.74362300  1
  H  779  1  0.04887300  0.90582900  0.67550300  1
  H  780  1  0.00134000  0.89868900  0.66111900  1
  H  787  1  0.08453400  0.37233100  0.73091300  1
  H  788  1  0.03354800  0.38672100  0.68048500  1
  H  789  1  0.94786500  0.40498700  0.77320100  1
  H  791  1  0.96813100  0.40586800  0.84136400  1
  H  792  1  0.01565200  0.39862800  0.85574500  1
  H  799  1  0.43298000  0.64347200  0.23121200  1
  H  800  1  0.48389100  0.62916700  0.18068900  1
  H  801  1  0.57012600  0.61244400  0.27318400  1
  H  803  1  0.55008500  0.61173900  0.34141600  1
  H  804  1  0.50253700  0.61861200  0.35589300  1
  H  811  1  0.58397200  0.14361200  0.28573400  1
  H  812  1  0.53315200  0.12924700  0.33635100  1
  H  813  1  0.44708400  0.11120800  0.24394500  1
  H  815  1  0.46704300  0.11050900  0.17567800  1
  H  816  1  0.51450800  0.11774500  0.16110600  1
  H  823  1  0.08076600  0.24542000  0.37403500  1
  H  824  1  0.03510700  0.18989400  0.37446700  1
  H  825  1  0.93659900  0.27061600  0.37345500  1
  H  827  1  0.94889500  0.34195600  0.37236700  1
  H  828  1  0.99535800  0.36123800  0.37370100  1
  H  835  1  0.43712700  0.77149100  0.87459800  1
  H  836  1  0.48296100  0.82678300  0.87528400  1
  H  837  1  0.58122200  0.74576800  0.87410600  1
  H  839  1  0.56861900  0.67440000  0.87320000  1
  H  840  1  0.52207400  0.65529700  0.87434300  1
  H  847  1  0.93622200  0.74533000  0.14240700  1
  H  848  1  0.98200400  0.68989500  0.14193400  1
  H  849  1  0.08034600  0.77088300  0.14289900  1
  H  851  1  0.06782900  0.84219400  0.14377200  1
  H  852  1  0.02131000  0.86134400  0.14249000  1
  H  859  1  0.58028600  0.27101900  0.64271500  1
  H  860  1  0.53470100  0.32655200  0.64218100  1
  H  861  1  0.43603000  0.24598900  0.64330800  1
  H  863  1  0.44829900  0.17454400  0.64415900  1
  H  864  1  0.49475000  0.15522400  0.64294000  1
  H  871  1  0.37377100  0.08054400  0.24592700  1
  H  872  1  0.37418100  0.03507600  0.19021800  1
  H  873  1  0.37347900  0.93625500  0.27063700  1
  H  875  1  0.37249800  0.94834500  0.34203800  1
  H  876  1  0.37379200  0.99475300  0.36145700  1
  H  883  1  0.87486200  0.43669000  0.77136900  1
  H  884  1  0.87534200  0.48263900  0.82657000  1
  H  885  1  0.87416300  0.58073000  0.74535500  1
  H  887  1  0.87344600  0.56798700  0.67401700  1
  H  888  1  0.87469500  0.52140900  0.65500600  1
  H  895  1  0.14197500  0.93669000  0.74542100  1
  H  896  1  0.14143200  0.98256300  0.69007100  1
  H  897  1  0.14246800  0.08075700  0.77119600  1
  H  899  1  0.14329500  0.06815100  0.84247300  1
  H  900  1  0.14203200  0.02160700  0.86156300  1
  H  907  1  0.64267300  0.58029800  0.27160900  1
  H  908  1  0.64197700  0.53461000  0.32704400  1
  H  909  1  0.64313200  0.43610900  0.24631300  1
  H  911  1  0.64409800  0.44848800  0.17490300  1
  H  912  1  0.64297700  0.49497200  0.15565500  1
  H  919  1  0.24554700  0.37447900  0.08031200  1
  H  920  1  0.19021300  0.37484100  0.03437800  1
  H  921  1  0.27145600  0.37405100  0.93623100  1
  H  923  1  0.34274600  0.37317300  0.94890100  1
  H  924  1  0.36179100  0.37450300  0.99546100  1
  H  931  1  0.77110500  0.87428200  0.43653500  1
  H  932  1  0.82655200  0.87471000  0.48219500  1
  H  933  1  0.74583200  0.87360100  0.58072700  1
  H  935  1  0.67441800  0.87289900  0.56833000  1
  H  936  1  0.65518200  0.87418500  0.52184000  1
  H  943  1  0.74546400  0.14311200  0.93661400  1
  H  944  1  0.68988000  0.14247200  0.98216800  1
  H  945  1  0.77043300  0.14336400  0.08080600  1
  H  947  1  0.84178300  0.14443200  0.06860300  1
  H  948  1  0.86112600  0.14325000  0.02215900  1
  H  955  1  0.27190300  0.64218100  0.58036800  1
  H  956  1  0.32719900  0.64148200  0.53450700  1
  H  957  1  0.24616500  0.64291900  0.43625500  1
  H  959  1  0.17479600  0.64393400  0.44884900  1
  H  960  1  0.15568500  0.64276100  0.49538800  1
  H  967  1  0.99099200  0.32816500  0.88530500  1
  H  968  1  0.93898400  0.27841400  0.88437200  1
  H  969  1  0.02693700  0.18637100  0.88567900  1
  H  971  1  0.09696600  0.20370100  0.88571200  1
  H  972  1  0.11302500  0.25133500  0.88459100  1
  H  979  1  0.52637300  0.68974600  0.38510700  1
  H  980  1  0.57792800  0.73989200  0.38391600  1
  H  981  1  0.48927800  0.83127100  0.38471500  1
  H  983  1  0.41933100  0.81331100  0.38467300  1
  H  984  1  0.40367500  0.76553200  0.38390100  1
  H  991  1  0.49022300  0.18929100  0.13178900  1
  H  992  1  0.43850400  0.23936900  0.13298600  1
  H  993  1  0.52706900  0.33088800  0.13244600  1
  H  995  1  0.59698200  0.31306500  0.13246300  1
  H  996  1  0.61272400  0.26531900  0.13322700  1
  H  1003  1  0.02616500  0.82799800  0.63159200  1
  H  1004  1  0.07820100  0.77832700  0.63275900  1
  H  1005  1  0.99040200  0.68611200  0.63121800  1
  H  1007  1  0.92028600  0.70339800  0.63114200  1
  H  1008  1  0.90417600  0.75102100  0.63207800  1
  H  1015  1  0.82803800  0.63118800  0.02583600  1
  H  1016  1  0.77834800  0.63222400  0.07793100  1
  H  1017  1  0.68617000  0.63154600  0.99005000  1
  H  1019  1  0.70345200  0.63158600  0.91998800  1
  H  1020  1  0.75107900  0.63251300  0.90389400  1
  H  1027  1  0.18930700  0.13171300  0.49079700  1
  H  1028  1  0.23935400  0.13276300  0.43914500  1
  H  1029  1  0.33090000  0.13192200  0.52761600  1
  H  1031  1  0.31308900  0.13214500  0.59758700  1
  H  1032  1  0.26534500  0.13300400  0.61334400  1
  H  1039  1  0.68946400  0.38504700  0.52659200  1
  H  1040  1  0.73958800  0.38383700  0.57825000  1
  H  1041  1  0.83100900  0.38446300  0.48962400  1
  H  1043  1  0.81313500  0.38450000  0.41973000  1
  H  1044  1  0.76537400  0.38372500  0.40402700  1
  H  1051  1  0.32760000  0.88490700  0.99031400  1
  H  1052  1  0.27755300  0.88371000  0.93864400  1
  H  1053  1  0.18597900  0.88530200  0.02708100  1
  H  1055  1  0.20375400  0.88545100  0.09706800  1
  H  1056  1  0.25148300  0.88452700  0.11285600  1
  H  1063  1  0.13143800  0.49068200  0.18915800  1
  H  1064  1  0.13259700  0.43881700  0.23909400  1
  H  1065  1  0.13181100  0.52712400  0.33086600  1
  H  1067  1  0.13172400  0.59710000  0.31326500  1
  H  1068  1  0.13258700  0.61298500  0.26556900  1
  H  1075  1  0.63180800  0.02625100  0.82779200  1
  H  1076  1  0.63281600  0.07795400  0.77778000  1
  H  1077  1  0.63199000  0.98952700  0.68615800  1
  H  1079  1  0.63226700  0.91954100  0.70393300  1
  H  1080  1  0.63315700  0.90376000  0.75166500  1
  H  1087  1  0.88510700  0.99044800  0.32749400  1
  H  1088  1  0.88382200  0.93872000  0.27746600  1
  H  1089  1  0.88473700  0.02716500  0.18589500  1
  H  1091  1  0.88496200  0.09709300  0.20363900  1
  H  1092  1  0.88417500  0.11288200  0.25137000  1
  H  1099  1  0.38537500  0.52630000  0.68925400  1
  H  1100  1  0.38429300  0.57812600  0.73913200  1
  H  1101  1  0.38562700  0.48996800  0.83098200  1
  H  1103  1  0.38560900  0.41992100  0.81342300  1
  H  1104  1  0.38464500  0.40400000  0.76573600  1
  C  1  1  0.12154300  0.36736000  0.39470200  1
  C  2  1  0.13189400  0.35043300  0.43340800  1
  C  3  1  0.10610500  0.32270500  0.45416900  1
  C  4  1  0.06752400  0.31402800  0.43694800  1
  C  5  1  0.06235600  0.31995200  0.39455700  1
  C  6  1  0.08932600  0.34660200  0.37427500  1
  C  9  1  0.14473800  0.39945800  0.37407800  1
  C  10  1  0.18257400  0.41519000  0.38846500  1
  C  11  1  0.20580600  0.44391500  0.36616900  1
  C  12  1  0.19138800  0.45672500  0.32759700  1
  C  13  1  0.14986300  0.45021000  0.31774700  1
  C  14  1  0.12759600  0.42150400  0.34078400  1
  C  23  1  0.39570500  0.64972500  0.89483000  1
  C  24  1  0.38526800  0.66666667  0.93349700  1
  C  25  1  0.41104300  0.69438600  0.95434000  1
  C  26  1  0.44969400  0.70296900  0.93723700  1
  C  27  1  0.45503800  0.69693200  0.89488500  1
  C  28  1  0.42811500  0.67030100  0.87453100  1
  C  31  1  0.37256500  0.61757000  0.87420000  1
  C  32  1  0.33467000  0.60191900  0.88852300  1
  C  33  1  0.31140300  0.57325500  0.86618100  1
  C  34  1  0.32582900  0.56044600  0.82761500  1
  C  35  1  0.36735400  0.56692900  0.81778000  1
  C  36  1  0.38968300  0.59554800  0.84086900  1
  C  45  1  0.89502200  0.86719900  0.12190100  1
  C  46  1  0.88461500  0.85026000  0.08321200  1
  C  47  1  0.91029300  0.82239900  0.06248300  1
  C  48  1  0.94891900  0.81378200  0.07961200  1
  C  49  1  0.95424600  0.81984900  0.12195600  1
  C  50  1  0.92734400  0.84654400  0.14226300  1
  C  53  1  0.87191200  0.89943600  0.14243200  1
  C  54  1  0.83409300  0.91517200  0.12798600  1
  C  55  1  0.81088900  0.94403400  0.15015800  1
  C  56  1  0.82524600  0.95681000  0.18874400  1
  C  57  1  0.86670700  0.95018000  0.19874500  1
  C  58  1  0.88899700  0.92143100  0.17578800  1
  C  67  1  0.62122200  0.14932500  0.62219400  1
  C  68  1  0.63155900  0.16631000  0.58351000  1
  C  69  1  0.60579600  0.19406700  0.56273900  1
  C  70  1  0.56718200  0.20266100  0.57995200  1
  C  71  1  0.56188900  0.19655200  0.62231600  1
  C  72  1  0.58888500  0.16992600  0.64257300  1
  C  75  1  0.64444100  0.11718400  0.64275200  1
  C  76  1  0.68226600  0.10148700  0.62828300  1
  C  77  1  0.70565500  0.07281100  0.65049700  1
  C  78  1  0.69136600  0.06010700  0.68916000  1
  C  79  1  0.64987100  0.06657700  0.69915600  1
  C  80  1  0.62746000  0.09519200  0.67615600  1
  C  89  1  0.39480900  0.12114700  0.36766400  1
  C  90  1  0.43348400  0.13144800  0.35062800  1
  C  91  1  0.45417900  0.10560700  0.32289400  1
  C  92  1  0.43691500  0.06702100  0.31431300  1
  C  93  1  0.39452900  0.06189300  0.32032600  1
  C  94  1  0.37432400  0.08891400  0.34698800  1
  C  97  1  0.37425400  0.14443200  0.39975500  1
  C  98  1  0.38877500  0.18223400  0.41546100  1
  C  99  1  0.36656100  0.20559000  0.44415200  1
  C  100  1  0.32793700  0.19132300  0.45697400  1
  C  101  1  0.31795600  0.14982400  0.45051700  1
  C  102  1  0.34090200  0.12742900  0.42183200  1
  C  111  1  0.89521600  0.39515500  0.64953700  1
  C  112  1  0.93389800  0.38476400  0.66650900  1
  C  113  1  0.95468300  0.41053500  0.69423400  1
  C  114  1  0.93752500  0.44915600  0.70285700  1
  C  115  1  0.89517700  0.45446400  0.69678300  1
  C  116  1  0.87487100  0.42753500  0.67011500  1
  C  119  1  0.87465900  0.37198800  0.61735400  1
  C  120  1  0.88910600  0.33414500  0.60169100  1
  C  121  1  0.86686200  0.31082800  0.57300000  1
  C  122  1  0.82829000  0.32517200  0.56013000  1
  C  123  1  0.81831200  0.36666400  0.56663500  1
  C  124  1  0.84127000  0.38900900  0.59535000  1
  C  133  1  0.12180200  0.89528300  0.86730000  1
  C  134  1  0.08316500  0.88473700  0.85030900  1
  C  135  1  0.06232700  0.91037500  0.82249000  1
  C  136  1  0.07930100  0.94908600  0.81395800  1
  C  137  1  0.12162700  0.95455500  0.82001300  1
  C  138  1  0.14204000  0.92770500  0.84667800  1
  C  141  1  0.14242600  0.87220400  0.89950300  1
  C  142  1  0.12797900  0.83441500  0.91531500  1
  C  143  1  0.15021000  0.81120800  0.94412200  1
  C  144  1  0.18886600  0.82550100  0.95674900  1
  C  145  1  0.19889600  0.86694700  0.95008900  1
  C  146  1  0.17585400  0.88926400  0.92141900  1
  C  155  1  0.62258300  0.62136200  0.14973500  1
  C  156  1  0.58389300  0.63182600  0.16662500  1
  C  157  1  0.56299200  0.60614900  0.19435700  1
  C  158  1  0.58010400  0.56751900  0.20306500  1
  C  159  1  0.62245900  0.56208900  0.19703700  1
  C  160  1  0.64284000  0.58899100  0.17040400  1
  C  163  1  0.64325600  0.64447200  0.11759400  1
  C  164  1  0.62901500  0.68239400  0.10193700  1
  C  165  1  0.65133500  0.70564300  0.07323400  1
  C  166  1  0.68989200  0.69111400  0.06047100  1
  C  167  1  0.69965100  0.64955500  0.06693200  1
  C  168  1  0.67652900  0.62728700  0.09556300  1
  C  177  1  0.36736000  0.39508500  0.12164900  1
  C  178  1  0.35032700  0.43372700  0.13207100  1
  C  179  1  0.32265700  0.45454000  0.10626100  1
  C  180  1  0.31411600  0.43743400  0.06760000  1
  C  181  1  0.32014700  0.39507300  0.06230200  1
  C  182  1  0.34674800  0.37474300  0.08928500  1
  C  185  1  0.39939700  0.37443000  0.14491300  1
  C  186  1  0.41511400  0.38887500  0.18273500  1
  C  187  1  0.44376000  0.36657600  0.20606600  1
  C  188  1  0.45652700  0.32795600  0.19174900  1
  C  189  1  0.45005200  0.31801700  0.15023800  1
  C  190  1  0.42141300  0.34105700  0.12788100  1
  C  199  1  0.64944800  0.89513400  0.39543200  1
  C  200  1  0.66648200  0.93382200  0.38517400  1
  C  201  1  0.69423400  0.95447300  0.41103100  1
  C  202  1  0.70280800  0.93717000  0.44959400  1
  C  203  1  0.69668900  0.89480600  0.45474400  1
  C  204  1  0.67001200  0.87463400  0.42772300  1
  C  207  1  0.61723000  0.87469200  0.37221500  1
  C  208  1  0.60161800  0.88919700  0.33437000  1
  C  209  1  0.57287900  0.86703200  0.31102900  1
  C  210  1  0.55992300  0.82847800  0.32534600  1
  C  211  1  0.56640700  0.81846100  0.36682800  1
  C  212  1  0.59513200  0.84135800  0.38921500  1
  C  221  1  0.86725100  0.12260300  0.89571100  1
  C  222  1  0.85036700  0.08388300  0.88532300  1
  C  223  1  0.82253500  0.06312600  0.91102200  1
  C  224  1  0.81390900  0.08026600  0.94963900  1
  C  225  1  0.81990400  0.12262600  0.95492900  1
  C  226  1  0.84655700  0.14295900  0.92800900  1
  C  229  1  0.89943900  0.14319900  0.87260500  1
  C  230  1  0.91514200  0.12884600  0.83473700  1
  C  231  1  0.94392400  0.15112400  0.81153600  1
  C  232  1  0.95660300  0.18973400  0.82592000  1
  C  233  1  0.95007400  0.19960900  0.86742400  1
  C  234  1  0.92143400  0.17653400  0.88973200  1
  C  243  1  0.14991000  0.62239200  0.62161400  1
  C  244  1  0.16680500  0.58372200  0.63216300  1
  C  245  1  0.19455700  0.56277300  0.60654100  1
  C  246  1  0.20324300  0.57979700  0.56786200  1
  C  247  1  0.19723200  0.62214600  0.56236600  1
  C  248  1  0.17059100  0.64258200  0.58921300  1
  C  251  1  0.11776500  0.64313200  0.64466600  1
  C  252  1  0.10200500  0.62889100  0.68254500  1
  C  253  1  0.07330400  0.65125300  0.70575900  1
  C  254  1  0.06065700  0.68985600  0.69125000  1
  C  255  1  0.06721400  0.69962700  0.64971600  1
  C  256  1  0.09582200  0.67646000  0.62746600  1
  C  265  1  0.11786700  0.37348900  0.87294500  1
  C  266  1  0.10217200  0.38778400  0.83506600  1
  C  267  1  0.07394900  0.36511500  0.81157600  1
  C  268  1  0.06166400  0.32628400  0.82576200  1
  C  269  1  0.06786800  0.31653700  0.86735400  1
  C  270  1  0.09601000  0.33999100  0.88991400  1
  C  273  1  0.14970600  0.39430700  0.89631300  1
  C  274  1  0.16657500  0.43304700  0.88597300  1
  C  275  1  0.19415800  0.45390800  0.91184500  1
  C  276  1  0.20260800  0.43674700  0.95050500  1
  C  277  1  0.19680000  0.39434700  0.95577100  1
  C  278  1  0.17043600  0.37396300  0.92860200  1
  C  287  1  0.39979800  0.64327500  0.37311500  1
  C  288  1  0.41565800  0.62881200  0.33536300  1
  C  289  1  0.44383300  0.65146300  0.31180100  1
  C  290  1  0.45586500  0.69044500  0.32575600  1
  C  291  1  0.44947200  0.70048700  0.36724500  1
  C  292  1  0.42136400  0.67706400  0.38988400  1
  C  295  1  0.36786500  0.62249800  0.39642800  1
  C  296  1  0.35101400  0.58376500  0.38603100  1
  C  297  1  0.32341300  0.56284900  0.41183900  1
  C  298  1  0.31492700  0.57991500  0.45052900  1
  C  299  1  0.32083700  0.62227600  0.45591000  1
  C  300  1  0.34718200  0.64275800  0.42880500  1
  C  309  1  0.61703500  0.14323000  0.14382900  1
  C  310  1  0.60130200  0.12867100  0.18159800  1
  C  311  1  0.57290300  0.15109300  0.20514100  1
  C  312  1  0.56067300  0.19002300  0.19122600  1
  C  313  1  0.56709000  0.20018800  0.14977500  1
  C  314  1  0.59529900  0.17692600  0.12710700  1
  C  317  1  0.64900500  0.12263000  0.12042000  1
  C  318  1  0.66585600  0.08380900  0.13050700  1
  C  319  1  0.69351700  0.06313800  0.10454400  1
  C  320  1  0.70174500  0.08043300  0.06590200  1
  C  321  1  0.69592000  0.12284300  0.06086500  1
  C  322  1  0.66967800  0.14314300  0.08820100  1
  C  331  1  0.89927800  0.87323000  0.64369100  1
  C  332  1  0.91487400  0.88749600  0.68162200  1
  C  333  1  0.94316800  0.86491800  0.70512100  1
  C  334  1  0.95555200  0.82612100  0.69089500  1
  C  335  1  0.94932600  0.81632200  0.64931200  1
  C  336  1  0.92114000  0.83972300  0.62675800  1
  C  339  1  0.86736000  0.89398000  0.62035300  1
  C  340  1  0.85054000  0.93276100  0.63062300  1
  C  341  1  0.82296400  0.95360400  0.60472100  1
  C  342  1  0.81459900  0.93646200  0.56603000  1
  C  343  1  0.82043900  0.89406200  0.56079500  1
  C  344  1  0.84669300  0.87363800  0.58802500  1
  C  353  1  0.87334000  0.64395500  0.89907500  1
  C  354  1  0.88760500  0.68181900  0.91482600  1
  C  355  1  0.86493900  0.70525100  0.94309500  1
  C  356  1  0.82610800  0.69104700  0.95536100  1
  C  357  1  0.81635200  0.64947000  0.94905300  1
  C  358  1  0.83981500  0.62695800  0.92087200  1
  C  361  1  0.89423500  0.62064200  0.86724200  1
  C  362  1  0.93295300  0.63112100  0.85040300  1
  C  363  1  0.95394200  0.60534000  0.82283900  1
  C  364  1  0.93693600  0.56662600  0.81432600  1
  C  365  1  0.89456300  0.56122000  0.82013800  1
  C  366  1  0.87402400  0.58827700  0.84649300  1
  C  375  1  0.14317700  0.14403500  0.61750900  1
  C  376  1  0.12881300  0.18184600  0.60171000  1
  C  377  1  0.15143400  0.20531200  0.57343200  1
  C  378  1  0.19030700  0.19120100  0.56121100  1
  C  379  1  0.20024900  0.14969200  0.56764300  1
  C  380  1  0.17685200  0.12715300  0.59585500  1
  C  383  1  0.12239200  0.12077800  0.64947600  1
  C  384  1  0.08366000  0.13121100  0.66630500  1
  C  385  1  0.06270500  0.10541200  0.69387900  1
  C  386  1  0.07975000  0.06671200  0.70237100  1
  C  387  1  0.12212600  0.06132800  0.69656800  1
  C  388  1  0.14261700  0.08838600  0.67016700  1
  C  397  1  0.64318000  0.37314500  0.39987100  1
  C  398  1  0.62860200  0.33541200  0.41568500  1
  C  399  1  0.65107100  0.31185200  0.44402700  1
  C  400  1  0.69007100  0.32570400  0.45609300  1
  C  401  1  0.70025900  0.36715100  0.44968200  1
  C  402  1  0.67694600  0.38984100  0.42152500  1
  C  405  1  0.62252200  0.39652200  0.36791000  1
  C  406  1  0.58373500  0.38630700  0.35105600  1
  C  407  1  0.56298300  0.41217900  0.32338000  1
  C  408  1  0.58017100  0.45084800  0.31507000  1
  C  409  1  0.62255600  0.45604100  0.32092800  1
  C  410  1  0.64293100  0.42879900  0.34721900  1
  C  419  1  0.37353700  0.87346100  0.11724900  1
  C  420  1  0.38803900  0.83564900  0.10157400  1
  C  421  1  0.36556800  0.81199200  0.07331100  1
  C  422  1  0.32664300  0.82598700  0.06108200  1
  C  423  1  0.31655900  0.86749100  0.06732800  1
  C  424  1  0.33988100  0.89019100  0.09545800  1
  C  427  1  0.39415300  0.89689300  0.14918900  1
  C  428  1  0.43297400  0.88681800  0.16604000  1
  C  429  1  0.45364400  0.91279600  0.19367400  1
  C  430  1  0.43630100  0.95140500  0.20201800  1
  C  431  1  0.39387600  0.95644800  0.19615100  1
  C  432  1  0.37363400  0.92909700  0.16987600  1
  C  441  1  0.14368600  0.61749400  0.14346800  1
  C  442  1  0.18151200  0.60176400  0.12905900  1
  C  443  1  0.20507700  0.57355000  0.15166600  1
  C  444  1  0.19102300  0.56128100  0.19054800  1
  C  445  1  0.14948400  0.56757100  0.20046700  1
  C  446  1  0.12685100  0.59570900  0.17707900  1
  C  449  1  0.12023200  0.64927800  0.12265200  1
  C  450  1  0.13053800  0.66614100  0.08390900  1
  C  451  1  0.10462000  0.69361400  0.06296900  1
  C  452  1  0.06594700  0.70202700  0.08013700  1
  C  453  1  0.06068300  0.69627000  0.12254600  1
  C  454  1  0.08789900  0.66997600  0.14296400  1
  C  463  1  0.64421000  0.89952500  0.87381100  1
  C  464  1  0.68199900  0.91534200  0.88820700  1
  C  465  1  0.70545200  0.94365100  0.86560100  1
  C  466  1  0.69134200  0.95588000  0.82673100  1
  C  467  1  0.64983700  0.94943300  0.81678100  1
  C  468  1  0.62731400  0.92119700  0.84015800  1
  C  471  1  0.62095800  0.86752700  0.89454200  1
  C  472  1  0.63130000  0.85069800  0.93329900  1
  C  473  1  0.60547100  0.82307300  0.95416100  1
  C  474  1  0.56680500  0.81461400  0.93702400  1
  C  475  1  0.56151800  0.82046000  0.89464800  1
  C  476  1  0.58865700  0.84680000  0.87420600  1
  C  485  1  0.87341900  0.11722200  0.37356500  1
  C  486  1  0.83563700  0.10151400  0.38812100  1
  C  487  1  0.81202900  0.07321000  0.36565000  1
  C  488  1  0.82590200  0.06106800  0.32668200  1
  C  489  1  0.86737600  0.06737200  0.31653700  1
  C  490  1  0.89010900  0.09549000  0.33984500  1
  C  493  1  0.89685700  0.14915300  0.39418600  1
  C  494  1  0.88674200  0.16599700  0.43299800  1
  C  495  1  0.91270500  0.19363200  0.45368900  1
  C  496  1  0.95133800  0.20193700  0.43641600  1
  C  497  1  0.95641200  0.19608100  0.39401600  1
  C  498  1  0.92910900  0.16980900  0.37370100  1
  C  507  1  0.37331800  0.39952700  0.64353300  1
  C  508  1  0.33547900  0.41526900  0.62916700  1
  C  509  1  0.31195900  0.44353800  0.65176100  1
  C  510  1  0.32606600  0.45572200  0.69066400  1
  C  511  1  0.36760600  0.44941100  0.70057200  1
  C  512  1  0.39018700  0.42126700  0.67714900  1
  C  515  1  0.39663800  0.36757600  0.62280500  1
  C  516  1  0.38638000  0.35074900  0.58402300  1
  C  517  1  0.41221300  0.32309700  0.56318000  1
  C  518  1  0.45087600  0.31468400  0.58038300  1
  C  519  1  0.45610200  0.32053900  0.62278400  1
  C  520  1  0.42890800  0.34685100  0.64317700  1
  C  529  1  0.27729800  0.46141600  0.38187100  1
  C  530  1  0.30703000  0.49172100  0.38878400  1
  C  531  1  0.29565400  0.53216400  0.39744000  1
  C  532  1  0.25346600  0.54057500  0.39992200  1
  C  533  1  0.22324900  0.51038500  0.39548000  1
  C  534  1  0.23519600  0.46993900  0.38535000  1
  C  541  1  0.23996600  0.55544700  0.88177100  1
  C  542  1  0.21033400  0.52503600  0.88865900  1
  C  543  1  0.22187900  0.48470500  0.89760400  1
  C  544  1  0.26408700  0.47646800  0.90017500  1
  C  545  1  0.29418200  0.50676400  0.89564800  1
  C  546  1  0.28211200  0.54713700  0.88536600  1
  C  553  1  0.73940200  0.96158900  0.13467600  1
  C  554  1  0.70973600  0.99197300  0.12777800  1
  C  555  1  0.72124200  0.03227100  0.11863400  1
  C  556  1  0.76344500  0.04050400  0.11579500  1
  C  557  1  0.79358300  0.01025700  0.12034600  1
  C  558  1  0.78150800  0.96995100  0.13083700  1
  C  565  1  0.77700500  0.05508900  0.63482200  1
  C  566  1  0.80667500  0.02471500  0.62791600  1
  C  567  1  0.79518700  0.98437400  0.61892800  1
  C  568  1  0.75298700  0.97608200  0.61631500  1
  C  569  1  0.72284000  0.00631700  0.62092100  1
  C  570  1  0.73487500  0.04666800  0.63125500  1
  C  577  1  0.38227600  0.27707000  0.46169500  1
  C  578  1  0.38916400  0.30677800  0.49203400  1
  C  579  1  0.39796000  0.29534000  0.53242300  1
  C  580  1  0.40051800  0.25314800  0.54078700  1
  C  581  1  0.39603600  0.22296600  0.51056800  1
  C  582  1  0.38582400  0.23495500  0.47014800  1
  C  589  1  0.88246100  0.23939500  0.55522900  1
  C  590  1  0.88940700  0.20977200  0.52482100  1
  C  591  1  0.89859200  0.22134400  0.48455900  1
  C  592  1  0.90132000  0.26355300  0.47636800  1
  C  593  1  0.89664700  0.29363700  0.50665100  1
  C  594  1  0.88614700  0.28154400  0.54696100  1
  C  601  1  0.13448300  0.73975500  0.96151900  1
  C  602  1  0.12759800  0.71001800  0.99183000  1
  C  603  1  0.11889200  0.72140300  0.03226000  1
  C  604  1  0.11633600  0.76358500  0.04068300  1
  C  605  1  0.12080300  0.79381400  0.01051100  1
  C  606  1  0.13094600  0.78183900  0.97008500  1
  C  613  1  0.63581500  0.77704800  0.05554000  1
  C  614  1  0.62884200  0.80674200  0.02520700  1
  C  615  1  0.61977300  0.79528700  0.98487200  1
  C  616  1  0.61719000  0.75309600  0.97654100  1
  C  617  1  0.62179600  0.72292800  0.00674900  1
  C  618  1  0.63219400  0.73492700  0.04709200  1
  C  625  1  0.46141600  0.38220600  0.27753600  1
  C  626  1  0.49179400  0.38909400  0.30720300  1
  C  627  1  0.53214900  0.39795700  0.29569600  1
  C  628  1  0.54044100  0.40057600  0.25349600  1
  C  629  1  0.51018500  0.39606700  0.22335700  1
  C  630  1  0.46980200  0.38579700  0.23541100  1
  C  637  1  0.55516800  0.88264000  0.23957400  1
  C  638  1  0.52477200  0.88955300  0.20992900  1
  C  639  1  0.48448900  0.89873800  0.22145400  1
  C  640  1  0.47629800  0.90149600  0.26366300  1
  C  641  1  0.50656600  0.89686600  0.29377100  1
  C  642  1  0.54688800  0.88636500  0.28171800  1
  C  649  1  0.96130100  0.13541800  0.74005300  1
  C  650  1  0.99158700  0.12849600  0.71029800  1
  C  651  1  0.03204200  0.11983400  0.72164600  1
  C  652  1  0.04049500  0.11736300  0.76382800  1
  C  653  1  0.01033800  0.12179800  0.79407500  1
  C  654  1  0.96989300  0.13190700  0.78213400  1
  C  661  1  0.05542700  0.63563900  0.77708700  1
  C  662  1  0.02502300  0.62866300  0.80670500  1
  C  663  1  0.98468700  0.61973600  0.79515000  1
  C  664  1  0.97641700  0.61727500  0.75294100  1
  C  665  1  0.00669700  0.62186600  0.72284600  1
  C  666  1  0.04704500  0.63213300  0.73494500  1
  C  673  1  0.77674100  0.96145000  0.88165600  1
  C  674  1  0.80643500  0.99180900  0.88848000  1
  C  675  1  0.79496500  0.03233900  0.89655000  1
  C  676  1  0.75278300  0.04084900  0.89852500  1
  C  677  1  0.72260300  0.01062000  0.89412200  1
  C  678  1  0.73459900  0.97004500  0.88460000  1
  C  685  1  0.74066000  0.05591900  0.38174400  1
  C  686  1  0.71082100  0.02568900  0.38852800  1
  C  687  1  0.72207800  0.98511500  0.39673800  1
  C  688  1  0.76422300  0.97641000  0.39876200  1
  C  689  1  0.79457300  0.00646300  0.39431100  1
  C  690  1  0.78273300  0.04706600  0.38477300  1
  C  697  1  0.24056000  0.46117000  0.63575800  1
  C  698  1  0.21081300  0.49149300  0.62899400  1
  C  699  1  0.22219800  0.53208200  0.62109400  1
  C  700  1  0.26436700  0.54069000  0.61921100  1
  C  701  1  0.29461100  0.51050100  0.62349800  1
  C  702  1  0.28267000  0.46986300  0.63285000  1
  C  709  1  0.27639900  0.55599100  0.13568500  1
  C  710  1  0.30618900  0.52572000  0.12888900  1
  C  711  1  0.29486300  0.48517600  0.12064900  1
  C  712  1  0.25270800  0.47655000  0.11858900  1
  C  713  1  0.22242100  0.50666300  0.12304000  1
  C  714  1  0.23429900  0.54723800  0.13265200  1
  C  721  1  0.88082900  0.77664100  0.96082700  1
  C  722  1  0.88765700  0.80632000  0.99119500  1
  C  723  1  0.89580900  0.79483100  0.03170500  1
  C  724  1  0.89782900  0.75264700  0.04019800  1
  C  725  1  0.89346600  0.72247300  0.00995700  1
  C  726  1  0.88389200  0.73451700  0.96940100  1
  C  733  1  0.38160700  0.74066900  0.05579500  1
  C  734  1  0.38841600  0.71086900  0.02553000  1
  C  735  1  0.39663800  0.72217800  0.98497600  1
  C  736  1  0.39867400  0.76433500  0.97634400  1
  C  737  1  0.39419800  0.79463400  0.00644500  1
  C  738  1  0.38460300  0.78276900  0.04703000  1
  C  745  1  0.63487000  0.24045700  0.46125500  1
  C  746  1  0.62811000  0.21060200  0.49147100  1
  C  747  1  0.62021000  0.22184000  0.53210700  1
  C  748  1  0.61832300  0.26397600  0.54088100  1
  C  749  1  0.62266800  0.29434300  0.51082900  1
  C  750  1  0.63197800  0.28252100  0.47015700  1
  C  757  1  0.13545600  0.27668500  0.55574800  1
  C  758  1  0.12866100  0.30641400  0.52541600  1
  C  759  1  0.12047900  0.29499700  0.48488700  1
  C  760  1  0.11850400  0.25282200  0.47634600  1
  C  761  1  0.12293600  0.22260400  0.50653300  1
  C  762  1  0.13246500  0.23455900  0.54712500  1
  C  769  1  0.96078400  0.88075300  0.77655600  1
  C  770  1  0.99110400  0.88759900  0.80628600  1
  C  771  1  0.03162000  0.89583000  0.79486800  1
  C  772  1  0.04015500  0.89792600  0.75269200  1
  C  773  1  0.00996100  0.89354200  0.72247600  1
  C  774  1  0.96940400  0.88387700  0.73444700  1
  C  781  1  0.05621100  0.38096600  0.74025600  1
  C  782  1  0.02587900  0.38779600  0.71053500  1
  C  783  1  0.98538000  0.39614000  0.72195600  1
  C  784  1  0.97686000  0.39822400  0.76413200  1
  C  785  1  0.00704300  0.39376700  0.79434500  1
  C  786  1  0.04757200  0.38407100  0.78237400  1
  C  793  1  0.46143400  0.63523800  0.24050700  1
  C  794  1  0.49170200  0.62844700  0.21071200  1
  C  795  1  0.53233500  0.62067800  0.22203000  1
  C  796  1  0.54104600  0.61893100  0.26418000  1
  C  797  1  0.51092000  0.62329700  0.29447300  1
  C  798  1  0.47023600  0.63253100  0.28261900  1
  C  805  1  0.55561100  0.13498700  0.27650200  1
  C  806  1  0.52537400  0.12818500  0.30633100  1
  C  807  1  0.48481400  0.11993400  0.29505800  1
  C  808  1  0.47613100  0.11788700  0.25291000  1
  C  809  1  0.50619200  0.12234700  0.22257300  1
  C  810  1  0.54678200  0.13192500  0.23442700  1
  C  817  1  0.05056500  0.25154100  0.36986700  1
  C  818  1  0.02355700  0.21831400  0.36954500  1
  C  819  1  0.98130200  0.22475800  0.37259200  1
  C  820  1  0.96705200  0.26535700  0.36983000  1
  C  821  1  0.99381100  0.29921500  0.37058100  1
  C  822  1  0.03639800  0.29215100  0.37307500  1
  C  829  1  0.46728300  0.76518600  0.87038100  1
  C  830  1  0.49441300  0.79832600  0.87032300  1
  C  831  1  0.53664300  0.79167500  0.87333100  1
  C  832  1  0.55076800  0.75106400  0.87053500  1
  C  833  1  0.52387900  0.71732000  0.87115500  1
  C  834  1  0.48131700  0.72449000  0.87346700  1
  C  841  1  0.96641400  0.75154100  0.14652000  1
  C  842  1  0.99347400  0.71835300  0.14684000  1
  C  843  1  0.03568800  0.72497000  0.14385600  1
  C  844  1  0.04990600  0.76556300  0.14653400  1
  C  845  1  0.02303500  0.79933400  0.14576500  1
  C  846  1  0.98044500  0.79224000  0.14338300  1
  C  853  1  0.55010600  0.26487200  0.64696900  1
  C  854  1  0.52313100  0.29814100  0.64712400  1
  C  855  1  0.48088000  0.29165700  0.64411600  1
  C  856  1  0.46651400  0.25112400  0.64685400  1
  C  857  1  0.49324000  0.21725200  0.64617000  1
  C  858  1  0.53582300  0.22427800  0.64380300  1
  C  865  1  0.36966000  0.05031400  0.25194600  1
  C  866  1  0.36932000  0.02343600  0.21861200  1
  C  867  1  0.37244900  0.98119000  0.22499400  1
  C  868  1  0.36978800  0.96672100  0.26550600  1
  C  869  1  0.37055700  0.99338600  0.29943900  1
  C  870  1  0.37297500  0.03600900  0.29250700  1
  C  877  1  0.87059900  0.46682400  0.76499800  1
  C  878  1  0.87041700  0.49402400  0.79808200  1
  C  879  1  0.87335200  0.53624800  0.79135600  1
  C  880  1  0.87063000  0.55028200  0.75070500  1
  C  881  1  0.87136200  0.52332600  0.71701900  1
  C  882  1  0.87371700  0.48077900  0.72427400  1
  C  889  1  0.14606200  0.96687300  0.75167700  1
  C  890  1  0.14634400  0.99399400  0.71854100  1
  C  891  1  0.14340000  0.03620900  0.72517100  1
  C  892  1  0.14607100  0.05032300  0.76581800  1
  C  893  1  0.14530200  0.02341300  0.79955300  1
  C  894  1  0.14295000  0.98083400  0.79240100  1
  C  901  1  0.64689600  0.55012100  0.26540900  1
  C  902  1  0.64694500  0.52307700  0.29862200  1
  C  903  1  0.64391600  0.48082200  0.29209200  1
  C  904  1  0.64671400  0.46657500  0.25151700  1
  C  905  1  0.64610900  0.49335500  0.21768600  1
  C  906  1  0.64380600  0.53592900  0.22478000  1
  C  913  1  0.25181400  0.37035300  0.05013600  1
  C  914  1  0.21870600  0.36997600  0.02298400  1
  C  915  1  0.22544100  0.37300200  0.98078900  1
  C  916  1  0.26607600  0.37039200  0.96666000  1
  C  917  1  0.29978600  0.37121600  0.99360200  1
  C  918  1  0.29249300  0.37363100  0.03616100  1
  C  925  1  0.76488500  0.87001300  0.46670300  1
  C  926  1  0.79811900  0.86978800  0.49372000  1
  C  927  1  0.79157700  0.87276900  0.53595900  1
  C  928  1  0.75101800  0.87006100  0.55025200  1
  C  929  1  0.71720100  0.87081500  0.52345900  1
  C  930  1  0.72424100  0.87320300  0.48087700  1
  C  937  1  0.75155600  0.14718000  0.96684000  1
  C  938  1  0.71827400  0.14739200  0.99378100  1
  C  939  1  0.72464200  0.14427800  0.03603800  1
  C  940  1  0.76521300  0.14705200  0.05035500  1
  C  941  1  0.79910300  0.14639700  0.02363700  1
  C  942  1  0.79219100  0.14404500  0.98102300  1
  C  949  1  0.26561900  0.64645000  0.55021800  1
  C  950  1  0.29874700  0.64649800  0.52307100  1
  C  951  1  0.29207800  0.64357200  0.48083400  1
  C  952  1  0.25146400  0.64642800  0.46671500  1
  C  953  1  0.21771600  0.64581800  0.49359500  1
  C  954  1  0.22494400  0.64344500  0.53614200  1
  C  961  1  0.99937100  0.29848400  0.88889300  1
  C  962  1  0.96825600  0.26905100  0.88890200  1
  C  963  1  0.97779600  0.22736000  0.88663300  1
  C  964  1  0.01943100  0.21635700  0.88888400  1
  C  965  1  0.05122300  0.24555800  0.88798200  1
  C  966  1  0.04103400  0.28755600  0.88622300  1
  C  973  1  0.51769000  0.71935200  0.38862300  1
  C  974  1  0.54857500  0.74904000  0.38837000  1
  C  975  1  0.53866000  0.79064200  0.38593400  1
  C  976  1  0.49696200  0.80133700  0.38805500  1
  C  977  1  0.46542700  0.77186400  0.38735900  1
  C  978  1  0.47591500  0.72994100  0.38594900  1
  C  985  1  0.49879700  0.21895000  0.12841100  1
  C  986  1  0.46784800  0.24856100  0.12856600  1
  C  987  1  0.47771700  0.29014700  0.13108000  1
  C  988  1  0.51938800  0.30096900  0.12900400  1
  C  989  1  0.55096900  0.27153600  0.12973500  1
  C  990  1  0.54056500  0.22957500  0.13111100  1
  C  997  1  0.01778900  0.79832900  0.62789100  1
  C  998  1  0.04895300  0.76893200  0.62812500  1
  C  999  1  0.03938700  0.72724600  0.63040700  1
  C  1000  1  0.99781300  0.71612600  0.62806400  1
  C  1001  1  0.96599500  0.74528800  0.62879100  1
  C  1002  1  0.97613400  0.78729000  0.63044700  1
  C  1009  1  0.79832900  0.62773900  0.01749100  1
  C  1010  1  0.76894500  0.62779400  0.04865600  1
  C  1011  1  0.72728200  0.63028900  0.03909300  1
  C  1012  1  0.71615000  0.62818000  0.99750000  1
  C  1013  1  0.74533600  0.62900900  0.96569100  1
  C  1014  1  0.78735700  0.63055600  0.97584500  1
  C  1021  1  0.21892300  0.12814300  0.49942600  1
  C  1022  1  0.24855400  0.12831800  0.46848300  1
  C  1023  1  0.29017800  0.13072300  0.47831200  1
  C  1024  1  0.30095100  0.12862300  0.51999300  1
  C  1025  1  0.27154500  0.12941000  0.55158600  1
  C  1026  1  0.22960200  0.13086300  0.54117600  1
  C  1033  1  0.71911200  0.38842800  0.51798400  1
  C  1034  1  0.74875800  0.38827000  0.54890300  1
  C  1035  1  0.79035300  0.38580300  0.53904900  1
  C  1036  1  0.80109700  0.38788100  0.49734500  1
  C  1037  1  0.77164000  0.38716100  0.46578200  1
  C  1038  1  0.72968900  0.38576400  0.47620400  1
  C  1045  1  0.29798900  0.88859900  0.99890400  1
  C  1046  1  0.26836000  0.88833700  0.96795800  1
  C  1047  1  0.22672300  0.88611900  0.97778700  1
  C  1048  1  0.21594300  0.88846500  0.01945500  1
  C  1049  1  0.24532900  0.88776300  0.05107200  1
  C  1050  1  0.28725900  0.88613100  0.04064400  1
  C  1057  1  0.12798500  0.49915200  0.21883200  1
  C  1058  1  0.12812200  0.46812800  0.24836000  1
  C  1059  1  0.13059900  0.47789600  0.28997400  1
  C  1060  1  0.12843700  0.51953400  0.30092000  1
  C  1061  1  0.12919100  0.55120600  0.27159000  1
  C  1062  1  0.13071300  0.54085400  0.22961600  1
  C  1069  1  0.62823800  0.01764600  0.79817100  1
  C  1070  1  0.62837700  0.04861700  0.76857100  1
  C  1071  1  0.63077800  0.03878500  0.72695700  1
  C  1072  1  0.62870600  0.99712600  0.71611300  1
  C  1073  1  0.62952600  0.96551800  0.74550400  1
  C  1074  1  0.63098700  0.97590600  0.78745100  1
  C  1081  1  0.88853800  0.99899800  0.29783400  1
  C  1082  1  0.88833100  0.96803700  0.26823700  1
  C  1083  1  0.88590400  0.97779900  0.22661000  1
  C  1084  1  0.88812200  0.01948900  0.21582400  1
  C  1085  1  0.88745300  0.05111000  0.24521600  1
  C  1086  1  0.88597600  0.04076200  0.28718200  1
  C  1093  1  0.38903300  0.51779300  0.71889000  1
  C  1094  1  0.38885100  0.54883000  0.74842000  1
  C  1095  1  0.38656300  0.53913100  0.79008600  1
  C  1096  1  0.38881700  0.49749400  0.80099900  1
  C  1097  1  0.38803900  0.46579100  0.77171200  1
  C  1098  1  0.38641400  0.47609700  0.72975300  1
  N  8  1  0.03765200  0.29729200  0.46037400  1
  N  15  1  0.21649800  0.47670200  0.30131200  1
  N  30  1  0.47957900  0.71953200  0.96075100  1
  N  37  1  0.30070300  0.54062300  0.80125500  1
  N  52  1  0.97873800  0.79710400  0.05610900  1
  N  59  1  0.80008800  0.97675100  0.21495900  1
  N  74  1  0.53735100  0.21946700  0.55652000  1
  N  81  1  0.71659300  0.04026300  0.71542700  1
  N  96  1  0.46028600  0.03712900  0.29752900  1
  N  103  1  0.30170600  0.21655100  0.47686600  1
  N  118  1  0.96099400  0.47904800  0.71947400  1
  N  125  1  0.80199900  0.29999400  0.54028600  1
  N  140  1  0.05568800  0.97885900  0.79735900  1
  N  147  1  0.21510200  0.80029700  0.97660800  1
  N  162  1  0.55657200  0.53772500  0.21976700  1
  N  169  1  0.71625000  0.71618900  0.04055300  1
  N  184  1  0.29740400  0.46091500  0.03776000  1
  N  191  1  0.47640400  0.30167700  0.21693800  1
  N  206  1  0.71944600  0.96051400  0.47957000  1
  N  213  1  0.54004000  0.80223300  0.30014800  1
  N  228  1  0.79727100  0.05675300  0.97947300  1
  N  235  1  0.97643200  0.21602600  0.80075000  1
  N  250  1  0.22000100  0.55620100  0.53813200  1
  N  257  1  0.04072700  0.71622000  0.71631400  1
  N  272  1  0.04244200  0.29973200  0.80035800  1
  N  279  1  0.21901200  0.46024000  0.98050000  1
  N  294  1  0.47482400  0.71701000  0.30019400  1
  N  301  1  0.29849700  0.55638900  0.48047000  1
  N  316  1  0.54140100  0.21633600  0.21680200  1
  N  323  1  0.71793000  0.05703100  0.03574600  1
  N  338  1  0.97486700  0.79961700  0.71629000  1
  N  345  1  0.79825600  0.95997000  0.53601700  1
  N  360  1  0.79959600  0.71641100  0.97470000  1
  N  367  1  0.96054700  0.53674000  0.79789100  1
  N  382  1  0.21683600  0.21663300  0.54201800  1
  N  389  1  0.05618600  0.03677800  0.71875400  1
  N  404  1  0.71645400  0.30006500  0.47518000  1
  N  411  1  0.55669300  0.48089800  0.29879200  1
  N  426  1  0.30014600  0.80041300  0.04203600  1
  N  433  1  0.45965700  0.98153000  0.21838500  1
  N  448  1  0.21649400  0.54198400  0.21699000  1
  N  455  1  0.03594500  0.71837400  0.05661100  1
  N  470  1  0.71676400  0.97509800  0.80021500  1
  N  477  1  0.53678900  0.79827700  0.96052300  1
  N  492  1  0.80025500  0.04201400  0.30028800  1
  N  499  1  0.98145700  0.21817600  0.45983300  1
  N  514  1  0.30059600  0.47489700  0.71719200  1
  N  521  1  0.48086500  0.29822300  0.55692100  1
  N  538  1  0.18370400  0.52153000  0.40079700  1
  N  550  1  0.33376200  0.49578600  0.90103500  1
  N  562  1  0.83315400  0.02124600  0.11487100  1
  N  574  1  0.68326300  0.99530600  0.61560400  1
  N  586  1  0.40136000  0.18340800  0.52166400  1
  N  598  1  0.90206200  0.33322700  0.49570700  1
  N  610  1  0.11554400  0.83336400  0.02166200  1
  N  622  1  0.61637600  0.68336900  0.99572500  1
  N  634  1  0.52121700  0.40142300  0.18378600  1
  N  646  1  0.49559800  0.90230800  0.33333333  1
  N  658  1  0.02151500  0.11651000  0.83361300  1
  N  670  1  0.99574400  0.61654600  0.68325300  1
  N  682  1  0.68300700  0.02183300  0.89886200  1
  N  694  1  0.83411100  0.99504800  0.39903200  1
  N  706  1  0.33417800  0.52180700  0.61871800  1
  N  718  1  0.18286500  0.49534800  0.11823100  1
  N  730  1  0.89836400  0.68288900  0.02114700  1
  N  742  1  0.39897100  0.83419000  0.99511200  1
  N  754  1  0.61805300  0.33388000  0.52230800  1
  N  766  1  0.11814800  0.18302700  0.49526900  1
  N  778  1  0.02119400  0.89851000  0.68291000  1
  N  790  1  0.99583800  0.39867700  0.83392000  1
  N  802  1  0.52232300  0.61876400  0.33403800  1
  N  814  1  0.49480200  0.11760700  0.18302700  1
  N  826  1  0.97800600  0.33730200  0.37343100  1
  N  838  1  0.53951100  0.67916700  0.87398400  1
  N  850  1  0.03872700  0.83745700  0.14280500  1
  N  862  1  0.47742500  0.17917300  0.64332900  1
  N  874  1  0.37350400  0.97747400  0.33747200  1
  N  886  1  0.87425400  0.53889100  0.67883900  1
  N  898  1  0.14234500  0.03905400  0.83769700  1
  N  910  1  0.64330800  0.47760700  0.17957700  1
  N  922  1  0.33794600  0.37418400  0.97799300  1
  N  934  1  0.67910000  0.87372600  0.53921000  1
  N  946  1  0.83716800  0.14348900  0.03948100  1
  N  958  1  0.17955600  0.64309200  0.47795400  1
  N  970  1  0.09031600  0.23243900  0.88502200  1
  N  982  1  0.42622300  0.78461900  0.38432600  1
  N  994  1  0.59014000  0.28437000  0.13288300  1
  N  1006  1  0.92690300  0.73215000  0.63164400  1
  N  1018  1  0.73219800  0.63212700  0.92661800  1
  N  1030  1  0.28438600  0.13250500  0.59075600  1
  N  1042  1  0.78444300  0.38405600  0.42659600  1
  N  1054  1  0.23245800  0.88495300  0.09025500  1
  N  1066  1  0.13224700  0.59034600  0.28454900  1
  N  1078  1  0.63263700  0.92635600  0.73263600  1
  N  1090  1  0.88446300  0.09028000  0.23234100  1
  N  1102  1  0.38511900  0.42665100  0.78469800  1
