# generated using pymatgen
data_H16C29N7
_symmetry_space_group_name_H-M   'P 1'
_cell_length_a   35.04860000
_cell_length_b   50.05510000
_cell_length_c   91.94370000
_cell_angle_alpha   90.00000000
_cell_angle_beta   90.00000000
_cell_angle_gamma   90.07530000
_symmetry_Int_Tables_number   1
_chemical_formula_structural   H16C29N7
_chemical_formula_sum   'H256 C464 N112'
_cell_volume   161302.31852736
_cell_formula_units_Z   16
loop_
 _symmetry_equiv_pos_site_id
 _symmetry_equiv_pos_as_xyz
  1  'x, y, z'
loop_
 _atom_site_type_symbol
 _atom_site_label
 _atom_site_symmetry_multiplicity
 _atom_site_fract_x
 _atom_site_fract_y
 _atom_site_fract_z
 _atom_site_occupancy
  H  49  1  0.72049700  0.75338000  0.78246000  1
  H  50  1  0.75956600  0.75375400  0.80395400  1
  H  51  1  0.62206500  0.74531100  0.80856400  1
  H  52  1  0.66092000  0.74583600  0.82997000  1
  H  53  1  0.73262100  0.69700400  0.82089900  1
  H  54  1  0.76037100  0.66147800  0.83748400  1
  H  55  1  0.76994800  0.73352600  0.85798600  1
  H  56  1  0.79083700  0.76645700  0.87407200  1
  H  57  1  0.72212300  0.80430900  0.82253700  1
  H  58  1  0.74999900  0.84001400  0.83917100  1
  H  59  1  0.84722900  0.84668000  0.85334300  1
  H  60  1  0.85749300  0.89406100  0.85372400  1
  H  61  1  0.74143300  0.85720500  0.87457900  1
  H  62  1  0.75157000  0.90451900  0.87491700  1
  H  63  1  0.82505300  0.83854800  0.89025900  1
  H  64  1  0.84073400  0.80298800  0.90895100  1
  H  65  1  0.81257600  0.66011400  0.89251700  1
  H  66  1  0.82834000  0.69577700  0.91128300  1
  H  67  1  0.77383700  0.75979800  0.92268000  1
  H  68  1  0.78722100  0.76004600  0.94818900  1
  H  69  1  0.88907100  0.74118500  0.91391300  1
  H  70  1  0.90235300  0.74109500  0.93961700  1
  H  71  1  0.85309900  0.65514500  0.85840900  1
  H  72  1  0.86474300  0.60795300  0.85854900  1
  H  73  1  0.74962700  0.59403300  0.86984800  1
  H  74  1  0.73794200  0.64128400  0.86973300  1
  H  127  1  0.72060100  0.74692400  0.21730600  1
  H  128  1  0.75969000  0.74685400  0.19581600  1
  H  129  1  0.62199700  0.75322000  0.19116400  1
  H  130  1  0.66087100  0.75298000  0.16976600  1
  H  131  1  0.73108600  0.80296600  0.17867100  1
  H  132  1  0.75864400  0.83868000  0.16213300  1
  H  133  1  0.77045900  0.76659200  0.14187400  1
  H  134  1  0.79344700  0.73400100  0.12613000  1
  H  135  1  0.72392800  0.69553700  0.17749800  1
  H  136  1  0.75193800  0.66001400  0.16082300  1
  H  137  1  0.84872100  0.65380800  0.14516800  1
  H  138  1  0.85898400  0.60645000  0.14480400  1
  H  139  1  0.74025000  0.64272800  0.12604900  1
  H  140  1  0.75040400  0.59541800  0.12573000  1
  H  141  1  0.82063200  0.66162000  0.10854000  1
  H  142  1  0.83577600  0.69734400  0.08987800  1
  H  143  1  0.81445000  0.84037200  0.10759800  1
  H  144  1  0.83006600  0.80479500  0.08875500  1
  H  145  1  0.77050500  0.74594700  0.07728300  1
  H  146  1  0.78258000  0.74465900  0.05166500  1
  H  147  1  0.88853500  0.75463400  0.08529800  1
  H  148  1  0.90064000  0.75337600  0.05954600  1
  H  149  1  0.85247900  0.84517400  0.14200400  1
  H  150  1  0.86428600  0.89237300  0.14190800  1
  H  151  1  0.74992700  0.90621400  0.12958600  1
  H  152  1  0.73808400  0.85895900  0.12965400  1
  H  205  1  0.94790500  0.25048400  0.21726800  1
  H  206  1  0.90869000  0.25080000  0.19581500  1
  H  207  1  0.04661300  0.24904500  0.19096500  1
  H  208  1  0.00760100  0.24956700  0.16961100  1
  H  209  1  0.94222700  0.19683400  0.17753400  1
  H  210  1  0.91526400  0.16116200  0.16083100  1
  H  211  1  0.89514400  0.23386000  0.14227400  1
  H  212  1  0.87244700  0.26638500  0.12652100  1
  H  213  1  0.94074200  0.30438600  0.17834800  1
  H  214  1  0.91213600  0.33999600  0.16189100  1
  H  215  1  0.81460800  0.34533100  0.14246900  1
  H  216  1  0.80295200  0.39252800  0.14197100  1
  H  217  1  0.92863500  0.35873700  0.12944800  1
  H  218  1  0.91696200  0.40597000  0.12900100  1
  H  219  1  0.84958800  0.33911200  0.10846900  1
  H  220  1  0.83432900  0.30355100  0.08973800  1
  H  221  1  0.85124500  0.16025400  0.10768000  1
  H  222  1  0.83500100  0.19596800  0.08903300  1
  H  223  1  0.89567100  0.25644300  0.07706000  1
  H  224  1  0.88264300  0.25654500  0.05153100  1
  H  225  1  0.77858800  0.24439300  0.08576700  1
  H  226  1  0.76562100  0.24409900  0.06003900  1
  H  227  1  0.82185000  0.15370700  0.14570800  1
  H  228  1  0.81159100  0.10633500  0.14572000  1
  H  229  1  0.91833000  0.09518800  0.12524200  1
  H  230  1  0.92853000  0.14251900  0.12522900  1
  H  283  1  0.94792000  0.25009200  0.78244600  1
  H  284  1  0.90864600  0.25007000  0.80388600  1
  H  285  1  0.04658400  0.24982200  0.80879000  1
  H  286  1  0.00750700  0.24958500  0.83012500  1
  H  287  1  0.94386800  0.30332400  0.82237700  1
  H  288  1  0.91702800  0.33913800  0.83899100  1
  H  289  1  0.89410100  0.26650300  0.85719100  1
  H  290  1  0.87072800  0.23409500  0.87298900  1
  H  291  1  0.93878600  0.19584800  0.82113500  1
  H  292  1  0.91023800  0.16034300  0.83770400  1
  H  293  1  0.81401400  0.15496800  0.85854000  1
  H  294  1  0.80244700  0.10774300  0.85906800  1
  H  295  1  0.92941800  0.14167500  0.86962600  1
  H  296  1  0.91783000  0.09440800  0.87010500  1
  H  297  1  0.85335700  0.16141700  0.89201100  1
  H  298  1  0.83850100  0.19715400  0.91067700  1
  H  299  1  0.84969900  0.34029100  0.89156800  1
  H  300  1  0.83372500  0.30466500  0.91034700  1
  H  301  1  0.89805200  0.24900000  0.92246100  1
  H  302  1  0.88605700  0.24771400  0.94808700  1
  H  303  1  0.77950000  0.25194500  0.91438200  1
  H  304  1  0.76747500  0.25072800  0.94014000  1
  H  305  1  0.82257300  0.34668100  0.85339100  1
  H  306  1  0.81229900  0.39403300  0.85339400  1
  H  307  1  0.91800900  0.40525400  0.87465200  1
  H  308  1  0.92821500  0.35795300  0.87465400  1
  H  361  1  0.21888500  0.25881700  0.28280300  1
  H  362  1  0.25793700  0.25874300  0.30427700  1
  H  363  1  0.12211900  0.24114200  0.30843100  1
  H  364  1  0.16101700  0.24099400  0.32979300  1
  H  365  1  0.23378700  0.19701900  0.32059100  1
  H  366  1  0.26172300  0.16142600  0.33709600  1
  H  367  1  0.26836200  0.23306100  0.35820200  1
  H  368  1  0.29003200  0.26603700  0.37421600  1
  H  369  1  0.21985500  0.30415800  0.32310500  1
  H  370  1  0.24809300  0.33973900  0.33971300  1
  H  371  1  0.34646200  0.34625800  0.35310800  1
  H  372  1  0.35689300  0.39362000  0.35352400  1
  H  373  1  0.24175600  0.35677600  0.37511100  1
  H  374  1  0.25205600  0.40407000  0.37548400  1
  H  375  1  0.32604500  0.33789100  0.39015600  1
  H  376  1  0.34177400  0.30224700  0.40880200  1
  H  377  1  0.31151400  0.15957200  0.39248900  1
  H  378  1  0.32735400  0.19515300  0.41130200  1
  H  379  1  0.27390000  0.25974100  0.42265300  1
  H  380  1  0.28729300  0.26000500  0.44816100  1
  H  381  1  0.38877500  0.24004000  0.41391300  1
  H  382  1  0.40206200  0.23997500  0.43961700  1
  H  383  1  0.35320400  0.15493900  0.35859600  1
  H  384  1  0.36502800  0.10777200  0.35863700  1
  H  385  1  0.24954000  0.09350600  0.36923200  1
  H  386  1  0.23767300  0.14073300  0.36921100  1
  H  439  1  0.21926700  0.24118100  0.71701900  1
  H  440  1  0.25828200  0.24136700  0.69553200  1
  H  441  1  0.12199100  0.25675000  0.69130500  1
  H  442  1  0.16084300  0.25702000  0.66993000  1
  H  443  1  0.23242300  0.30229600  0.67896100  1
  H  444  1  0.26018800  0.33801200  0.66247300  1
  H  445  1  0.26881000  0.26624300  0.64162800  1
  H  446  1  0.29255100  0.23358100  0.62600900  1
  H  447  1  0.22160400  0.19498600  0.67699900  1
  H  448  1  0.24991900  0.15952500  0.66037700  1
  H  449  1  0.34792300  0.15340000  0.64547900  1
  H  450  1  0.35833700  0.10606000  0.64509100  1
  H  451  1  0.24039500  0.14230500  0.62560900  1
  H  452  1  0.25069500  0.09501500  0.62526500  1
  H  453  1  0.32157400  0.16132300  0.60869200  1
  H  454  1  0.33679000  0.19706800  0.59004900  1
  H  455  1  0.31343400  0.34000500  0.60753500  1
  H  456  1  0.32908100  0.30445000  0.58867700  1
  H  457  1  0.27039900  0.24516000  0.57730600  1
  H  458  1  0.28245400  0.24385400  0.55168800  1
  H  459  1  0.38831800  0.25464800  0.58528900  1
  H  460  1  0.40040700  0.25336200  0.55953400  1
  H  461  1  0.35270200  0.34454600  0.64172200  1
  H  462  1  0.36469400  0.39172100  0.64171500  1
  H  463  1  0.24990800  0.40591800  0.63012100  1
  H  464  1  0.23787600  0.35868900  0.63010500  1
  H  517  1  0.44869700  0.75588300  0.71705900  1
  H  518  1  0.40980800  0.75575700  0.69553700  1
  H  519  1  0.54699500  0.74502000  0.69118800  1
  H  520  1  0.50826900  0.74483000  0.66976900  1
  H  521  1  0.44080800  0.69675700  0.67796200  1
  H  522  1  0.41372600  0.66103100  0.66132200  1
  H  523  1  0.39769100  0.73346700  0.64188000  1
  H  524  1  0.37366100  0.76597700  0.62636900  1
  H  525  1  0.44354400  0.80433400  0.67776800  1
  H  526  1  0.41460700  0.83982700  0.66134600  1
  H  527  1  0.31555900  0.84493300  0.64271500  1
  H  528  1  0.30375300  0.89211200  0.64220800  1
  H  529  1  0.42892200  0.85840600  0.62890000  1
  H  530  1  0.41710100  0.90562500  0.62845400  1
  H  531  1  0.34875900  0.83855600  0.60853200  1
  H  532  1  0.33333333  0.80292100  0.58985700  1
  H  533  1  0.35301000  0.65972300  0.60757900  1
  H  534  1  0.33657300  0.69537300  0.58891600  1
  H  535  1  0.39589600  0.75650200  0.57704200  1
  H  536  1  0.38280600  0.75660400  0.55151800  1
  H  537  1  0.27908100  0.74325700  0.58577000  1
  H  538  1  0.26606000  0.74297300  0.56004600  1
  H  539  1  0.32191900  0.65351900  0.64540500  1
  H  540  1  0.31153600  0.60616000  0.64550800  1
  H  541  1  0.41920400  0.59465000  0.62581800  1
  H  542  1  0.42953200  0.64196500  0.62571700  1
  H  595  1  0.44839200  0.74412200  0.28261700  1
  H  596  1  0.40951500  0.74444200  0.30414400  1
  H  597  1  0.54702600  0.75314100  0.30853000  1
  H  598  1  0.50832000  0.75352100  0.32995700  1
  H  599  1  0.44233800  0.80266600  0.32192900  1
  H  600  1  0.41538600  0.83850500  0.33849300  1
  H  601  1  0.39679800  0.76606400  0.35763200  1
  H  602  1  0.37180700  0.73369100  0.37310000  1
  H  603  1  0.44157600  0.69511600  0.32166900  1
  H  604  1  0.41271000  0.65970800  0.33819100  1
  H  605  1  0.31494900  0.65452800  0.35829000  1
  H  606  1  0.30325100  0.60732100  0.35883600  1
  H  607  1  0.42981800  0.64118000  0.37013200  1
  H  608  1  0.41810300  0.59392500  0.37062000  1
  H  609  1  0.35275300  0.66108100  0.39197200  1
  H  610  1  0.33778300  0.69686600  0.41059200  1
  H  611  1  0.35140100  0.83998900  0.39170100  1
  H  612  1  0.33521800  0.80440400  0.41048100  1
  H  613  1  0.39843600  0.74843700  0.42248200  1
  H  614  1  0.38640700  0.74713900  0.44810500  1
  H  615  1  0.27991700  0.75183800  0.41438800  1
  H  616  1  0.26785400  0.75059400  0.44014400  1
  H  617  1  0.32261000  0.84602200  0.35370800  1
  H  618  1  0.31218700  0.89336000  0.35360500  1
  H  619  1  0.41883600  0.90500200  0.37409800  1
  H  620  1  0.42919300  0.85771900  0.37420300  1
  H  631  1  0.79156100  0.73024100  0.99467200  1
  H  635  1  0.90018400  0.75246700  0.03301200  1
  H  637  1  0.80868100  0.73191300  0.96875700  1
  H  644  1  0.87632100  0.22894400  0.00500000  1
  H  648  1  0.76808000  0.25170500  0.96668800  1
  H  650  1  0.85884800  0.23012600  0.03092400  1
  H  657  1  0.29119900  0.23009500  0.49467900  1
  H  661  1  0.39996200  0.25212900  0.53300400  1
  H  663  1  0.30826700  0.23174300  0.46876400  1
  H  670  1  0.37693700  0.72897100  0.50499100  1
  H  674  1  0.26840800  0.75120000  0.46669500  1
  H  676  1  0.35943000  0.72992200  0.53091300  1
  H  683  1  0.89646600  0.00067400  0.85671500  1
  H  687  1  0.77517200  0.94823600  0.87618200  1
  H  689  1  0.89738900  0.05027000  0.86192600  1
  H  696  1  0.89653500  0.49975000  0.14279500  1
  H  700  1  0.77432800  0.55178600  0.12396500  1
  H  702  1  0.89736300  0.45012300  0.13755000  1
  H  709  1  0.77163300  0.00007400  0.14305000  1
  H  713  1  0.89465400  0.05137400  0.12425400  1
  H  715  1  0.77020900  0.95038500  0.13789600  1
  H  722  1  0.77165000  0.50019400  0.85660800  1
  H  726  1  0.89421400  0.44893800  0.87564400  1
  H  728  1  0.77022000  0.54985600  0.86179300  1
  H  735  1  0.39683200  0.50015700  0.35698100  1
  H  739  1  0.27531800  0.44786900  0.37636600  1
  H  741  1  0.39785900  0.54976500  0.36223700  1
  H  748  1  0.39681800  0.99941800  0.64256200  1
  H  752  1  0.27447900  0.05134900  0.62378400  1
  H  754  1  0.39774500  0.94979000  0.63724400  1
  H  761  1  0.27212300  0.49965100  0.64342400  1
  H  765  1  0.39536000  0.55088600  0.62473700  1
  H  767  1  0.27066500  0.44998000  0.63832900  1
  H  774  1  0.27206300  0.99977000  0.35618900  1
  H  778  1  0.39481200  0.94862600  0.37518000  1
  H  780  1  0.27058500  0.04943000  0.36129500  1
  H  787  1  0.62257600  0.72659000  0.73293800  1
  H  791  1  0.59630600  0.76250200  0.78628200  1
  H  793  1  0.57163800  0.73484800  0.71453000  1
  H  800  1  0.62256400  0.77244500  0.26682100  1
  H  804  1  0.59658000  0.73614500  0.21351100  1
  H  806  1  0.57162600  0.76403100  0.28522400  1
  H  813  1  0.04591700  0.22602600  0.26656300  1
  H  817  1  0.07162700  0.26433500  0.21363500  1
  H  819  1  0.09698300  0.23369900  0.28499900  1
  H  826  1  0.04618500  0.27311600  0.73314100  1
  H  830  1  0.07127600  0.23467400  0.78608100  1
  H  832  1  0.09720600  0.26524200  0.71473100  1
  C  1  1  0.74414200  0.70070200  0.83091200  1
  C  2  1  0.75965800  0.68141400  0.83986900  1
  C  3  1  0.77254300  0.69387200  0.85256000  1
  C  5  1  0.74813200  0.72545900  0.83776400  1
  C  6  1  0.73642500  0.75035000  0.83180300  1
  C  7  1  0.74553200  0.77562900  0.83787800  1
  C  9  1  0.76984500  0.80701500  0.85254500  1
  C  10  1  0.75215700  0.81989800  0.84088300  1
  C  11  1  0.73656800  0.80054400  0.83197000  1
  C  12  1  0.78860900  0.81953300  0.86440200  1
  C  13  1  0.80309600  0.80612400  0.87687400  1
  C  15  1  0.81713200  0.77455200  0.89349500  1
  C  16  1  0.82824300  0.79929100  0.89910700  1
  C  17  1  0.82014800  0.81858600  0.88884100  1
  C  18  1  0.82109100  0.74973300  0.90084800  1
  C  19  1  0.81448900  0.72446700  0.89432900  1
  C  21  1  0.80037400  0.69310400  0.87784600  1
  C  22  1  0.81160200  0.68022300  0.89062900  1
  C  23  1  0.81950000  0.69957100  0.90089700  1
  C  24  1  0.78863400  0.68051900  0.86475200  1
  C  25  1  0.79427600  0.65244700  0.86379300  1
  C  26  1  0.76448200  0.63437400  0.86702400  1
  C  27  1  0.77133300  0.60667300  0.86703400  1
  C  28  1  0.80809400  0.59659400  0.86384700  1
  C  29  1  0.83774200  0.61473300  0.86064600  1
  C  30  1  0.83092700  0.64239200  0.86054300  1
  C  31  1  0.83018900  0.75028700  0.91595200  1
  C  32  1  0.80104600  0.75584000  0.92611300  1
  C  33  1  0.80886600  0.75579500  0.94110000  1
  C  34  1  0.84588900  0.74987800  0.94632000  1
  C  35  1  0.87523200  0.74511800  0.93612900  1
  C  36  1  0.86747400  0.74514100  0.92108400  1
  C  37  1  0.79321300  0.84772300  0.86379000  1
  C  38  1  0.82668800  0.85878200  0.85772000  1
  C  39  1  0.83270100  0.88655200  0.85798300  1
  C  40  1  0.80559500  0.90378600  0.86434300  1
  C  41  1  0.77181100  0.89264300  0.87023200  1
  C  42  1  0.76570800  0.86486500  0.86999000  1
  C  43  1  0.71379800  0.74998800  0.81892800  1
  C  44  1  0.73058900  0.75208500  0.80500900  1
  C  45  1  0.67375000  0.74755800  0.82000800  1
  C  46  1  0.65091300  0.74745500  0.80742400  1
  C  47  1  0.66755000  0.74988300  0.79345600  1
  C  48  1  0.70765500  0.75184800  0.79242600  1
  C  79  1  0.74292200  0.79932600  0.16870700  1
  C  80  1  0.75839100  0.81872300  0.15978700  1
  C  81  1  0.77187600  0.80633100  0.14717600  1
  C  83  1  0.74762500  0.77456400  0.16193400  1
  C  84  1  0.73646500  0.74956700  0.16794900  1
  C  85  1  0.74606800  0.72434800  0.16193100  1
  C  87  1  0.77049700  0.69310300  0.14722300  1
  C  88  1  0.75371700  0.68013600  0.15906100  1
  C  89  1  0.73805800  0.69939000  0.16800200  1
  C  90  1  0.78865000  0.68066300  0.13521100  1
  C  91  1  0.80220400  0.69412100  0.12259500  1
  C  93  1  0.81577600  0.72587600  0.10599400  1
  C  94  1  0.82483100  0.70105400  0.09998200  1
  C  95  1  0.81711800  0.68164400  0.11023500  1
  C  96  1  0.82026600  0.75082900  0.09880300  1
  C  97  1  0.81434100  0.77605000  0.10544400  1
  C  99  1  0.80040200  0.80730200  0.12199500  1
  C  100  1  0.81252300  0.82025000  0.10934100  1
  C  101  1  0.82045400  0.80097600  0.09904100  1
  C  102  1  0.78835100  0.81977200  0.13507500  1
  C  103  1  0.79400200  0.84784200  0.13611100  1
  C  104  1  0.76446100  0.86588900  0.13260300  1
  C  105  1  0.77141800  0.89358900  0.13260300  1
  C  106  1  0.80800600  0.90369200  0.13610400  1
  C  107  1  0.83739400  0.88557400  0.13958900  1
  C  108  1  0.83047500  0.85791600  0.13968000  1
  C  109  1  0.82843200  0.75047900  0.08363000  1
  C  110  1  0.79804400  0.74760800  0.07366700  1
  C  111  1  0.80516300  0.74685300  0.05863600  1
  C  112  1  0.84267500  0.74898000  0.05320300  1
  C  113  1  0.87315400  0.75190100  0.06317000  1
  C  114  1  0.86609100  0.75263300  0.07826000  1
  C  115  1  0.79339900  0.65248900  0.13576900  1
  C  116  1  0.82766600  0.64159800  0.14122400  1
  C  117  1  0.83366600  0.61384000  0.14097900  1
  C  118  1  0.80577700  0.59645200  0.13522600  1
  C  119  1  0.77124000  0.60742400  0.12994300  1
  C  120  1  0.76512700  0.63519200  0.13018400  1
  C  121  1  0.71384000  0.74974400  0.18082600  1
  C  122  1  0.73067600  0.74807400  0.19475300  1
  C  123  1  0.67373600  0.75156500  0.17973400  1
  C  124  1  0.65089600  0.75149800  0.19231600  1
  C  125  1  0.66757900  0.74948200  0.20629300  1
  C  126  1  0.70772900  0.74812000  0.20733300  1
  C  157  1  0.92889400  0.20063500  0.16786700  1
  C  158  1  0.91371900  0.18123300  0.15887900  1
  C  159  1  0.89784700  0.19385000  0.14675000  1
  C  161  1  0.92173900  0.22557900  0.16162100  1
  C  162  1  0.93181400  0.25058500  0.16790500  1
  C  163  1  0.92124200  0.27582400  0.16214900  1
  C  165  1  0.89635700  0.30716800  0.14760500  1
  C  166  1  0.91164400  0.31995000  0.15979200  1
  C  167  1  0.92763400  0.30066400  0.16862600  1
  C  168  1  0.87854200  0.31971800  0.13555100  1
  C  169  1  0.86593300  0.30639300  0.12274800  1
  C  171  1  0.85245300  0.27477300  0.10604800  1
  C  172  1  0.84464600  0.29971100  0.09992200  1
  C  173  1  0.85239800  0.31904400  0.11021200  1
  C  174  1  0.84713600  0.24986400  0.09888900  1
  C  175  1  0.85268700  0.22457500  0.10551600  1
  C  177  1  0.86745300  0.19314300  0.12187600  1
  C  178  1  0.85381400  0.18034500  0.10940400  1
  C  179  1  0.84541200  0.19971000  0.09921400  1
  C  180  1  0.88076000  0.18052700  0.13473600  1
  C  181  1  0.87628600  0.15234400  0.13559200  1
  C  182  1  0.90408700  0.13500100  0.12975600  1
  C  183  1  0.89794800  0.10721600  0.12971900  1
  C  184  1  0.86389600  0.09627100  0.13549200  1
  C  185  1  0.83656300  0.11370200  0.14154000  1
  C  186  1  0.84256800  0.14147300  0.14156700  1
  C  187  1  0.83834300  0.25021300  0.08375700  1
  C  188  1  0.86814800  0.25378500  0.07360600  1
  C  189  1  0.86050500  0.25365400  0.05860600  1
  C  190  1  0.82297700  0.24957800  0.05336100  1
  C  191  1  0.79308400  0.24675100  0.06354200  1
  C  192  1  0.80064900  0.24689800  0.07860200  1
  C  193  1  0.87290100  0.34781400  0.13628400  1
  C  194  1  0.83656300  0.35799700  0.13990500  1
  C  195  1  0.82973600  0.38565200  0.13958500  1
  C  196  1  0.85909100  0.40365900  0.13581700  1
  C  197  1  0.89552300  0.39344400  0.13223700  1
  C  198  1  0.90235300  0.36575100  0.13243100  1
  C  199  1  0.95456200  0.25042000  0.18075300  1
  C  200  1  0.93774700  0.25059100  0.19471300  1
  C  201  1  0.99473700  0.24993600  0.17960700  1
  C  202  1  0.01764700  0.24980400  0.19217100  1
  C  203  1  0.00096500  0.25031800  0.20619100  1
  C  204  1  0.96077300  0.25039400  0.20727200  1
  C  235  1  0.93027000  0.29959200  0.83200100  1
  C  236  1  0.91508700  0.31907200  0.84091900  1
  C  237  1  0.89839400  0.30652300  0.85291700  1
  C  239  1  0.92220000  0.27467200  0.83813100  1
  C  240  1  0.93171000  0.24961000  0.83180400  1
  C  241  1  0.92071800  0.22443000  0.83754500  1
  C  243  1  0.89592000  0.19317300  0.85219000  1
  C  244  1  0.91025800  0.18037300  0.83985300  1
  C  245  1  0.92623800  0.19959600  0.83095800  1
  C  246  1  0.87868100  0.18066500  0.86438700  1
  C  247  1  0.86690800  0.19407800  0.87726500  1
  C  249  1  0.85373500  0.22586200  0.89388700  1
  C  250  1  0.84760000  0.20093600  0.90031800  1
  C  251  1  0.85505100  0.18148800  0.89006800  1
  C  252  1  0.84795800  0.25085400  0.90090100  1
  C  253  1  0.85282800  0.27606600  0.89412100  1
  C  255  1  0.86725300  0.30737300  0.87764600  1
  C  256  1  0.85281300  0.32020800  0.88997100  1
  C  257  1  0.84461400  0.30092100  0.90024000  1
  C  258  1  0.88087100  0.31991400  0.86480400  1
  C  259  1  0.87652100  0.34808900  0.86388100  1
  C  260  1  0.90402600  0.36545100  0.86994300  1
  C  261  1  0.89788000  0.39322300  0.86998700  1
  C  262  1  0.86410600  0.40413900  0.86399700  1
  C  263  1  0.83709500  0.38669200  0.85771400  1
  C  264  1  0.84311900  0.35893200  0.85767200  1
  C  265  1  0.83985200  0.25070200  0.91608200  1
  C  266  1  0.87041700  0.24952200  0.92606500  1
  C  267  1  0.86334400  0.24876400  0.94110000  1
  C  268  1  0.82570400  0.24926900  0.94651800  1
  C  269  1  0.79505000  0.25055500  0.93653100  1
  C  270  1  0.80206600  0.25122900  0.92143500  1
  C  271  1  0.87294900  0.15255300  0.86376500  1
  C  272  1  0.83623400  0.14232600  0.86072200  1
  C  273  1  0.82945800  0.11465500  0.86106500  1
  C  274  1  0.85922100  0.09666800  0.86427900  1
  C  275  1  0.89602100  0.10692400  0.86729300  1
  C  276  1  0.90281700  0.13463600  0.86706800  1
  C  277  1  0.95448200  0.24963100  0.81896200  1
  C  278  1  0.93770100  0.24986900  0.80499600  1
  C  279  1  0.99466000  0.24952800  0.82012400  1
  C  280  1  0.01760500  0.24948400  0.80756800  1
  C  281  1  0.00094500  0.24939300  0.79354100  1
  C  282  1  0.96076200  0.24988800  0.79244700  1
  C  313  1  0.24475800  0.20060100  0.33070600  1
  C  314  1  0.26038200  0.18128700  0.33962000  1
  C  315  1  0.27247300  0.19359600  0.35246500  1
  C  317  1  0.24782200  0.22522900  0.33776000  1
  C  318  1  0.23568200  0.25010200  0.33190100  1
  C  319  1  0.24460100  0.27534500  0.33806800  1
  C  321  1  0.26913500  0.30664500  0.35274100  1
  C  322  1  0.25069500  0.31961000  0.34128100  1
  C  323  1  0.23492600  0.30030600  0.33238200  1
  C  324  1  0.28832000  0.31910100  0.36452000  1
  C  325  1  0.30320800  0.30559700  0.37689200  1
  C  327  1  0.31728800  0.27396300  0.39346400  1
  C  328  1  0.32898100  0.29862300  0.39900600  1
  C  329  1  0.32085800  0.31795600  0.38876400  1
  C  330  1  0.32095200  0.24914400  0.40083600  1
  C  331  1  0.31405900  0.22391300  0.39432100  1
  C  333  1  0.29987000  0.19263700  0.37780500  1
  C  334  1  0.31074300  0.17968900  0.39061200  1
  C  335  1  0.31867500  0.19899300  0.40090100  1
  C  336  1  0.28838000  0.18013600  0.36465800  1
  C  337  1  0.29418900  0.15208000  0.36363700  1
  C  338  1  0.26434800  0.13390700  0.36663100  1
  C  339  1  0.27130900  0.10621800  0.36658800  1
  C  340  1  0.30823000  0.09623700  0.36357800  1
  C  341  1  0.33792000  0.11447600  0.36060700  1
  C  342  1  0.33100100  0.14212300  0.36056200  1
  C  343  1  0.33006800  0.24968400  0.41593900  1
  C  344  1  0.30103400  0.25555600  0.42609000  1
  C  345  1  0.30885400  0.25552200  0.44107800  1
  C  346  1  0.34576900  0.24930700  0.44630700  1
  C  347  1  0.37501700  0.24422100  0.43612300  1
  C  348  1  0.36725300  0.24422600  0.42107900  1
  C  349  1  0.29295600  0.34729600  0.36393000  1
  C  350  1  0.32616700  0.35835600  0.35765100  1
  C  351  1  0.33228200  0.38611900  0.35793700  1
  C  352  1  0.30553900  0.40335200  0.36451700  1
  C  353  1  0.27202000  0.39220500  0.37062100  1
  C  354  1  0.26582000  0.36443600  0.37036300  1
  C  355  1  0.21311300  0.24970800  0.31900000  1
  C  356  1  0.22937300  0.25482900  0.30522100  1
  C  357  1  0.17356200  0.24452500  0.31992000  1
  C  358  1  0.15072800  0.24452000  0.30733100  1
  C  359  1  0.16689200  0.24960700  0.29349300  1
  C  360  1  0.20642500  0.25487400  0.29264500  1
  C  391  1  0.24366200  0.29873200  0.66889000  1
  C  392  1  0.25924900  0.31811700  0.65999400  1
  C  393  1  0.27188000  0.30582400  0.64722700  1
  C  395  1  0.24736800  0.27406500  0.66192600  1
  C  396  1  0.23574200  0.24910300  0.66785900  1
  C  397  1  0.24510600  0.22389000  0.66177100  1
  C  399  1  0.26971400  0.19267500  0.64708100  1
  C  400  1  0.25217000  0.17965900  0.65873900  1
  C  401  1  0.23634700  0.19889500  0.66764900  1
  C  402  1  0.28828000  0.18025800  0.63515400  1
  C  403  1  0.30224900  0.19376000  0.62261800  1
  C  405  1  0.31589000  0.22552700  0.60603400  1
  C  406  1  0.32552000  0.20074500  0.60010300  1
  C  407  1  0.31777300  0.18133400  0.61035300  1
  C  408  1  0.32010400  0.25046600  0.59881000  1
  C  409  1  0.31391900  0.27567600  0.60542500  1
  C  411  1  0.29995200  0.30690100  0.62198400  1
  C  412  1  0.31171000  0.31987700  0.60929200  1
  C  413  1  0.31965100  0.30061400  0.59898500  1
  C  414  1  0.28816600  0.31932800  0.63510900  1
  C  415  1  0.29400600  0.34738300  0.63618300  1
  C  416  1  0.26440500  0.36553400  0.63291500  1
  C  417  1  0.27147500  0.39322000  0.63296100  1
  C  418  1  0.30824100  0.40322200  0.63627700  1
  C  419  1  0.33768600  0.38500200  0.63952700  1
  C  420  1  0.33066100  0.35735400  0.63956500  1
  C  421  1  0.32827000  0.25008800  0.58363700  1
  C  422  1  0.29791000  0.24697700  0.57368400  1
  C  423  1  0.30501700  0.24621200  0.55865200  1
  C  424  1  0.34249300  0.24855600  0.55320800  1
  C  425  1  0.37294800  0.25171300  0.56316500  1
  C  426  1  0.36589500  0.25246600  0.57825700  1
  C  427  1  0.29303900  0.15207700  0.63571600  1
  C  428  1  0.32707800  0.14118900  0.64137900  1
  C  429  1  0.33316900  0.11343900  0.64111600  1
  C  430  1  0.30560200  0.09604400  0.63514600  1
  C  431  1  0.27128900  0.10701500  0.62965300  1
  C  432  1  0.26508900  0.13477400  0.62990500  1
  C  433  1  0.21319000  0.24937400  0.68076600  1
  C  434  1  0.22961300  0.24481700  0.69457300  1
  C  435  1  0.17350000  0.25390500  0.67982200  1
  C  436  1  0.15069400  0.25385600  0.69241700  1
  C  437  1  0.16702600  0.24937400  0.70628500  1
  C  438  1  0.20668800  0.24470000  0.70715500  1
  C  469  1  0.42825400  0.70047700  0.66813500  1
  C  470  1  0.41301300  0.68105900  0.65917500  1
  C  471  1  0.39824200  0.69356900  0.64681300  1
  C  473  1  0.42232200  0.72534200  0.66161400  1
  C  474  1  0.43288800  0.75035300  0.66777800  1
  C  475  1  0.42259900  0.77558300  0.66192700  1
  C  477  1  0.39750300  0.80685900  0.64738300  1
  C  478  1  0.41362600  0.81974500  0.65937700  1
  C  479  1  0.42978600  0.80050200  0.66819200  1
  C  480  1  0.37921400  0.81934300  0.63541100  1
  C  481  1  0.36611200  0.80593600  0.62270600  1
  C  483  1  0.35253900  0.77425200  0.60605300  1
  C  484  1  0.34406800  0.79913900  0.59999500  1
  C  485  1  0.35187500  0.81850700  0.61025800  1
  C  486  1  0.34755200  0.74932900  0.59887400  1
  C  487  1  0.35347800  0.72406000  0.60547600  1
  C  489  1  0.36841700  0.69269300  0.62184600  1
  C  490  1  0.35525000  0.67982700  0.60932300  1
  C  491  1  0.34674200  0.69916200  0.59912700  1
  C  492  1  0.38145600  0.68015300  0.63476600  1
  C  493  1  0.37682600  0.65198100  0.63567400  1
  C  494  1  0.40485000  0.63453200  0.63009300  1
  C  495  1  0.39863300  0.60675300  0.63010400  1
  C  496  1  0.36428300  0.59590800  0.63567600  1
  C  497  1  0.33671900  0.61344700  0.64147300  1
  C  498  1  0.34279300  0.64121400  0.64144500  1
  C  499  1  0.33871000  0.74967500  0.58374900  1
  C  500  1  0.36842000  0.75359400  0.57359500  1
  C  501  1  0.36074500  0.75346500  0.55859700  1
  C  502  1  0.32328900  0.74904700  0.55336100  1
  C  503  1  0.29347600  0.74587500  0.56354400  1
  C  504  1  0.30107400  0.74601600  0.57860100  1
  C  505  1  0.37355000  0.84744600  0.63613500  1
  C  506  1  0.33736000  0.85761100  0.63998300  1
  C  507  1  0.33044200  0.88525600  0.63965700  1
  C  508  1  0.35956700  0.90328400  0.63566400  1
  C  509  1  0.39585400  0.89309000  0.63185600  1
  C  510  1  0.40276400  0.86540300  0.63205000  1
  C  511  1  0.45544500  0.75013800  0.68068300  1
  C  512  1  0.43868300  0.75331300  0.69454600  1
  C  513  1  0.49539800  0.74695200  0.67969800  1
  C  514  1  0.51812700  0.74694700  0.69231300  1
  C  515  1  0.50145300  0.75001400  0.70623700  1
  C  516  1  0.46152800  0.75339400  0.70714800  1
  C  547  1  0.42957200  0.79899600  0.33172300  1
  C  548  1  0.41431600  0.81847600  0.34062200  1
  C  549  1  0.39878100  0.80600900  0.35286700  1
  C  551  1  0.42278200  0.77413100  0.33813900  1
  C  552  1  0.43278200  0.74906400  0.33192500  1
  C  553  1  0.42208600  0.72388000  0.33775300  1
  C  555  1  0.39707800  0.69266900  0.35238800  1
  C  556  1  0.41224200  0.67977300  0.34022600  1
  C  557  1  0.42839400  0.69896500  0.33135600  1
  C  558  1  0.37938200  0.68021100  0.36450500  1
  C  559  1  0.36713100  0.69368500  0.37730200  1
  C  561  1  0.35385200  0.72551700  0.39388600  1
  C  562  1  0.34715500  0.70061700  0.40026500  1
  C  563  1  0.35465900  0.68114500  0.39003400  1
  C  564  1  0.34838500  0.75052300  0.40092000  1
  C  565  1  0.35361200  0.77573200  0.39417400  1
  C  567  1  0.36822300  0.80699900  0.37770100  1
  C  568  1  0.35422000  0.81989100  0.39007900  1
  C  569  1  0.34590000  0.80062200  0.40034500  1
  C  570  1  0.38157000  0.81947400  0.36480100  1
  C  571  1  0.37702800  0.84763500  0.36382800  1
  C  572  1  0.40475000  0.86511900  0.36963800  1
  C  573  1  0.39851600  0.89288200  0.36962300  1
  C  574  1  0.36443700  0.90368100  0.36382400  1
  C  575  1  0.33719500  0.88611000  0.35779100  1
  C  576  1  0.34330100  0.85835600  0.35781300  1
  C  577  1  0.34025600  0.75036300  0.41609700  1
  C  578  1  0.37080300  0.74904900  0.42608300  1
  C  579  1  0.36371000  0.74828300  0.44111600  1
  C  580  1  0.32606800  0.74890200  0.44652700  1
  C  581  1  0.29543000  0.75032600  0.43653700  1
  C  582  1  0.30246600  0.75101800  0.42144300  1
  C  583  1  0.37364400  0.65209000  0.36388700  1
  C  584  1  0.33704700  0.64187600  0.36063100  1
  C  585  1  0.33019000  0.61421400  0.36098500  1
  C  586  1  0.35976700  0.59621100  0.36441800  1
  C  587  1  0.39645300  0.60645000  0.36764400  1
  C  588  1  0.40331700  0.63415500  0.36741400  1
  C  589  1  0.45532800  0.74916100  0.31901800  1
  C  590  1  0.43846300  0.74645600  0.30514400  1
  C  591  1  0.49537800  0.75174300  0.32001800  1
  C  592  1  0.51809800  0.75165800  0.30740100  1
  C  593  1  0.50132400  0.74906500  0.29346600  1
  C  594  1  0.46130300  0.74625700  0.29253900  1
  C  625  1  0.86603600  0.74709500  0.01477600  1
  C  627  1  0.81894800  0.73623000  0.99671500  1
  C  628  1  0.84483800  0.74209700  0.98541000  1
  C  630  1  0.89230400  0.75272300  0.00339800  1
  C  632  1  0.92725900  0.76064500  0.00544000  1
  C  634  1  0.87368300  0.74937600  0.02958600  1
  C  636  1  0.83383300  0.74025300  0.97099600  1
  C  638  1  0.80229500  0.24670200  0.98492400  1
  C  640  1  0.84910000  0.23525000  0.00296500  1
  C  641  1  0.82338200  0.24138300  0.01427900  1
  C  643  1  0.77619500  0.25260300  0.99630900  1
  C  645  1  0.74145600  0.26091800  0.99427400  1
  C  647  1  0.79465600  0.24902000  0.97011900  1
  C  649  1  0.83431700  0.23927800  0.02868900  1
  C  651  1  0.36580700  0.24670200  0.51477400  1
  C  653  1  0.31864100  0.23596000  0.49671700  1
  C  654  1  0.34457300  0.24171400  0.48540900  1
  C  656  1  0.39211600  0.25220400  0.50339200  1
  C  658  1  0.42713000  0.26000000  0.50542700  1
  C  660  1  0.37346500  0.24900200  0.52958300  1
  C  662  1  0.33354600  0.23989400  0.47099500  1
  C  664  1  0.30266300  0.74626900  0.48492900  1
  C  666  1  0.34962900  0.73509300  0.50296000  1
  C  667  1  0.32380800  0.74098300  0.51427800  1
  C  669  1  0.27646500  0.75192900  0.49631800  1
  C  671  1  0.24160200  0.75999400  0.49429000  1
  C  673  1  0.29499900  0.74858800  0.47012500  1
  C  675  1  0.33476400  0.73890300  0.52868500  1
  C  677  1  0.81516500  0.97544500  0.86889700  1
  C  679  1  0.86978400  0.00086700  0.86120500  1
  C  680  1  0.85200200  0.02484600  0.86550100  1
  C  682  1  0.79735600  0.99959700  0.87330900  1
  C  684  1  0.76358700  0.00124500  0.87912400  1
  C  686  1  0.79885800  0.95029300  0.87037100  1
  C  688  1  0.86958800  0.04940500  0.86404200  1
  C  690  1  0.81483500  0.52473100  0.13094000  1
  C  692  1  0.86970900  0.49947200  0.13843100  1
  C  693  1  0.85177700  0.47542600  0.13428700  1
  C  695  1  0.79688000  0.50050700  0.12667700  1
  C  697  1  0.76293300  0.49875000  0.12101900  1
  C  699  1  0.79845500  0.54984200  0.12951300  1
  C  701  1  0.86942100  0.45091700  0.13571500  1
  C  703  1  0.85395300  0.02454400  0.13140500  1
  C  705  1  0.79856600  0.99962000  0.13878900  1
  C  706  1  0.81623800  0.97545000  0.13475400  1
  C  708  1  0.87166500  0.00019600  0.12726500  1
  C  710  1  0.90570500  0.99821900  0.12171800  1
  C  712  1  0.87065400  0.04956600  0.12989900  1
  C  714  1  0.79818900  0.95103800  0.13613300  1
  C  716  1  0.85379800  0.47576900  0.86836000  1
  C  718  1  0.79851900  0.50065700  0.86092900  1
  C  719  1  0.81613700  0.52482400  0.86506000  1
  C  721  1  0.87145500  0.50011200  0.87259900  1
  C  723  1  0.90542600  0.50210200  0.87821200  1
  C  725  1  0.87046500  0.45076600  0.86985200  1
  C  727  1  0.79814000  0.54922500  0.86368400  1
  C  729  1  0.31539100  0.47501800  0.36908400  1
  C  731  1  0.37011500  0.50038200  0.36144100  1
  C  732  1  0.35235700  0.52438900  0.36571100  1
  C  734  1  0.29760100  0.49919700  0.37346800  1
  C  736  1  0.26379400  0.50089000  0.37924700  1
  C  738  1  0.29900800  0.44988200  0.37055600  1
  C  740  1  0.37001200  0.54893300  0.36427100  1
  C  742  1  0.31498300  0.02433000  0.63079700  1
  C  744  1  0.36995800  0.99911400  0.63822800  1
  C  745  1  0.35205200  0.97504900  0.63409800  1
  C  747  1  0.29705400  0.00008800  0.62654700  1
  C  749  1  0.26307200  0.99829800  0.62092300  1
  C  751  1  0.29854600  0.04942700  0.62937300  1
  C  753  1  0.36976400  0.95055400  0.63549300  1
  C  755  1  0.35444800  0.52411000  0.63177600  1
  C  757  1  0.29905400  0.49919000  0.63916100  1
  C  758  1  0.31669500  0.47501100  0.63511700  1
  C  760  1  0.37213200  0.49975300  0.62763000  1
  C  762  1  0.40615900  0.49776400  0.62206900  1
  C  764  1  0.37116500  0.54913600  0.63026600  1
  C  766  1  0.29860900  0.45060300  0.63648300  1
  C  768  1  0.35421100  0.97538800  0.36796900  1
  C  770  1  0.29893100  0.00025200  0.36051000  1
  C  771  1  0.31651500  0.02443900  0.36463300  1
  C  773  1  0.37184400  0.99975100  0.37219200  1
  C  775  1  0.40580000  0.00176700  0.37781600  1
  C  777  1  0.37090500  0.95038900  0.36947900  1
  C  779  1  0.29847400  0.04883000  0.36325500  1
  C  781  1  0.59742500  0.75344700  0.76438600  1
  C  783  1  0.60549400  0.73663100  0.74009800  1
  C  784  1  0.56938700  0.74652300  0.73597100  1
  C  786  1  0.56109500  0.76348600  0.76022700  1
  C  788  1  0.53810400  0.77652300  0.76877100  1
  C  790  1  0.61272900  0.75568200  0.77830100  1
  C  792  1  0.55519500  0.74336500  0.72201500  1
  C  794  1  0.59751300  0.74548200  0.23537600  1
  C  796  1  0.60550800  0.76235800  0.25965900  1
  C  797  1  0.56938400  0.75241400  0.26377300  1
  C  799  1  0.56116700  0.73538500  0.23952400  1
  C  801  1  0.53819900  0.72229300  0.23097900  1
  C  803  1  0.61287200  0.74323200  0.22147100  1
  C  805  1  0.55515200  0.75557000  0.27772000  1
  C  807  1  0.07089100  0.25396600  0.23536100  1
  C  809  1  0.06294700  0.23635000  0.25949400  1
  C  810  1  0.09901200  0.24626900  0.26370700  1
  C  812  1  0.10718000  0.26402300  0.23960900  1
  C  814  1  0.13013400  0.27738700  0.23118200  1
  C  816  1  0.05551800  0.25664100  0.22147800  1
  C  818  1  0.11324300  0.24273000  0.27763000  1
  C  820  1  0.07081100  0.24518600  0.76437400  1
  C  822  1  0.06309900  0.26275900  0.74022600  1
  C  823  1  0.09908900  0.25274600  0.73603800  1
  C  825  1  0.10702600  0.23502600  0.76015000  1
  C  827  1  0.12984000  0.22163000  0.76859800  1
  C  829  1  0.05536400  0.24257600  0.77825100  1
  C  831  1  0.11339400  0.25622100  0.72211900  1
  N  4  1  0.76513900  0.72021200  0.85069300  1
  N  8  1  0.76536100  0.78057400  0.85018800  1
  N  14  1  0.80254400  0.77974300  0.88013900  1
  N  20  1  0.80290600  0.71953800  0.88057500  1
  N  75  1  0.85420100  0.74946600  0.96047200  1
  N  76  1  0.81431500  0.92961100  0.86456600  1
  N  77  1  0.64759800  0.74948900  0.78111400  1
  N  78  1  0.81745800  0.57098100  0.86458900  1
  N  82  1  0.76490000  0.77992600  0.14906700  1
  N  86  1  0.76541400  0.71950700  0.14950300  1
  N  92  1  0.80256300  0.72058600  0.11954800  1
  N  98  1  0.80226300  0.78089700  0.11913900  1
  N  153  1  0.84635300  0.74776400  0.03886400  1
  N  154  1  0.81441800  0.57063400  0.13502400  1
  N  155  1  0.64761500  0.74978900  0.21863300  1
  N  156  1  0.81750000  0.92929900  0.13535500  1
  N  160  1  0.90325200  0.22033800  0.14898400  1
  N  164  1  0.90261900  0.28080500  0.14957700  1
  N  170  1  0.86501300  0.27992900  0.11971200  1
  N  176  1  0.86596000  0.21957300  0.11903400  1
  N  231  1  0.81470200  0.24926300  0.03920200  1
  N  232  1  0.84979400  0.42927700  0.13496200  1
  N  233  1  0.02098300  0.24972900  0.21851800  1
  N  234  1  0.85504800  0.07046700  0.13540400  1
  N  238  1  0.90331700  0.28000200  0.85066700  1
  N  242  1  0.90267300  0.21949800  0.85025000  1
  N  248  1  0.86518800  0.22059700  0.88009600  1
  N  254  1  0.86642900  0.28098900  0.88064200  1
  N  309  1  0.82207300  0.24793300  0.96085700  1
  N  310  1  0.85005000  0.07100800  0.86510300  1
  N  311  1  0.02100300  0.24983300  0.78122200  1
  N  312  1  0.85516600  0.42991300  0.86414000  1
  N  316  1  0.26447300  0.21989000  0.35074600  1
  N  320  1  0.26494700  0.28021000  0.35026700  1
  N  326  1  0.30238900  0.27922400  0.38016700  1
  N  332  1  0.30266600  0.21905600  0.38053400  1
  N  387  1  0.35406900  0.24889500  0.46046000  1
  N  388  1  0.31436400  0.42916900  0.36474200  1
  N  389  1  0.14701100  0.25053600  0.28114200  1
  N  390  1  0.31767100  0.07062400  0.36427800  1
  N  394  1  0.26425600  0.27947000  0.64898900  1
  N  398  1  0.26496700  0.21908700  0.64945500  1
  N  404  1  0.30233200  0.22021300  0.61953500  1
  N  410  1  0.30205800  0.28049800  0.61915100  1
  N  465  1  0.34616000  0.24734100  0.53886900  1
  N  466  1  0.31435000  0.07023500  0.63493700  1
  N  467  1  0.14716500  0.24843500  0.71864100  1
  N  468  1  0.31780500  0.42882900  0.63557500  1
  N  472  1  0.40441300  0.72003200  0.64886600  1
  N  476  1  0.40340300  0.78048000  0.64946700  1
  N  482  1  0.36548700  0.77947000  0.61965500  1
  N  488  1  0.36652600  0.71911800  0.61903100  1
  N  543  1  0.31500300  0.74871800  0.53920300  1
  N  544  1  0.35016800  0.92888800  0.63481700  1
  N  545  1  0.52120200  0.75079600  0.71861800  1
  N  546  1  0.35539800  0.57010200  0.63562900  1
  N  550  1  0.40450400  0.77951200  0.35079900  1
  N  554  1  0.40347400  0.71901600  0.35034700  1
  N  560  1  0.36562400  0.72021000  0.38013800  1
  N  566  1  0.36701100  0.78060900  0.38066200  1
  N  621  1  0.32241800  0.74755600  0.46086300  1
  N  622  1  0.35049900  0.57056100  0.36524700  1
  N  623  1  0.52106800  0.74823600  0.28108400  1
  N  624  1  0.35545800  0.92945700  0.36390700  1
  N  626  1  0.83048500  0.73903500  0.01067400  1
  N  629  1  0.88050000  0.75012300  0.98936600  1
  N  633  1  0.95813900  0.76759400  0.00723200  1
  N  639  1  0.83762700  0.23822600  0.98900900  1
  N  642  1  0.78793800  0.24982700  0.01033800  1
  N  646  1  0.71076500  0.26821400  0.99248600  1
  N  652  1  0.33019300  0.23876800  0.51067600  1
  N  655  1  0.38029200  0.24961600  0.48936100  1
  N  659  1  0.45806400  0.26683900  0.50721400  1
  N  665  1  0.33811700  0.73803500  0.48900700  1
  N  668  1  0.28824000  0.74917900  0.51034500  1
  N  672  1  0.21080200  0.76706800  0.49250800  1
  N  678  1  0.85080100  0.97750100  0.86305100  1
  N  681  1  0.81648500  0.02291600  0.87139200  1
  N  685  1  0.73382000  0.00271000  0.88427800  1
  N  691  1  0.85066100  0.52278400  0.13662100  1
  N  694  1  0.81607100  0.47724100  0.12856100  1
  N  698  1  0.73301000  0.49718600  0.11600200  1
  N  704  1  0.81797300  0.02282500  0.13697300  1
  N  707  1  0.85209600  0.97704500  0.12913900  1
  N  711  1  0.93571100  0.99646100  0.11679900  1
  N  717  1  0.81789600  0.47746800  0.86272500  1
  N  720  1  0.85191900  0.52324300  0.87074100  1
  N  724  1  0.93537200  0.50386700  0.88318900  1
  N  730  1  0.35107300  0.47703300  0.36327500  1
  N  733  1  0.31679500  0.52249700  0.37156500  1
  N  737  1  0.23399500  0.50239300  0.38436800  1
  N  743  1  0.35085300  0.02241300  0.63644100  1
  N  746  1  0.31630400  0.97683600  0.62840600  1
  N  750  1  0.23312000  0.99670800  0.61593400  1
  N  756  1  0.31847200  0.52239200  0.63734800  1
  N  759  1  0.35254800  0.47660400  0.62949700  1
  N  763  1  0.43614900  0.49599600  0.61713800  1
  N  769  1  0.31831600  0.97707100  0.36232400  1
  N  772  1  0.35229100  0.02287400  0.37032100  1
  N  776  1  0.43573200  0.00355800  0.38280300  1
  N  782  1  0.61775100  0.74040000  0.75394200  1
  N  785  1  0.54898700  0.75959100  0.74635300  1
  N  789  1  0.51781800  0.78805500  0.77629700  1
  N  795  1  0.61780800  0.75858200  0.24582300  1
  N  798  1  0.54901500  0.73928800  0.25338900  1
  N  802  1  0.51793300  0.71070900  0.22345100  1
  N  808  1  0.05064400  0.24051400  0.24569000  1
  N  811  1  0.11933200  0.25973800  0.25344100  1
  N  815  1  0.15038900  0.28920300  0.22375800  1
  N  821  1  0.05071900  0.25866200  0.75402700  1
  N  824  1  0.11925800  0.23924900  0.74632000  1
  N  828  1  0.14996900  0.20978800  0.77604000  1
