# generated using pymatgen
data_H11C15(N2O)2
_symmetry_space_group_name_H-M   'P 1'
_cell_length_a   36.13080000
_cell_length_b   36.13080000
_cell_length_c   36.13080000
_cell_angle_alpha   90.00000000
_cell_angle_beta   90.00000000
_cell_angle_gamma   90.00000000
_symmetry_Int_Tables_number   1
_chemical_formula_structural   H11C15(N2O)2
_chemical_formula_sum   'H352 C480 N128 O64'
_cell_volume   47166.40037093
_cell_formula_units_Z   32
loop_
 _symmetry_equiv_pos_site_id
 _symmetry_equiv_pos_as_xyz
  1  'x, y, z'
loop_
 _atom_site_type_symbol
 _atom_site_label
 _atom_site_symmetry_multiplicity
 _atom_site_fract_x
 _atom_site_fract_y
 _atom_site_fract_z
 _atom_site_occupancy
  H  7  1  0.95675900  0.99807200  0.03784300  1
  H  16  1  0.05957700  0.03451200  0.99863100  1
  H  19  1  0.05903200  0.94848600  0.96854400  1
  H  20  1  0.95179900  0.97278600  0.95008600  1
  H  21  1  0.00421000  0.87910200  0.08489700  1
  H  22  1  0.01159500  0.08690600  0.88230400  1
  H  27  1  0.06480000  0.11332100  0.95944600  1
  H  28  1  0.08378100  0.90141500  0.02512300  1
  H  29  1  0.94442000  0.96666700  0.10910000  1
  H  30  1  0.93635200  0.03379900  0.89569200  1
  H  37  1  0.54464300  0.00369100  0.53793900  1
  H  46  1  0.44186100  0.96692400  0.49893400  1
  H  49  1  0.44211500  0.05291800  0.46873200  1
  H  50  1  0.54938600  0.02884300  0.45010000  1
  H  51  1  0.49704900  0.12267400  0.58481900  1
  H  52  1  0.49004400  0.91418300  0.38280000  1
  H  57  1  0.43660800  0.88767600  0.45951900  1
  H  58  1  0.41731700  0.09997400  0.52529300  1
  H  59  1  0.55701700  0.03517400  0.60910600  1
  H  60  1  0.56499100  0.96772400  0.39591900  1
  H  67  1  0.25233300  0.69208700  0.28547400  1
  H  76  1  0.21731000  0.79784500  0.24542800  1
  H  79  1  0.30280800  0.79960500  0.22538500  1
  H  80  1  0.27960000  0.68853100  0.20188500  1
  H  81  1  0.36723700  0.74084100  0.34056500  1
  H  82  1  0.17117400  0.74838300  0.12661800  1
  H  87  1  0.14479900  0.80982600  0.20319200  1
  H  88  1  0.33915100  0.82770800  0.28877300  1
  H  89  1  0.28285800  0.67731900  0.35858600  1
  H  90  1  0.21839300  0.67407800  0.14286600  1
  H  97  1  0.24920200  0.30963600  0.78487500  1
  H  106  1  0.28472900  0.20370700  0.74577500  1
  H  109  1  0.19940000  0.20149800  0.72531900  1
  H  110  1  0.22235700  0.31249800  0.70108200  1
  H  111  1  0.13435100  0.26062500  0.84009700  1
  H  112  1  0.33163100  0.25248600  0.62704300  1
  H  117  1  0.35829500  0.19322100  0.70288100  1
  H  118  1  0.16222000  0.17426300  0.78858900  1
  H  119  1  0.21916700  0.32555800  0.85690500  1
  H  120  1  0.28381600  0.32708100  0.64267000  1
  H  127  1  0.74611300  0.29598500  0.71693300  1
  H  136  1  0.78384800  0.19066700  0.75228500  1
  H  139  1  0.69996100  0.18964600  0.78222900  1
  H  140  1  0.72582900  0.29902400  0.80391400  1
  H  141  1  0.62803700  0.24583700  0.66909600  1
  H  142  1  0.83905000  0.23543600  0.86857900  1
  H  147  1  0.86142500  0.17951800  0.79129300  1
  H  148  1  0.65799500  0.16150600  0.72197300  1
  H  149  1  0.71437000  0.31145100  0.64807500  1
  H  150  1  0.78852000  0.31296200  0.85634900  1
  H  157  1  0.75528000  0.70581000  0.21680100  1
  H  166  1  0.71764200  0.81114300  0.25227900  1
  H  169  1  0.80159200  0.81209000  0.28208000  1
  H  170  1  0.77573600  0.70272400  0.30373200  1
  H  171  1  0.87333400  0.75587800  0.16886600  1
  H  172  1  0.66265500  0.76628700  0.36867400  1
  H  177  1  0.64017000  0.82229500  0.29137400  1
  H  178  1  0.84353700  0.84018500  0.22182500  1
  H  179  1  0.78708400  0.69036000  0.14781900  1
  H  180  1  0.71298900  0.68887700  0.35641000  1
  H  187  1  0.45208700  0.49802300  0.53511300  1
  H  196  1  0.55677600  0.53455200  0.49731500  1
  H  199  1  0.55853100  0.44882400  0.47208100  1
  H  200  1  0.44935800  0.47224200  0.44875800  1
  H  201  1  0.49915000  0.38213600  0.58726500  1
  H  202  1  0.51025600  0.58449800  0.37920200  1
  H  207  1  0.56699500  0.60944900  0.45886800  1
  H  208  1  0.58687000  0.40982700  0.53364900  1
  H  209  1  0.44554200  0.46094700  0.61373300  1
  H  210  1  0.44211800  0.53974100  0.38614900  1
  H  217  1  0.04974800  0.50373000  0.03470300  1
  H  226  1  0.94496000  0.46675600  0.99765700  1
  H  229  1  0.94262900  0.55238700  0.97238000  1
  H  230  1  0.05178400  0.52940900  0.94826400  1
  H  231  1  0.00243400  0.61937400  0.08729800  1
  H  232  1  0.99097600  0.41653000  0.87948900  1
  H  237  1  0.93573200  0.39115300  0.95867700  1
  H  238  1  0.91514300  0.59201500  0.03392100  1
  H  239  1  0.05699600  0.54004800  0.11300400  1
  H  240  1  0.05887200  0.46160300  0.88575300  1
  H  247  1  0.92667600  0.91722700  0.16109900  1
  H  251  1  0.89354900  0.85733100  0.03762200  1
  H  252  1  0.87858200  0.91249400  0.00056900  1
  H  253  1  0.85924400  0.93660700  0.04253600  1
  H  254  1  0.81277400  0.88764300  0.04949700  1
  H  255  1  0.83190100  0.86340600  0.00748300  1
  H  264  1  0.57452600  0.08476300  0.66116100  1
  H  268  1  0.60793800  0.14445900  0.53768500  1
  H  269  1  0.62286900  0.08924300  0.50069100  1
  H  270  1  0.64211900  0.06513400  0.54270200  1
  H  271  1  0.68865500  0.11403300  0.54968300  1
  H  272  1  0.66961300  0.13826500  0.50762400  1
  H  281  1  0.32946400  0.65663300  0.40896100  1
  H  285  1  0.39897500  0.63765500  0.28722500  1
  H  286  1  0.34754000  0.61958700  0.24612800  1
  H  287  1  0.32315900  0.59576800  0.28556800  1
  H  288  1  0.37605800  0.55393900  0.29325400  1
  H  289  1  0.40058300  0.57757000  0.25377500  1
  H  298  1  0.17226900  0.34538900  0.90850300  1
  H  302  1  0.10180200  0.36355400  0.78716400  1
  H  303  1  0.15296700  0.38133900  0.74559000  1
  H  304  1  0.17764200  0.40537400  0.78471400  1
  H  305  1  0.12482200  0.44727700  0.79253100  1
  H  306  1  0.10000300  0.42342800  0.75336700  1
  H  315  1  0.57996400  0.91952400  0.34212300  1
  H  319  1  0.60972600  0.85402100  0.46346300  1
  H  320  1  0.62652000  0.90715000  0.50260400  1
  H  321  1  0.64724700  0.93194300  0.46170800  1
  H  322  1  0.69180800  0.88144100  0.45344900  1
  H  323  1  0.67127100  0.85651500  0.49437800  1
  H  332  1  0.92138400  0.08196900  0.84181200  1
  H  336  1  0.89211300  0.14767700  0.96318800  1
  H  337  1  0.87528300  0.09461700  0.00240700  1
  H  338  1  0.85440000  0.06984600  0.96158000  1
  H  339  1  0.80993900  0.12044600  0.95339000  1
  H  340  1  0.83063400  0.14535300  0.99425300  1
  H  349  1  0.17260800  0.65431100  0.09187900  1
  H  353  1  0.09993600  0.63901100  0.21214600  1
  H  354  1  0.14964600  0.61948700  0.25461900  1
  H  355  1  0.17398900  0.59427600  0.21603000  1
  H  356  1  0.11972000  0.55438200  0.20762600  1
  H  357  1  0.09522900  0.57942500  0.24624800  1
  H  366  1  0.32946400  0.34721300  0.59177700  1
  H  370  1  0.40229100  0.36220300  0.71203400  1
  H  371  1  0.35251900  0.38125900  0.75464600  1
  H  372  1  0.32801100  0.40653100  0.71620500  1
  H  373  1  0.38206100  0.44674800  0.70794900  1
  H  374  1  0.40671600  0.42164800  0.74642600  1
  H  383  1  0.08351200  0.09467100  0.85040600  1
  H  387  1  0.13078000  0.14354600  0.97691000  1
  H  388  1  0.15070400  0.08391700  0.00389800  1
  H  389  1  0.16247900  0.06536400  0.95662600  1
  H  390  1  0.20768800  0.11517400  0.94813200  1
  H  391  1  0.19610300  0.13390400  0.99538200  1
  H  400  1  0.41849000  0.90661900  0.35087200  1
  H  404  1  0.37040600  0.85784900  0.47707200  1
  H  405  1  0.35059500  0.91752900  0.50402400  1
  H  406  1  0.33909800  0.93617000  0.45671800  1
  H  407  1  0.29373000  0.88654200  0.44798600  1
  H  408  1  0.30503900  0.86772700  0.49526900  1
  H  417  1  0.66252000  0.32514600  0.59388900  1
  H  421  1  0.60383600  0.35849400  0.71790200  1
  H  422  1  0.65945000  0.37368100  0.75420000  1
  H  423  1  0.68301200  0.39286900  0.71185200  1
  H  424  1  0.63392400  0.43925900  0.70532500  1
  H  425  1  0.61023800  0.42027800  0.74771600  1
  H  434  1  0.83898700  0.67628600  0.09388400  1
  H  438  1  0.89742400  0.64347200  0.21817000  1
  H  439  1  0.84174100  0.62831900  0.25438000  1
  H  440  1  0.81831500  0.60895900  0.21203500  1
  H  441  1  0.86748600  0.56262400  0.20578000  1
  H  442  1  0.89104200  0.58177400  0.24817000  1
  H  451  1  0.41598000  0.09605100  0.64630400  1
  H  455  1  0.36429800  0.14788000  0.52296000  1
  H  456  1  0.34186000  0.08925000  0.49578700  1
  H  457  1  0.33137100  0.07020600  0.54316700  1
  H  458  1  0.28777600  0.12099000  0.55410500  1
  H  459  1  0.29812500  0.14022600  0.50677200  1
  H  468  1  0.08580900  0.90519000  0.14609300  1
  H  472  1  0.13694500  0.85380500  0.02225100  1
  H  473  1  0.15904600  0.91260800  0.99512700  1
  H  474  1  0.16965300  0.93157200  0.04251300  1
  H  475  1  0.21347300  0.88092000  0.05315300  1
  H  476  1  0.20300700  0.86176200  0.00581400  1
  H  485  1  0.83983900  0.32638000  0.90942500  1
  H  489  1  0.89987400  0.35672600  0.78526500  1
  H  490  1  0.84474900  0.37234400  0.74847100  1
  H  491  1  0.82135600  0.39266400  0.79038300  1
  H  492  1  0.87123900  0.43826000  0.79635300  1
  H  493  1  0.89476400  0.41814100  0.75440000  1
  H  502  1  0.66157300  0.67513500  0.40912100  1
  H  506  1  0.60198700  0.64499700  0.28467100  1
  H  507  1  0.65728000  0.62958400  0.24803900  1
  H  508  1  0.68056500  0.60921300  0.28998500  1
  H  509  1  0.63075500  0.56349900  0.29567000  1
  H  510  1  0.60734000  0.58366700  0.25367600  1
  H  519  1  0.95675900  0.99807200  0.39764700  1
  H  528  1  0.05957700  0.03451200  0.35843500  1
  H  531  1  0.05903200  0.94848600  0.32834800  1
  H  532  1  0.95179900  0.97278600  0.30989000  1
  H  533  1  0.00421000  0.87910200  0.44470100  1
  H  534  1  0.01159500  0.08690600  0.24210800  1
  H  539  1  0.06480000  0.11332100  0.31925000  1
  H  540  1  0.08378100  0.90141500  0.38492700  1
  H  541  1  0.94442000  0.96666700  0.46890400  1
  H  542  1  0.93635200  0.03379900  0.25549600  1
  H  549  1  0.54464300  0.00369100  0.89774300  1
  H  558  1  0.44186100  0.96692400  0.85873800  1
  H  561  1  0.44211500  0.05291800  0.82853600  1
  H  562  1  0.54938600  0.02884300  0.80990400  1
  H  563  1  0.49704900  0.12267400  0.94462300  1
  H  564  1  0.49004400  0.91418300  0.74260400  1
  H  569  1  0.43660800  0.88767600  0.81932300  1
  H  570  1  0.41731700  0.09997400  0.88509700  1
  H  571  1  0.55701700  0.03517400  0.96891000  1
  H  572  1  0.56499100  0.96772400  0.75572300  1
  H  579  1  0.25233300  0.69208700  0.64527800  1
  H  588  1  0.21731000  0.79784500  0.60523200  1
  H  591  1  0.30280800  0.79960500  0.58518900  1
  H  592  1  0.27960000  0.68853100  0.56168900  1
  H  593  1  0.36723700  0.74084100  0.70036900  1
  H  594  1  0.17117400  0.74838300  0.48642200  1
  H  599  1  0.14479900  0.80982600  0.56299600  1
  H  600  1  0.33915100  0.82770800  0.64857700  1
  H  601  1  0.28285800  0.67731900  0.71839000  1
  H  602  1  0.21839300  0.67407800  0.50267000  1
  H  609  1  0.24920200  0.30963600  0.14467900  1
  H  618  1  0.28472900  0.20370700  0.10557900  1
  H  621  1  0.19940000  0.20149800  0.08512280  1
  H  622  1  0.22235700  0.31249800  0.06088580  1
  H  623  1  0.13435100  0.26062500  0.19990100  1
  H  624  1  0.33163100  0.25248600  0.98684700  1
  H  629  1  0.35829500  0.19322100  0.06268480  1
  H  630  1  0.16222000  0.17426300  0.14839300  1
  H  631  1  0.21916700  0.32555800  0.21670900  1
  H  632  1  0.28381600  0.32708100  0.00247382  1
  H  639  1  0.74611300  0.29598500  0.07673680  1
  H  648  1  0.78384800  0.19066700  0.11208900  1
  H  651  1  0.69996100  0.18964600  0.14203300  1
  H  652  1  0.72582900  0.29902400  0.16371800  1
  H  653  1  0.62803700  0.24583700  0.02889980  1
  H  654  1  0.83905000  0.23543600  0.22838300  1
  H  659  1  0.86142500  0.17951800  0.15109700  1
  H  660  1  0.65799500  0.16150600  0.08177680  1
  H  661  1  0.71437000  0.31145100  0.00787882  1
  H  662  1  0.78852000  0.31296200  0.21615300  1
  H  669  1  0.75528000  0.70581000  0.57660500  1
  H  678  1  0.71764200  0.81114300  0.61208300  1
  H  681  1  0.80159200  0.81209000  0.64188400  1
  H  682  1  0.77573600  0.70272400  0.66353600  1
  H  683  1  0.87333400  0.75587800  0.52867000  1
  H  684  1  0.66265500  0.76628700  0.72847800  1
  H  689  1  0.64017000  0.82229500  0.65117800  1
  H  690  1  0.84353700  0.84018500  0.58162900  1
  H  691  1  0.78708400  0.69036000  0.50762300  1
  H  692  1  0.71298900  0.68887700  0.71621400  1
  H  699  1  0.45208700  0.49802300  0.89491700  1
  H  708  1  0.55677600  0.53455200  0.85711900  1
  H  711  1  0.55853100  0.44882400  0.83188500  1
  H  712  1  0.44935800  0.47224200  0.80856200  1
  H  713  1  0.49915000  0.38213600  0.94706900  1
  H  714  1  0.51025600  0.58449800  0.73900600  1
  H  719  1  0.56699500  0.60944900  0.81867200  1
  H  720  1  0.58687000  0.40982700  0.89345300  1
  H  721  1  0.44554200  0.46094700  0.97353700  1
  H  722  1  0.44211800  0.53974100  0.74595300  1
  H  729  1  0.04974800  0.50373000  0.39450700  1
  H  738  1  0.94496000  0.46675600  0.35746100  1
  H  741  1  0.94262900  0.55238700  0.33218400  1
  H  742  1  0.05178400  0.52940900  0.30806800  1
  H  743  1  0.00243400  0.61937400  0.44710200  1
  H  744  1  0.99097600  0.41653000  0.23929300  1
  H  749  1  0.93573200  0.39115300  0.31848100  1
  H  750  1  0.91514300  0.59201500  0.39372500  1
  H  751  1  0.05699600  0.54004800  0.47280800  1
  H  752  1  0.05887200  0.46160300  0.24555700  1
  H  759  1  0.92667600  0.91722700  0.52090300  1
  H  763  1  0.89354900  0.85733100  0.39742600  1
  H  764  1  0.87858200  0.91249400  0.36037300  1
  H  765  1  0.85924400  0.93660700  0.40234000  1
  H  766  1  0.81277400  0.88764300  0.40930100  1
  H  767  1  0.83190100  0.86340600  0.36728700  1
  H  776  1  0.57452600  0.08476300  0.02096480  1
  H  780  1  0.60793800  0.14445900  0.89748900  1
  H  781  1  0.62286900  0.08924300  0.86049500  1
  H  782  1  0.64211900  0.06513400  0.90250600  1
  H  783  1  0.68865500  0.11403300  0.90948700  1
  H  784  1  0.66961300  0.13826500  0.86742800  1
  H  793  1  0.32946400  0.65663300  0.76876500  1
  H  797  1  0.39897500  0.63765500  0.64702900  1
  H  798  1  0.34754000  0.61958700  0.60593200  1
  H  799  1  0.32315900  0.59576800  0.64537200  1
  H  800  1  0.37605800  0.55393900  0.65305800  1
  H  801  1  0.40058300  0.57757000  0.61357900  1
  H  810  1  0.17226900  0.34538900  0.26830700  1
  H  814  1  0.10180200  0.36355400  0.14696800  1
  H  815  1  0.15296700  0.38133900  0.10539400  1
  H  816  1  0.17764200  0.40537400  0.14451800  1
  H  817  1  0.12482200  0.44727700  0.15233500  1
  H  818  1  0.10000300  0.42342800  0.11317100  1
  H  827  1  0.57996400  0.91952400  0.70192700  1
  H  831  1  0.60972600  0.85402100  0.82326700  1
  H  832  1  0.62652000  0.90715000  0.86240800  1
  H  833  1  0.64724700  0.93194300  0.82151200  1
  H  834  1  0.69180800  0.88144100  0.81325300  1
  H  835  1  0.67127100  0.85651500  0.85418200  1
  H  844  1  0.92138400  0.08196900  0.20161600  1
  H  848  1  0.89211300  0.14767700  0.32299200  1
  H  849  1  0.87528300  0.09461700  0.36221100  1
  H  850  1  0.85440000  0.06984600  0.32138400  1
  H  851  1  0.80993900  0.12044600  0.31319400  1
  H  852  1  0.83063400  0.14535300  0.35405700  1
  H  861  1  0.17260800  0.65431100  0.45168300  1
  H  865  1  0.09993600  0.63901100  0.57195000  1
  H  866  1  0.14964600  0.61948700  0.61442300  1
  H  867  1  0.17398900  0.59427600  0.57583400  1
  H  868  1  0.11972000  0.55438200  0.56743000  1
  H  869  1  0.09522900  0.57942500  0.60605200  1
  H  878  1  0.32946400  0.34721300  0.95158100  1
  H  882  1  0.40229100  0.36220300  0.07183780  1
  H  883  1  0.35251900  0.38125900  0.11445000  1
  H  884  1  0.32801100  0.40653100  0.07600880  1
  H  885  1  0.38206100  0.44674800  0.06775280  1
  H  886  1  0.40671600  0.42164800  0.10623000  1
  H  895  1  0.08351200  0.09467100  0.21021000  1
  H  899  1  0.13078000  0.14354600  0.33671400  1
  H  900  1  0.15070400  0.08391700  0.36370200  1
  H  901  1  0.16247900  0.06536400  0.31643000  1
  H  902  1  0.20768800  0.11517400  0.30793600  1
  H  903  1  0.19610300  0.13390400  0.35518600  1
  H  912  1  0.41849000  0.90661900  0.71067600  1
  H  916  1  0.37040600  0.85784900  0.83687600  1
  H  917  1  0.35059500  0.91752900  0.86382800  1
  H  918  1  0.33909800  0.93617000  0.81652200  1
  H  919  1  0.29373000  0.88654200  0.80779000  1
  H  920  1  0.30503900  0.86772700  0.85507300  1
  H  929  1  0.66252000  0.32514600  0.95369300  1
  H  933  1  0.60383600  0.35849400  0.07770580  1
  H  934  1  0.65945000  0.37368100  0.11400400  1
  H  935  1  0.68301200  0.39286900  0.07165580  1
  H  936  1  0.63392400  0.43925900  0.06512880  1
  H  937  1  0.61023800  0.42027800  0.10752000  1
  H  946  1  0.83898700  0.67628600  0.45368800  1
  H  950  1  0.89742400  0.64347200  0.57797400  1
  H  951  1  0.84174100  0.62831900  0.61418400  1
  H  952  1  0.81831500  0.60895900  0.57183900  1
  H  953  1  0.86748600  0.56262400  0.56558400  1
  H  954  1  0.89104200  0.58177400  0.60797400  1
  H  963  1  0.41598000  0.09605100  0.00610782  1
  H  967  1  0.36429800  0.14788000  0.88276400  1
  H  968  1  0.34186000  0.08925000  0.85559100  1
  H  969  1  0.33137100  0.07020600  0.90297100  1
  H  970  1  0.28777600  0.12099000  0.91390900  1
  H  971  1  0.29812500  0.14022600  0.86657600  1
  H  980  1  0.08580900  0.90519000  0.50589700  1
  H  984  1  0.13694500  0.85380500  0.38205500  1
  H  985  1  0.15904600  0.91260800  0.35493100  1
  H  986  1  0.16965300  0.93157200  0.40231700  1
  H  987  1  0.21347300  0.88092000  0.41295700  1
  H  988  1  0.20300700  0.86176200  0.36561800  1
  H  997  1  0.83983900  0.32638000  0.26922900  1
  H  1001  1  0.89987400  0.35672600  0.14506900  1
  H  1002  1  0.84474900  0.37234400  0.10827500  1
  H  1003  1  0.82135600  0.39266400  0.15018700  1
  H  1004  1  0.87123900  0.43826000  0.15615700  1
  H  1005  1  0.89476400  0.41814100  0.11420400  1
  H  1014  1  0.66157300  0.67513500  0.76892500  1
  H  1018  1  0.60198700  0.64499700  0.64447500  1
  H  1019  1  0.65728000  0.62958400  0.60784300  1
  H  1020  1  0.68056500  0.60921300  0.64978900  1
  H  1021  1  0.63075500  0.56349900  0.65547400  1
  H  1022  1  0.60734000  0.58366700  0.61348000  1
  C  1  1  0.00809100  0.98427000  0.01306300  1
  C  2  1  0.97891400  0.98038900  0.03894900  1
  C  3  1  0.97951200  0.95249900  0.06626200  1
  C  4  1  0.01055300  0.92873800  0.06886100  1
  C  5  1  0.04069600  0.93267100  0.04408600  1
  C  6  1  0.03873900  0.95964000  0.01556100  1
  C  9  1  0.00661700  0.01295400  0.98564800  1
  C  10  1  0.97535800  0.01798800  0.96221100  1
  C  11  1  0.97437200  0.04733900  0.93614500  1
  C  12  1  0.00579700  0.07048100  0.93185200  1
  C  13  1  0.03732900  0.06538000  0.95448600  1
  C  14  1  0.03706900  0.03730300  0.98156800  1
  C  23  1  0.06832800  0.08745400  0.95070600  1
  C  24  1  0.07090400  0.90929800  0.04800700  1
  C  25  1  0.94977300  0.94784100  0.08976900  1
  C  26  1  0.94375000  0.05308600  0.91387300  1
  C  31  1  0.49324300  0.01734200  0.51321200  1
  C  32  1  0.52245900  0.02134000  0.53904100  1
  C  33  1  0.52186400  0.04929300  0.56629200  1
  C  34  1  0.49078000  0.07299600  0.56889600  1
  C  35  1  0.46059000  0.06894100  0.54419100  1
  C  36  1  0.46254700  0.04190700  0.51572500  1
  C  39  1  0.49474300  0.98860700  0.48584200  1
  C  40  1  0.52599900  0.98359700  0.46239200  1
  C  41  1  0.52707300  0.95414600  0.43644400  1
  C  42  1  0.49573400  0.93086400  0.43227900  1
  C  43  1  0.46417100  0.93597600  0.45487200  1
  C  44  1  0.46435700  0.96415900  0.48184900  1
  C  53  1  0.43331700  0.91371000  0.45128200  1
  C  54  1  0.43031900  0.09223400  0.54815500  1
  C  55  1  0.55161200  0.05399800  0.58978700  1
  C  56  1  0.55769800  0.94844700  0.41415900  1
  C  61  1  0.26549300  0.74521600  0.26422300  1
  C  62  1  0.26915300  0.71469400  0.28862000  1
  C  63  1  0.29589700  0.71424800  0.31703400  1
  C  64  1  0.31795800  0.74603000  0.32310100  1
  C  65  1  0.31353300  0.77802200  0.30075400  1
  C  66  1  0.28868400  0.77657500  0.27028700  1
  C  69  1  0.23854100  0.74417000  0.23483100  1
  C  70  1  0.23411600  0.71274300  0.21139200  1
  C  71  1  0.20618500  0.71195900  0.18382400  1
  C  72  1  0.18453300  0.74402100  0.17725900  1
  C  73  1  0.18941800  0.77601600  0.19929300  1
  C  74  1  0.21524800  0.77515200  0.22854500  1
  C  83  1  0.17004200  0.80827900  0.19228900  1
  C  84  1  0.33420200  0.80957700  0.30883600  1
  C  85  1  0.30086200  0.68308100  0.33861900  1
  C  86  1  0.20021800  0.68080000  0.16237700  1
  C  91  1  0.23628700  0.25632300  0.76392600  1
  C  92  1  0.23244200  0.28699900  0.78811000  1
  C  93  1  0.20561200  0.28754100  0.81644600  1
  C  94  1  0.18367900  0.25570000  0.82267400  1
  C  95  1  0.18826400  0.22360200  0.80052100  1
  C  96  1  0.21318800  0.22492600  0.77011800  1
  C  99  1  0.26338500  0.25723000  0.73466600  1
  C  100  1  0.26786400  0.28851200  0.71104900  1
  C  101  1  0.29600700  0.28922400  0.68369800  1
  C  102  1  0.31785600  0.25721400  0.67753500  1
  C  103  1  0.31289900  0.22532600  0.69971500  1
  C  104  1  0.28681900  0.22628400  0.72874300  1
  C  113  1  0.33254400  0.19305200  0.69318100  1
  C  114  1  0.16784600  0.19195700  0.80889000  1
  C  115  1  0.20049500  0.31880500  0.83787700  1
  C  116  1  0.30203000  0.32027200  0.66211800  1
  C  121  1  0.73419500  0.24326400  0.73973900  1
  C  122  1  0.72894200  0.27347600  0.71527500  1
  C  123  1  0.70050100  0.27343100  0.68850000  1
  C  124  1  0.67809400  0.24153900  0.68444600  1
  C  125  1  0.68372300  0.21011300  0.70730400  1
  C  126  1  0.71047900  0.21198300  0.73600500  1
  C  129  1  0.76372400  0.24392300  0.76642500  1
  C  130  1  0.77015600  0.27467400  0.79023100  1
  C  131  1  0.80013100  0.27452200  0.81563500  1
  C  132  1  0.82222300  0.24226900  0.81928300  1
  C  133  1  0.81560800  0.21109700  0.79651300  1
  C  134  1  0.78743800  0.21284000  0.76962200  1
  C  143  1  0.83550200  0.17864800  0.80045700  1
  C  144  1  0.66315600  0.17820800  0.70073100  1
  C  145  1  0.69492100  0.30390700  0.66601800  1
  C  146  1  0.80734900  0.30478900  0.83801500  1
  C  151  1  0.76724700  0.75852600  0.23959600  1
  C  152  1  0.77245600  0.72831400  0.21512100  1
  C  153  1  0.80086700  0.72835000  0.18831300  1
  C  154  1  0.82329400  0.76022600  0.18425000  1
  C  155  1  0.81771400  0.79164200  0.20713200  1
  C  156  1  0.79098600  0.78978800  0.23585900  1
  C  159  1  0.73778200  0.75787300  0.26634700  1
  C  160  1  0.73139700  0.72711300  0.29015100  1
  C  161  1  0.70148600  0.72727000  0.31562500  1
  C  162  1  0.67941100  0.75952500  0.31934200  1
  C  163  1  0.68598200  0.79070900  0.29658000  1
  C  164  1  0.71409100  0.78896800  0.26962100  1
  C  173  1  0.66608200  0.82315000  0.30056300  1
  C  174  1  0.83830000  0.82352900  0.20056400  1
  C  175  1  0.80645200  0.69785200  0.16586900  1
  C  176  1  0.69426500  0.69697000  0.33793600  1
  C  181  1  0.50479300  0.48492600  0.51281700  1
  C  182  1  0.47457200  0.48090200  0.53748500  1
  C  183  1  0.47472700  0.45387000  0.56560800  1
  C  184  1  0.50638700  0.43135700  0.57053700  1
  C  185  1  0.53789200  0.43581300  0.54749900  1
  C  186  1  0.53611800  0.46146200  0.51773500  1
  C  189  1  0.50378300  0.51290500  0.48454400  1
  C  190  1  0.47280400  0.51755800  0.46062000  1
  C  191  1  0.47236400  0.54617900  0.43378400  1
  C  192  1  0.50403200  0.56882700  0.42895200  1
  C  193  1  0.53547300  0.56394200  0.45181100  1
  C  194  1  0.53446600  0.53692900  0.47995300  1
  C  203  1  0.56735200  0.58460600  0.44697000  1
  C  204  1  0.56940000  0.41462400  0.55432400  1
  C  205  1  0.44468600  0.44942200  0.58874900  1
  C  206  1  0.44221500  0.55171400  0.41093100  1
  C  211  1  0.99684600  0.51661700  0.01274300  1
  C  212  1  0.02721200  0.52076000  0.03721900  1
  C  213  1  0.02712900  0.54778100  0.06535700  1
  C  214  1  0.99539900  0.57013600  0.07052000  1
  C  215  1  0.96378000  0.56557800  0.04766300  1
  C  216  1  0.96545500  0.53994900  0.01788100  1
  C  219  1  0.99777100  0.48860700  0.98449100  1
  C  220  1  0.02861800  0.48401900  0.96039300  1
  C  221  1  0.02903700  0.45529800  0.93365900  1
  C  222  1  0.99746100  0.43246700  0.92911700  1
  C  223  1  0.96611100  0.43730800  0.95212000  1
  C  224  1  0.96716200  0.46444000  0.98014600  1
  C  233  1  0.93431500  0.41635300  0.94768600  1
  C  234  1  0.93217000  0.58651800  0.05481900  1
  C  235  1  0.05725400  0.55232600  0.08836200  1
  C  236  1  0.05906600  0.44983400  0.91063200  1
  C  241  1  0.87699600  0.88128600  0.09151500  1
  C  242  1  0.90467600  0.90331100  0.10832400  1
  C  243  1  0.90619500  0.90335800  0.14740200  1
  C  245  1  0.85557600  0.86170100  0.15070300  1
  C  248  1  0.87421400  0.87633400  0.05098100  1
  C  249  1  0.83634100  0.88052200  0.03197100  1
  C  250  1  0.86549000  0.91099400  0.02775200  1
  C  258  1  0.62438900  0.12052100  0.59161600  1
  C  259  1  0.59664800  0.09855700  0.60840500  1
  C  260  1  0.59511200  0.09850000  0.64748500  1
  C  262  1  0.64577200  0.14011500  0.65081500  1
  C  265  1  0.62722900  0.12543800  0.55108300  1
  C  266  1  0.66511900  0.12117700  0.53212100  1
  C  267  1  0.63592700  0.09074700  0.52789000  1
  C  275  1  0.37395700  0.61572600  0.33868600  1
  C  276  1  0.34775000  0.63932900  0.35576500  1
  C  277  1  0.34600900  0.63857900  0.39483400  1
  C  279  1  0.39427800  0.59410700  0.39770200  1
  C  282  1  0.38101500  0.61605500  0.29837900  1
  C  283  1  0.38179800  0.57901200  0.27738300  1
  C  284  1  0.34881300  0.60520000  0.27266000  1
  C  292  1  0.12719400  0.38578700  0.83831100  1
  C  293  1  0.15358100  0.36236100  0.85534900  1
  C  294  1  0.15559900  0.36334600  0.89439600  1
  C  296  1  0.10720500  0.40768200  0.89734100  1
  C  299  1  0.11987000  0.38519200  0.79805800  1
  C  300  1  0.11895100  0.42211300  0.77685100  1
  C  301  1  0.15189100  0.39588300  0.77204400  1
  C  309  1  0.62775400  0.87924900  0.41064100  1
  C  310  1  0.60086300  0.90273000  0.39451100  1
  C  311  1  0.59987000  0.90449600  0.35544700  1
  C  313  1  0.64945600  0.86179800  0.35090500  1
  C  316  1  0.62998800  0.87264200  0.45096400  1
  C  317  1  0.66778700  0.87465400  0.47048200  1
  C  318  1  0.63980800  0.90609000  0.47549700  1
  C  326  1  0.87389900  0.12245500  0.91042700  1
  C  327  1  0.90069000  0.09890300  0.89423000  1
  C  328  1  0.90155600  0.09707000  0.85517200  1
  C  330  1  0.85208600  0.13991100  0.85073000  1
  C  333  1  0.87177600  0.12909700  0.95075300  1
  C  334  1  0.83402100  0.12718800  0.97035900  1
  C  335  1  0.86193400  0.09569000  0.97533000  1
  C  343  1  0.12531300  0.61553800  0.16154900  1
  C  344  1  0.15250300  0.63826600  0.14481700  1
  C  345  1  0.15514900  0.63698200  0.10581400  1
  C  347  1  0.10587400  0.59372800  0.10231600  1
  C  350  1  0.11724000  0.61656500  0.20165200  1
  C  351  1  0.11459100  0.57985100  0.22306900  1
  C  352  1  0.14842900  0.60484300  0.22822600  1
  C  360  1  0.37674500  0.38579500  0.66157900  1
  C  361  1  0.34968500  0.36299500  0.64475900  1
  C  362  1  0.34689200  0.36452200  0.60577900  1
  C  364  1  0.39596900  0.40805600  0.60241300  1
  C  367  1  0.38486500  0.38461300  0.70166600  1
  C  368  1  0.38733700  0.42123300  0.72326300  1
  C  369  1  0.35363700  0.39603800  0.72832500  1
  C  377  1  0.13785500  0.12679800  0.91842600  1
  C  378  1  0.10892600  0.10572800  0.90225400  1
  C  379  1  0.10376100  0.10928300  0.86371900  1
  C  381  1  0.15178300  0.15381300  0.85980800  1
  C  384  1  0.14687000  0.12596600  0.95832500  1
  C  385  1  0.18740700  0.12001200  0.97001000  1
  C  386  1  0.15917800  0.08887300  0.97533300  1
  C  394  1  0.36364800  0.87467600  0.41857000  1
  C  395  1  0.39273900  0.89564500  0.40257000  1
  C  396  1  0.39807800  0.89211900  0.36405500  1
  C  398  1  0.34990900  0.84776000  0.35985900  1
  C  401  1  0.35446200  0.87550100  0.45843100  1
  C  402  1  0.31389800  0.88161000  0.46994700  1
  C  403  1  0.34222800  0.91263000  0.47541600  1
  C  411  1  0.62709600  0.37487600  0.66365400  1
  C  412  1  0.64904900  0.34720700  0.64672700  1
  C  413  1  0.64878100  0.34567700  0.60765000  1
  C  415  1  0.60697400  0.39624900  0.60458600  1
  C  418  1  0.62264800  0.37779600  0.70422900  1
  C  419  1  0.62704000  0.41575600  0.72302800  1
  C  420  1  0.65759000  0.38665000  0.72698000  1
  C  428  1  0.87432500  0.62687700  0.16391800  1
  C  429  1  0.85236900  0.65444600  0.14683600  1
  C  430  1  0.85272800  0.65583000  0.10775400  1
  C  432  1  0.89464300  0.60533000  0.10498000  1
  C  435  1  0.87867600  0.62410100  0.20451400  1
  C  436  1  0.87429400  0.58619400  0.22342500  1
  C  437  1  0.84368900  0.61526400  0.22720700  1
  C  445  1  0.35919200  0.13012600  0.58132000  1
  C  446  1  0.38879200  0.10868800  0.59572100  1
  C  447  1  0.39538500  0.11118300  0.63414200  1
  C  449  1  0.34732100  0.15523500  0.64124200  1
  C  452  1  0.34843100  0.13043300  0.54186100  1
  C  453  1  0.30736100  0.12566100  0.53157100  1
  C  454  1  0.33459800  0.09393800  0.52472900  1
  C  462  1  0.14223600  0.87142200  0.08063700  1
  C  463  1  0.11274200  0.89281900  0.09530800  1
  C  464  1  0.10634900  0.89013100  0.13375200  1
  C  466  1  0.15444100  0.84604200  0.14037400  1
  C  469  1  0.15280100  0.87129100  0.04112200  1
  C  470  1  0.19381300  0.87622900  0.03068500  1
  C  471  1  0.16644400  0.90787500  0.02402800  1
  C  479  1  0.87664100  0.37436400  0.83912200  1
  C  480  1  0.85432500  0.34714400  0.85631800  1
  C  481  1  0.85414500  0.34634900  0.89541800  1
  C  483  1  0.89606800  0.39679400  0.89801100  1
  C  486  1  0.88141600  0.37663400  0.79854200  1
  C  487  1  0.87777100  0.41433800  0.77907700  1
  C  488  1  0.84672500  0.38571700  0.77548700  1
  C  496  1  0.62506700  0.62727800  0.33856900  1
  C  497  1  0.64723600  0.65451500  0.35591200  1
  C  498  1  0.64733900  0.65518500  0.39501700  1
  C  500  1  0.60549400  0.60466300  0.39733600  1
  C  503  1  0.62044200  0.62509700  0.29796400  1
  C  504  1  0.62423700  0.58744500  0.27842700  1
  C  505  1  0.65523200  0.61614100  0.27501500  1
  C  513  1  0.00809100  0.98427000  0.37286700  1
  C  514  1  0.97891400  0.98038900  0.39875300  1
  C  515  1  0.97951200  0.95249900  0.42606600  1
  C  516  1  0.01055300  0.92873800  0.42866500  1
  C  517  1  0.04069600  0.93267100  0.40389000  1
  C  518  1  0.03873900  0.95964000  0.37536500  1
  C  521  1  0.00661700  0.01295400  0.34545200  1
  C  522  1  0.97535800  0.01798800  0.32201500  1
  C  523  1  0.97437200  0.04733900  0.29594900  1
  C  524  1  0.00579700  0.07048100  0.29165600  1
  C  525  1  0.03732900  0.06538000  0.31429000  1
  C  526  1  0.03706900  0.03730300  0.34137200  1
  C  535  1  0.06832800  0.08745400  0.31051000  1
  C  536  1  0.07090400  0.90929800  0.40781100  1
  C  537  1  0.94977300  0.94784100  0.44957300  1
  C  538  1  0.94375000  0.05308600  0.27367700  1
  C  543  1  0.49324300  0.01734200  0.87301600  1
  C  544  1  0.52245900  0.02134000  0.89884500  1
  C  545  1  0.52186400  0.04929300  0.92609600  1
  C  546  1  0.49078000  0.07299600  0.92870000  1
  C  547  1  0.46059000  0.06894100  0.90399500  1
  C  548  1  0.46254700  0.04190700  0.87552900  1
  C  551  1  0.49474300  0.98860700  0.84564600  1
  C  552  1  0.52599900  0.98359700  0.82219600  1
  C  553  1  0.52707300  0.95414600  0.79624800  1
  C  554  1  0.49573400  0.93086400  0.79208300  1
  C  555  1  0.46417100  0.93597600  0.81467600  1
  C  556  1  0.46435700  0.96415900  0.84165300  1
  C  565  1  0.43331700  0.91371000  0.81108600  1
  C  566  1  0.43031900  0.09223400  0.90795900  1
  C  567  1  0.55161200  0.05399800  0.94959100  1
  C  568  1  0.55769800  0.94844700  0.77396300  1
  C  573  1  0.26549300  0.74521600  0.62402700  1
  C  574  1  0.26915300  0.71469400  0.64842400  1
  C  575  1  0.29589700  0.71424800  0.67683800  1
  C  576  1  0.31795800  0.74603000  0.68290500  1
  C  577  1  0.31353300  0.77802200  0.66055800  1
  C  578  1  0.28868400  0.77657500  0.63009100  1
  C  581  1  0.23854100  0.74417000  0.59463500  1
  C  582  1  0.23411600  0.71274300  0.57119600  1
  C  583  1  0.20618500  0.71195900  0.54362800  1
  C  584  1  0.18453300  0.74402100  0.53706300  1
  C  585  1  0.18941800  0.77601600  0.55909700  1
  C  586  1  0.21524800  0.77515200  0.58834900  1
  C  595  1  0.17004200  0.80827900  0.55209300  1
  C  596  1  0.33420200  0.80957700  0.66864000  1
  C  597  1  0.30086200  0.68308100  0.69842300  1
  C  598  1  0.20021800  0.68080000  0.52218100  1
  C  603  1  0.23628700  0.25632300  0.12373000  1
  C  604  1  0.23244200  0.28699900  0.14791400  1
  C  605  1  0.20561200  0.28754100  0.17625000  1
  C  606  1  0.18367900  0.25570000  0.18247800  1
  C  607  1  0.18826400  0.22360200  0.16032500  1
  C  608  1  0.21318800  0.22492600  0.12992200  1
  C  611  1  0.26338500  0.25723000  0.09446980  1
  C  612  1  0.26786400  0.28851200  0.07085280  1
  C  613  1  0.29600700  0.28922400  0.04350180  1
  C  614  1  0.31785600  0.25721400  0.03733880  1
  C  615  1  0.31289900  0.22532600  0.05951880  1
  C  616  1  0.28681900  0.22628400  0.08854680  1
  C  625  1  0.33254400  0.19305200  0.05298480  1
  C  626  1  0.16784600  0.19195700  0.16869400  1
  C  627  1  0.20049500  0.31880500  0.19768100  1
  C  628  1  0.30203000  0.32027200  0.02192180  1
  C  633  1  0.73419500  0.24326400  0.09954280  1
  C  634  1  0.72894200  0.27347600  0.07507880  1
  C  635  1  0.70050100  0.27343100  0.04830380  1
  C  636  1  0.67809400  0.24153900  0.04424980  1
  C  637  1  0.68372300  0.21011300  0.06710780  1
  C  638  1  0.71047900  0.21198300  0.09580880  1
  C  641  1  0.76372400  0.24392300  0.12622900  1
  C  642  1  0.77015600  0.27467400  0.15003500  1
  C  643  1  0.80013100  0.27452200  0.17543900  1
  C  644  1  0.82222300  0.24226900  0.17908700  1
  C  645  1  0.81560800  0.21109700  0.15631700  1
  C  646  1  0.78743800  0.21284000  0.12942600  1
  C  655  1  0.83550200  0.17864800  0.16026100  1
  C  656  1  0.66315600  0.17820800  0.06053480  1
  C  657  1  0.69492100  0.30390700  0.02582180  1
  C  658  1  0.80734900  0.30478900  0.19781900  1
  C  663  1  0.76724700  0.75852600  0.59940000  1
  C  664  1  0.77245600  0.72831400  0.57492500  1
  C  665  1  0.80086700  0.72835000  0.54811700  1
  C  666  1  0.82329400  0.76022600  0.54405400  1
  C  667  1  0.81771400  0.79164200  0.56693600  1
  C  668  1  0.79098600  0.78978800  0.59566300  1
  C  671  1  0.73778200  0.75787300  0.62615100  1
  C  672  1  0.73139700  0.72711300  0.64995500  1
  C  673  1  0.70148600  0.72727000  0.67542900  1
  C  674  1  0.67941100  0.75952500  0.67914600  1
  C  675  1  0.68598200  0.79070900  0.65638400  1
  C  676  1  0.71409100  0.78896800  0.62942500  1
  C  685  1  0.66608200  0.82315000  0.66036700  1
  C  686  1  0.83830000  0.82352900  0.56036800  1
  C  687  1  0.80645200  0.69785200  0.52567300  1
  C  688  1  0.69426500  0.69697000  0.69774000  1
  C  693  1  0.50479300  0.48492600  0.87262100  1
  C  694  1  0.47457200  0.48090200  0.89728900  1
  C  695  1  0.47472700  0.45387000  0.92541200  1
  C  696  1  0.50638700  0.43135700  0.93034100  1
  C  697  1  0.53789200  0.43581300  0.90730300  1
  C  698  1  0.53611800  0.46146200  0.87753900  1
  C  701  1  0.50378300  0.51290500  0.84434800  1
  C  702  1  0.47280400  0.51755800  0.82042400  1
  C  703  1  0.47236400  0.54617900  0.79358800  1
  C  704  1  0.50403200  0.56882700  0.78875600  1
  C  705  1  0.53547300  0.56394200  0.81161500  1
  C  706  1  0.53446600  0.53692900  0.83975700  1
  C  715  1  0.56735200  0.58460600  0.80677400  1
  C  716  1  0.56940000  0.41462400  0.91412800  1
  C  717  1  0.44468600  0.44942200  0.94855300  1
  C  718  1  0.44221500  0.55171400  0.77073500  1
  C  723  1  0.99684600  0.51661700  0.37254700  1
  C  724  1  0.02721200  0.52076000  0.39702300  1
  C  725  1  0.02712900  0.54778100  0.42516100  1
  C  726  1  0.99539900  0.57013600  0.43032400  1
  C  727  1  0.96378000  0.56557800  0.40746700  1
  C  728  1  0.96545500  0.53994900  0.37768500  1
  C  731  1  0.99777100  0.48860700  0.34429500  1
  C  732  1  0.02861800  0.48401900  0.32019700  1
  C  733  1  0.02903700  0.45529800  0.29346300  1
  C  734  1  0.99746100  0.43246700  0.28892100  1
  C  735  1  0.96611100  0.43730800  0.31192400  1
  C  736  1  0.96716200  0.46444000  0.33995000  1
  C  745  1  0.93431500  0.41635300  0.30749000  1
  C  746  1  0.93217000  0.58651800  0.41462300  1
  C  747  1  0.05725400  0.55232600  0.44816600  1
  C  748  1  0.05906600  0.44983400  0.27043600  1
  C  753  1  0.87699600  0.88128600  0.45131900  1
  C  754  1  0.90467600  0.90331100  0.46812800  1
  C  755  1  0.90619500  0.90335800  0.50720600  1
  C  757  1  0.85557600  0.86170100  0.51050700  1
  C  760  1  0.87421400  0.87633400  0.41078500  1
  C  761  1  0.83634100  0.88052200  0.39177500  1
  C  762  1  0.86549000  0.91099400  0.38755600  1
  C  770  1  0.62438900  0.12052100  0.95142000  1
  C  771  1  0.59664800  0.09855700  0.96820900  1
  C  772  1  0.59511200  0.09850000  0.00728882  1
  C  774  1  0.64577200  0.14011500  0.01061880  1
  C  777  1  0.62722900  0.12543800  0.91088700  1
  C  778  1  0.66511900  0.12117700  0.89192500  1
  C  779  1  0.63592700  0.09074700  0.88769400  1
  C  787  1  0.37395700  0.61572600  0.69849000  1
  C  788  1  0.34775000  0.63932900  0.71556900  1
  C  789  1  0.34600900  0.63857900  0.75463800  1
  C  791  1  0.39427800  0.59410700  0.75750600  1
  C  794  1  0.38101500  0.61605500  0.65818300  1
  C  795  1  0.38179800  0.57901200  0.63718700  1
  C  796  1  0.34881300  0.60520000  0.63246400  1
  C  804  1  0.12719400  0.38578700  0.19811500  1
  C  805  1  0.15358100  0.36236100  0.21515300  1
  C  806  1  0.15559900  0.36334600  0.25420000  1
  C  808  1  0.10720500  0.40768200  0.25714500  1
  C  811  1  0.11987000  0.38519200  0.15786200  1
  C  812  1  0.11895100  0.42211300  0.13665500  1
  C  813  1  0.15189100  0.39588300  0.13184800  1
  C  821  1  0.62775400  0.87924900  0.77044500  1
  C  822  1  0.60086300  0.90273000  0.75431500  1
  C  823  1  0.59987000  0.90449600  0.71525100  1
  C  825  1  0.64945600  0.86179800  0.71070900  1
  C  828  1  0.62998800  0.87264200  0.81076800  1
  C  829  1  0.66778700  0.87465400  0.83028600  1
  C  830  1  0.63980800  0.90609000  0.83530100  1
  C  838  1  0.87389900  0.12245500  0.27023100  1
  C  839  1  0.90069000  0.09890300  0.25403400  1
  C  840  1  0.90155600  0.09707000  0.21497600  1
  C  842  1  0.85208600  0.13991100  0.21053400  1
  C  845  1  0.87177600  0.12909700  0.31055700  1
  C  846  1  0.83402100  0.12718800  0.33016300  1
  C  847  1  0.86193400  0.09569000  0.33513400  1
  C  855  1  0.12531300  0.61553800  0.52135300  1
  C  856  1  0.15250300  0.63826600  0.50462100  1
  C  857  1  0.15514900  0.63698200  0.46561800  1
  C  859  1  0.10587400  0.59372800  0.46212000  1
  C  862  1  0.11724000  0.61656500  0.56145600  1
  C  863  1  0.11459100  0.57985100  0.58287300  1
  C  864  1  0.14842900  0.60484300  0.58803000  1
  C  872  1  0.37674500  0.38579500  0.02138280  1
  C  873  1  0.34968500  0.36299500  0.00456282  1
  C  874  1  0.34689200  0.36452200  0.96558300  1
  C  876  1  0.39596900  0.40805600  0.96221700  1
  C  879  1  0.38486500  0.38461300  0.06146980  1
  C  880  1  0.38733700  0.42123300  0.08306680  1
  C  881  1  0.35363700  0.39603800  0.08812880  1
  C  889  1  0.13785500  0.12679800  0.27823000  1
  C  890  1  0.10892600  0.10572800  0.26205800  1
  C  891  1  0.10376100  0.10928300  0.22352300  1
  C  893  1  0.15178300  0.15381300  0.21961200  1
  C  896  1  0.14687000  0.12596600  0.31812900  1
  C  897  1  0.18740700  0.12001200  0.32981400  1
  C  898  1  0.15917800  0.08887300  0.33513700  1
  C  906  1  0.36364800  0.87467600  0.77837400  1
  C  907  1  0.39273900  0.89564500  0.76237400  1
  C  908  1  0.39807800  0.89211900  0.72385900  1
  C  910  1  0.34990900  0.84776000  0.71966300  1
  C  913  1  0.35446200  0.87550100  0.81823500  1
  C  914  1  0.31389800  0.88161000  0.82975100  1
  C  915  1  0.34222800  0.91263000  0.83522000  1
  C  923  1  0.62709600  0.37487600  0.02345780  1
  C  924  1  0.64904900  0.34720700  0.00653082  1
  C  925  1  0.64878100  0.34567700  0.96745400  1
  C  927  1  0.60697400  0.39624900  0.96439000  1
  C  930  1  0.62264800  0.37779600  0.06403280  1
  C  931  1  0.62704000  0.41575600  0.08283180  1
  C  932  1  0.65759000  0.38665000  0.08678380  1
  C  940  1  0.87432500  0.62687700  0.52372200  1
  C  941  1  0.85236900  0.65444600  0.50664000  1
  C  942  1  0.85272800  0.65583000  0.46755800  1
  C  944  1  0.89464300  0.60533000  0.46478400  1
  C  947  1  0.87867600  0.62410100  0.56431800  1
  C  948  1  0.87429400  0.58619400  0.58322900  1
  C  949  1  0.84368900  0.61526400  0.58701100  1
  C  957  1  0.35919200  0.13012600  0.94112400  1
  C  958  1  0.38879200  0.10868800  0.95552500  1
  C  959  1  0.39538500  0.11118300  0.99394600  1
  C  961  1  0.34732100  0.15523500  0.00104582  1
  C  964  1  0.34843100  0.13043300  0.90166500  1
  C  965  1  0.30736100  0.12566100  0.89137500  1
  C  966  1  0.33459800  0.09393800  0.88453300  1
  C  974  1  0.14223600  0.87142200  0.44044100  1
  C  975  1  0.11274200  0.89281900  0.45511200  1
  C  976  1  0.10634900  0.89013100  0.49355600  1
  C  978  1  0.15444100  0.84604200  0.50017800  1
  C  981  1  0.15280100  0.87129100  0.40092600  1
  C  982  1  0.19381300  0.87622900  0.39048900  1
  C  983  1  0.16644400  0.90787500  0.38383200  1
  C  991  1  0.87664100  0.37436400  0.19892600  1
  C  992  1  0.85432500  0.34714400  0.21612200  1
  C  993  1  0.85414500  0.34634900  0.25522200  1
  C  995  1  0.89606800  0.39679400  0.25781500  1
  C  998  1  0.88141600  0.37663400  0.15834600  1
  C  999  1  0.87777100  0.41433800  0.13888100  1
  C  1000  1  0.84672500  0.38571700  0.13529100  1
  C  1008  1  0.62506700  0.62727800  0.69837300  1
  C  1009  1  0.64723600  0.65451500  0.71571600  1
  C  1010  1  0.64733900  0.65518500  0.75482100  1
  C  1012  1  0.60549400  0.60466300  0.75714000  1
  C  1015  1  0.62044200  0.62509700  0.65776800  1
  C  1016  1  0.62423700  0.58744500  0.63823100  1
  C  1017  1  0.65523200  0.61614100  0.63481900  1
  N  244  1  0.88218200  0.88246800  0.16732600  1
  N  246  1  0.85376300  0.86124700  0.11323500  1
  N  256  1  0.93167800  0.91734100  0.08792300  1
  N  257  1  0.83350400  0.83882900  0.16859300  1
  N  261  1  0.61910500  0.11940800  0.66741900  1
  N  263  1  0.64763200  0.14053200  0.61334800  1
  N  273  1  0.56965200  0.08453700  0.58798000  1
  N  274  1  0.66786400  0.16297100  0.66871400  1
  N  278  1  0.36961500  0.61691900  0.41443300  1
  N  280  1  0.39653900  0.59465800  0.36014900  1
  N  290  1  0.33197900  0.66609600  0.33620900  1
  N  291  1  0.42027500  0.57869700  0.41832100  1
  N  295  1  0.13205600  0.38504200  0.91403100  1
  N  297  1  0.10469400  0.40691000  0.85980500  1
  N  307  1  0.16911300  0.33535600  0.83595000  1
  N  308  1  0.08125900  0.42306800  0.91804900  1
  N  312  1  0.62366900  0.88399000  0.33489400  1
  N  314  1  0.65085700  0.85967000  0.38833900  1
  N  324  1  0.57395800  0.91685900  0.41504400  1
  N  325  1  0.67164800  0.83991700  0.33184100  1
  N  329  1  0.87776200  0.11762800  0.83466900  1
  N  331  1  0.85079100  0.14207500  0.88816600  1
  N  341  1  0.92758400  0.08472300  0.91474500  1
  N  342  1  0.82991100  0.16183900  0.83170800  1
  N  346  1  0.13151100  0.61565900  0.08589500  1
  N  348  1  0.10269200  0.59481300  0.13979200  1
  N  358  1  0.16856200  0.66479500  0.16448600  1
  N  359  1  0.07977900  0.57892600  0.08139700  1
  N  363  1  0.37038200  0.38608800  0.58595100  1
  N  365  1  0.39921000  0.40674700  0.63988500  1
  N  375  1  0.33362600  0.33638000  0.66431000  1
  N  376  1  0.42190500  0.42311800  0.58149500  1
  N  380  1  0.12468800  0.13324200  0.84378600  1
  N  382  1  0.15769600  0.15024900  0.89669600  1
  N  392  1  0.08675300  0.08263000  0.92033300  1
  N  393  1  0.17178100  0.17856400  0.84188400  1
  N  397  1  0.37717400  0.86823900  0.34400200  1
  N  399  1  0.34381700  0.85132500  0.39671900  1
  N  409  1  0.41493600  0.91861100  0.42080900  1
  N  410  1  0.32989800  0.82312200  0.34177400  1
  N  414  1  0.62768000  0.36964800  0.58785800  1
  N  416  1  0.60688000  0.39809700  0.64206400  1
  N  426  1  0.66329500  0.32008700  0.66689000  1
  N  427  1  0.58410800  0.41850100  0.58678900  1
  N  431  1  0.87392900  0.63182800  0.08809900  1
  N  433  1  0.89464500  0.60362500  0.14246300  1
  N  443  1  0.83803700  0.68160300  0.16689100  1
  N  444  1  0.91765300  0.58308300  0.08737300  1
  N  448  1  0.37500900  0.13427200  0.65562300  1
  N  450  1  0.33998900  0.15268600  0.60453000  1
  N  460  1  0.40957000  0.08525700  0.57651000  1
  N  461  1  0.32686700  0.17813800  0.66107200  1
  N  465  1  0.12684000  0.86693800  0.15501300  1
  N  467  1  0.16155200  0.84874300  0.10363200  1
  N  477  1  0.09175600  0.91623100  0.07629900  1
  N  478  1  0.17496500  0.82296400  0.15992100  1
  N  482  1  0.87496100  0.37071100  0.91501600  1
  N  484  1  0.89664400  0.39797000  0.86050800  1
  N  494  1  0.83931600  0.32024200  0.83636800  1
  N  495  1  0.91794400  0.41991800  0.91598200  1
  N  499  1  0.62650100  0.63073500  0.41448000  1
  N  501  1  0.60503400  0.60359200  0.35983100  1
  N  511  1  0.66234000  0.68145100  0.33609000  1
  N  512  1  0.58353700  0.58148900  0.41512400  1
  N  756  1  0.88218200  0.88246800  0.52713000  1
  N  758  1  0.85376300  0.86124700  0.47303900  1
  N  768  1  0.93167800  0.91734100  0.44772700  1
  N  769  1  0.83350400  0.83882900  0.52839700  1
  N  773  1  0.61910500  0.11940800  0.02722280  1
  N  775  1  0.64763200  0.14053200  0.97315200  1
  N  785  1  0.56965200  0.08453700  0.94778400  1
  N  786  1  0.66786400  0.16297100  0.02851780  1
  N  790  1  0.36961500  0.61691900  0.77423700  1
  N  792  1  0.39653900  0.59465800  0.71995300  1
  N  802  1  0.33197900  0.66609600  0.69601300  1
  N  803  1  0.42027500  0.57869700  0.77812500  1
  N  807  1  0.13205600  0.38504200  0.27383500  1
  N  809  1  0.10469400  0.40691000  0.21960900  1
  N  819  1  0.16911300  0.33535600  0.19575400  1
  N  820  1  0.08125900  0.42306800  0.27785300  1
  N  824  1  0.62366900  0.88399000  0.69469800  1
  N  826  1  0.65085700  0.85967000  0.74814300  1
  N  836  1  0.57395800  0.91685900  0.77484800  1
  N  837  1  0.67164800  0.83991700  0.69164500  1
  N  841  1  0.87776200  0.11762800  0.19447300  1
  N  843  1  0.85079100  0.14207500  0.24797000  1
  N  853  1  0.92758400  0.08472300  0.27454900  1
  N  854  1  0.82991100  0.16183900  0.19151200  1
  N  858  1  0.13151100  0.61565900  0.44569900  1
  N  860  1  0.10269200  0.59481300  0.49959600  1
  N  870  1  0.16856200  0.66479500  0.52429000  1
  N  871  1  0.07977900  0.57892600  0.44120100  1
  N  875  1  0.37038200  0.38608800  0.94575500  1
  N  877  1  0.39921000  0.40674700  0.99968900  1
  N  887  1  0.33362600  0.33638000  0.02411380  1
  N  888  1  0.42190500  0.42311800  0.94129900  1
  N  892  1  0.12468800  0.13324200  0.20359000  1
  N  894  1  0.15769600  0.15024900  0.25650000  1
  N  904  1  0.08675300  0.08263000  0.28013700  1
  N  905  1  0.17178100  0.17856400  0.20168800  1
  N  909  1  0.37717400  0.86823900  0.70380600  1
  N  911  1  0.34381700  0.85132500  0.75652300  1
  N  921  1  0.41493600  0.91861100  0.78061300  1
  N  922  1  0.32989800  0.82312200  0.70157800  1
  N  926  1  0.62768000  0.36964800  0.94766200  1
  N  928  1  0.60688000  0.39809700  0.00186782  1
  N  938  1  0.66329500  0.32008700  0.02669380  1
  N  939  1  0.58410800  0.41850100  0.94659300  1
  N  943  1  0.87392900  0.63182800  0.44790300  1
  N  945  1  0.89464500  0.60362500  0.50226700  1
  N  955  1  0.83803700  0.68160300  0.52669500  1
  N  956  1  0.91765300  0.58308300  0.44717700  1
  N  960  1  0.37500900  0.13427200  0.01542680  1
  N  962  1  0.33998900  0.15268600  0.96433400  1
  N  972  1  0.40957000  0.08525700  0.93631400  1
  N  973  1  0.32686700  0.17813800  0.02087580  1
  N  977  1  0.12684000  0.86693800  0.51481700  1
  N  979  1  0.16155200  0.84874300  0.46343600  1
  N  989  1  0.09175600  0.91623100  0.43610300  1
  N  990  1  0.17496500  0.82296400  0.51972500  1
  N  994  1  0.87496100  0.37071100  0.27482000  1
  N  996  1  0.89664400  0.39797000  0.22031200  1
  N  1006  1  0.83931600  0.32024200  0.19617200  1
  N  1007  1  0.91794400  0.41991800  0.27578600  1
  N  1011  1  0.62650100  0.63073500  0.77428400  1
  N  1013  1  0.60503400  0.60359200  0.71963500  1
  N  1023  1  0.66234000  0.68145100  0.69589400  1
  N  1024  1  0.58353700  0.58148900  0.77492800  1
  O  8  1  0.01175600  0.90263600  0.09630700  1
  O  15  1  0.00585100  0.09842300  0.90628600  1
  O  17  1  0.06712500  0.96203700  0.99071600  1
  O  18  1  0.94561300  0.99482600  0.96480200  1
  O  38  1  0.48957300  0.09914700  0.59629100  1
  O  45  1  0.49578100  0.90279900  0.40684600  1
  O  47  1  0.43411100  0.03938400  0.49094900  1
  O  48  1  0.55566600  0.00687000  0.46487700  1
  O  68  1  0.34289500  0.74592800  0.35163600  1
  O  75  1  0.15810800  0.74414200  0.15012000  1
  O  77  1  0.28724800  0.80610600  0.24674800  1
  O  78  1  0.25655800  0.68256900  0.21507900  1
  O  98  1  0.15873600  0.25583200  0.85120900  1
  O  105  1  0.34449200  0.25699800  0.65060700  1
  O  107  1  0.21483400  0.19520300  0.74683500  1
  O  108  1  0.24529200  0.31863400  0.71438700  1
  O  128  1  0.65191100  0.24069800  0.65706700  1
  O  135  1  0.85045300  0.24097100  0.84448900  1
  O  137  1  0.71363400  0.18272600  0.75973600  1
  O  138  1  0.74766600  0.30500000  0.78881300  1
  O  158  1  0.84946200  0.76105300  0.15685800  1
  O  165  1  0.65121600  0.76079300  0.34458900  1
  O  167  1  0.78788600  0.81903100  0.25961200  1
  O  168  1  0.75386800  0.69677300  0.28866500  1
  O  188  1  0.50664500  0.40577500  0.59848300  1
  O  195  1  0.50409300  0.59633500  0.40292700  1
  O  197  1  0.56534500  0.46364800  0.49386900  1
  O  198  1  0.44297300  0.49450500  0.46304800  1
  O  218  1  0.99518800  0.59566000  0.09852100  1
  O  225  1  0.99738000  0.40484000  0.90322300  1
  O  227  1  0.93603700  0.53761300  0.99426700  1
  O  228  1  0.05836200  0.50720900  0.96256800  1
  O  520  1  0.01175600  0.90263600  0.45611100  1
  O  527  1  0.00585100  0.09842300  0.26609000  1
  O  529  1  0.06712500  0.96203700  0.35052000  1
  O  530  1  0.94561300  0.99482600  0.32460600  1
  O  550  1  0.48957300  0.09914700  0.95609500  1
  O  557  1  0.49578100  0.90279900  0.76665000  1
  O  559  1  0.43411100  0.03938400  0.85075300  1
  O  560  1  0.55566600  0.00687000  0.82468100  1
  O  580  1  0.34289500  0.74592800  0.71144000  1
  O  587  1  0.15810800  0.74414200  0.50992400  1
  O  589  1  0.28724800  0.80610600  0.60655200  1
  O  590  1  0.25655800  0.68256900  0.57488300  1
  O  610  1  0.15873600  0.25583200  0.21101300  1
  O  617  1  0.34449200  0.25699800  0.01041080  1
  O  619  1  0.21483400  0.19520300  0.10663900  1
  O  620  1  0.24529200  0.31863400  0.07419080  1
  O  640  1  0.65191100  0.24069800  0.01687080  1
  O  647  1  0.85045300  0.24097100  0.20429300  1
  O  649  1  0.71363400  0.18272600  0.11954000  1
  O  650  1  0.74766600  0.30500000  0.14861700  1
  O  670  1  0.84946200  0.76105300  0.51666200  1
  O  677  1  0.65121600  0.76079300  0.70439300  1
  O  679  1  0.78788600  0.81903100  0.61941600  1
  O  680  1  0.75386800  0.69677300  0.64846900  1
  O  700  1  0.50664500  0.40577500  0.95828700  1
  O  707  1  0.50409300  0.59633500  0.76273100  1
  O  709  1  0.56534500  0.46364800  0.85367300  1
  O  710  1  0.44297300  0.49450500  0.82285200  1
  O  730  1  0.99518800  0.59566000  0.45832500  1
  O  737  1  0.99738000  0.40484000  0.26302700  1
  O  739  1  0.93603700  0.53761300  0.35407100  1
  O  740  1  0.05836200  0.50720900  0.32237200  1
