# generated using pymatgen
data_H15C18(N2O)2
_symmetry_space_group_name_H-M   'P 1'
_cell_length_a   28.55380000
_cell_length_b   56.71025042
_cell_length_c   56.71025042
_cell_angle_alpha   86.36622094
_cell_angle_beta   75.41880903
_cell_angle_gamma   75.41880903
_symmetry_Int_Tables_number   1
_chemical_formula_structural   H15C18(N2O)2
_chemical_formula_sum   'H480 C576 N128 O64'
_cell_volume   86010.40252236
_cell_formula_units_Z   32
loop_
 _symmetry_equiv_pos_site_id
 _symmetry_equiv_pos_as_xyz
  1  'x, y, z'
loop_
 _atom_site_type_symbol
 _atom_site_label
 _atom_site_symmetry_multiplicity
 _atom_site_fract_x
 _atom_site_fract_y
 _atom_site_fract_z
 _atom_site_occupancy
  C  1  1  0.85390350  0.91191050  0.92039450  1
  C  2  1  0.87956000  0.88704000  0.91849600  1
  C  3  1  0.92282950  0.87812900  0.92722600  1
  C  4  1  0.93830700  0.89442250  0.93981850  1
  C  5  1  0.91275750  0.91943150  0.94273450  1
  C  6  1  0.87151800  0.92812650  0.93210550  1
  C  9  1  0.81102050  0.92002450  0.91058750  1
  C  10  1  0.81271000  0.91503700  0.88612600  1
  C  11  1  0.76909050  0.92184900  0.87716900  1
  C  12  1  0.72403000  0.93502000  0.89261600  1
  C  13  1  0.72200400  0.94125800  0.91673400  1
  C  14  1  0.76537300  0.93297750  0.92556450  1
  C  23  1  0.67415350  0.95603900  0.93182200  1
  C  26  1  0.77113800  0.91543900  0.85172300  1
  C  29  1  0.95231800  0.85228500  0.92395500  1
  C  32  1  0.93201150  0.93502150  0.95649150  1
  C  35  1  0.68433450  0.59185000  0.57960600  1
  C  36  1  0.68320750  0.61672100  0.58150700  1
  C  37  1  0.72628900  0.62563800  0.57278100  1
  C  38  1  0.77065750  0.60935100  0.56018300  1
  C  39  1  0.77304100  0.58434300  0.55725600  1
  C  40  1  0.72987950  0.57563900  0.56788900  1
  C  43  1  0.63976900  0.58372800  0.58941800  1
  C  44  1  0.61202900  0.58870500  0.61388400  1
  C  45  1  0.56627400  0.58188700  0.62284700  1
  C  46  1  0.54982250  0.56871500  0.60740300  1
  C  47  1  0.57813900  0.56248550  0.58328050  1
  C  48  1  0.62204850  0.57077400  0.57444400  1
  C  57  1  0.56014650  0.54770900  0.56819400  1
  C  60  1  0.53647650  0.58829200  0.64829500  1
  C  63  1  0.72665000  0.65148200  0.57606300  1
  C  66  1  0.82165200  0.56875650  0.54350350  1
  C  69  1  0.76395100  0.92226700  0.58995100  1
  C  70  1  0.76473100  0.92037150  0.61482250  1
  C  71  1  0.79908950  0.92910150  0.62373250  1
  C  72  1  0.83086100  0.94169400  0.60743800  1
  C  73  1  0.83032300  0.94460800  0.58243000  1
  C  74  1  0.79777650  0.93398000  0.57373500  1
  C  77  1  0.72918100  0.91246000  0.58183600  1
  C  78  1  0.72589600  0.88799600  0.58681500  1
  C  79  1  0.68909700  0.87903700  0.57999900  1
  C  80  1  0.65720550  0.89448400  0.56682700  1
  C  81  1  0.66140600  0.91860550  0.56059650  1
  C  82  1  0.69648550  0.92743750  0.56888550  1
  C  91  1  0.62833300  0.93369350  0.54581850  1
  C  94  1  0.68474450  0.85358900  0.58640100  1
  C  97  1  0.80273850  0.92583050  0.64957550  1
  C  100  1  0.86516700  0.95836500  0.56683900  1
  C  103  1  0.27431400  0.58148200  0.91003500  1
  C  104  1  0.29807200  0.58338500  0.88516600  1
  C  105  1  0.35007150  0.57465500  0.87625600  1
  C  106  1  0.37813750  0.56205600  0.89254800  1
  C  107  1  0.35550150  0.55913550  0.91755550  1
  C  108  1  0.30363350  0.56976400  0.92625100  1
  C  111  1  0.22162300  0.59129200  0.91815000  1
  C  112  1  0.19886050  0.61575850  0.91317050  1
  C  113  1  0.14628750  0.62472150  0.91998550  1
  C  114  1  0.11666500  0.60927500  0.93315500  1
  C  115  1  0.13874800  0.58515400  0.93938700  1
  C  116  1  0.19094750  0.57631850  0.93110050  1
  C  125  1  0.10597800  0.57006900  0.95416400  1
  C  128  1  0.12289750  0.65017000  0.91358200  1
  C  131  1  0.37629200  0.57793650  0.85041450  1
  C  134  1  0.38850850  0.54537150  0.93314650  1
  C  137  1  0.14609800  0.09185850  0.07960150  1
  C  138  1  0.12044950  0.11673000  0.08150100  1
  C  139  1  0.07718200  0.12564550  0.07276950  1
  C  140  1  0.06169650  0.10935400  0.06017700  1
  C  141  1  0.08724100  0.08434400  0.05726100  1
  C  142  1  0.12848000  0.07564500  0.06789000  1
  C  145  1  0.18897950  0.08374000  0.08941000  1
  C  146  1  0.18728750  0.08872650  0.11387250  1
  C  147  1  0.23093017  0.08191150  0.12283050  1
  C  148  1  0.27596550  0.06874000  0.10738400  1
  C  149  1  0.27799500  0.06250250  0.08326550  1
  C  150  1  0.23462500  0.07078750  0.07443350  1
  C  159  1  0.32584450  0.04772300  0.06817800  1
  C  162  1  0.22885750  0.08832050  0.14827650  1
  C  165  1  0.04769850  0.15149050  0.07604250  1
  C  168  1  0.06797600  0.06875700  0.04350600  1
  C  171  1  0.31566150  0.41191950  0.42039350  1
  C  172  1  0.31678050  0.38704950  0.41849450  1
  C  173  1  0.27369700  0.37813500  0.42722300  1
  C  174  1  0.22933450  0.39442450  0.43982350  1
  C  175  1  0.22695650  0.41943150  0.44274850  1
  C  176  1  0.27012150  0.42813250  0.43211150  1
  C  179  1  0.36023100  0.42003950  0.41058050  1
  C  180  1  0.38796950  0.41506050  0.38611450  1
  C  181  1  0.43372700  0.42187500  0.37715100  1
  C  182  1  0.45018100  0.43504600  0.39259500  1
  C  183  1  0.42186650  0.44127850  0.41671650  1
  C  184  1  0.37795500  0.43299150  0.42555450  1
  C  193  1  0.43986500  0.45605300  0.43180200  1
  C  196  1  0.46352400  0.41546700  0.35170400  1
  C  199  1  0.27333000  0.35229150  0.42394250  1
  C  202  1  0.17835300  0.43502050  0.45650550  1
  C  205  1  0.23604900  0.08150150  0.41004750  1
  C  206  1  0.23525950  0.08339600  0.38517700  1
  C  207  1  0.20089750  0.07466500  0.37627100  1
  C  208  1  0.16912800  0.06207350  0.39256750  1
  C  209  1  0.16967400  0.05916100  0.41757500  1
  C  210  1  0.20222500  0.06978900  0.42626700  1
  C  213  1  0.27082150  0.09130800  0.41815900  1
  C  214  1  0.27410350  0.11577300  0.41317900  1
  C  215  1  0.31090300  0.12473350  0.41999450  1
  C  216  1  0.34279750  0.10928600  0.43316500  1
  C  217  1  0.33860000  0.08516500  0.43939400  1
  C  218  1  0.30351900  0.07633150  0.43110950  1
  C  227  1  0.37167550  0.07007600  0.45417300  1
  C  230  1  0.31525100  0.15018200  0.41359100  1
  C  233  1  0.19724300  0.07793600  0.35042800  1
  C  236  1  0.13483750  0.04540200  0.43316800  1
  C  239  1  0.72569500  0.42228350  0.08996450  1
  C  240  1  0.70194400  0.42037900  0.11483500  1
  C  241  1  0.64994550  0.42910650  0.12374950  1
  C  242  1  0.62187000  0.44170600  0.10746000  1
  C  243  1  0.64449700  0.44462600  0.08245100  1
  C  244  1  0.69636650  0.43399950  0.07375250  1
  C  247  1  0.77838400  0.41247500  0.08184600  1
  C  248  1  0.80115250  0.38800950  0.08682350  1
  C  249  1  0.85372650  0.37904900  0.08000400  1
  C  250  1  0.88334200  0.39449650  0.06683450  1
  C  251  1  0.86125400  0.41861850  0.06060450  1
  C  252  1  0.80905450  0.42745100  0.06889400  1
  C  261  1  0.89401750  0.43370550  0.04582450  1
  C  264  1  0.87712450  0.35359950  0.08640550  1
  C  267  1  0.62373350  0.42582300  0.14959200  1
  C  270  1  0.61147950  0.45838550  0.06686550  1
  C  545  1  0.92759650  0.97361250  0.97398550  1
  C  546  1  0.94992700  0.99139500  0.96061300  1
  C  547  1  0.97862650  0.00292650  0.97070450  1
  C  548  1  0.98509300  0.99669100  0.99447800  1
  C  550  1  0.93359600  0.96843150  0.99787750  1
  C  551  1  0.01485850  0.00709100  0.00552600  1
  C  552  1  0.02131850  0.00085750  0.02930150  1
  C  553  1  0.05000950  0.01239150  0.03939350  1
  C  554  1  0.07235300  0.03017000  0.02601800  1
  C  555  1  0.06633450  0.03535850  0.00213150  1
  C  567  1  0.87332750  0.53016800  0.52600300  1
  C  568  1  0.90004650  0.51237150  0.53937450  1
  C  569  1  0.95037200  0.50084000  0.52929100  1
  C  570  1  0.97439600  0.50708150  0.50552350  1
  C  572  1  0.89806450  0.53535800  0.50212000  1
  C  573  1  0.02561850  0.49668350  0.49448650  1
  C  574  1  0.04964050  0.50292150  0.47071550  1
  C  575  1  0.09996200  0.49138850  0.46063150  1
  C  576  1  0.12669750  0.47361250  0.47401250  1
  C  577  1  0.10195700  0.46841500  0.49789300  1
  C  589  1  0.89934400  0.97586600  0.52825300  1
  C  590  1  0.93947600  0.96249050  0.51048050  1
  C  591  1  0.97971000  0.97258400  0.49895900  1
  C  592  1  0.97992650  0.99635900  0.50519900  1
  C  594  1  0.90015950  0.99975450  0.53344450  1
  C  595  1  0.02010350  0.00740450  0.49481450  1
  C  596  1  0.02032250  0.03117900  0.50105400  1
  C  597  1  0.06055900  0.04127050  0.48953650  1
  C  598  1  0.10068900  0.02789850  0.47175950  1
  C  599  1  0.09987950  0.00400650  0.46657450  1
  C  611  1  0.40155550  0.52786550  0.97173950  1
  C  612  1  0.41050050  0.54124350  0.98952250  1
  C  613  1  0.44930250  0.53116200  0.00104900  1
  C  614  1  0.47956450  0.50739350  0.99480850  1
  C  616  1  0.43147350  0.50398100  0.96655100  1
  C  617  1  0.52040150  0.49635950  0.00519750  1
  C  618  1  0.55066600  0.47259100  0.99895700  1
  C  619  1  0.58947100  0.46250950  0.01048150  1
  C  620  1  0.59839700  0.47588250  0.02827450  1
  C  621  1  0.56847550  0.49976600  0.03346500  1
  C  633  1  0.56871050  0.52878200  0.52976300  1
  C  634  1  0.54918550  0.54147400  0.51083800  1
  C  635  1  0.52197800  0.53102300  0.49871600  1
  C  636  1  0.51421650  0.50755750  0.50549850  1
  C  638  1  0.56148850  0.50516850  0.53552050  1
  C  639  1  0.48580750  0.49620300  0.49449700  1
  C  640  1  0.47804200  0.47273800  0.50127900  1
  C  641  1  0.45084850  0.46228400  0.48915300  1
  C  642  1  0.43131250  0.47497850  0.47023150  1
  C  643  1  0.43854700  0.49859000  0.46447000  1
  C  655  1  0.62537450  0.97497900  0.97024900  1
  C  656  1  0.59961800  0.96229100  0.98917800  1
  C  657  1  0.54983550  0.97274550  0.00129650  1
  C  658  1  0.52539200  0.99620700  0.99450600  1
  C  660  1  0.60030300  0.99859100  0.96448600  1
  C  661  1  0.47462100  0.00756050  0.00549950  1
  C  662  1  0.45017750  0.03102500  0.99871200  1
  C  663  1  0.40039700  0.04148050  0.01083150  1
  C  664  1  0.37462800  0.02878600  0.02975300  1
  C  665  1  0.39971150  0.00517650  0.03551950  1
  C  677  1  0.59848850  0.97212650  0.52688850  1
  C  678  1  0.56003950  0.99105300  0.53958300  1
  C  679  1  0.52070250  0.00317050  0.52913550  1
  C  680  1  0.51971550  0.99638850  0.50567050  1
  C  682  1  0.59701450  0.96636700  0.50327800  1
  C  683  1  0.48029250  0.00738350  0.49432250  1
  C  684  1  0.47930350  0.00059950  0.47085850  1
  C  685  1  0.43996650  0.01271850  0.46041050  1
  C  686  1  0.40152000  0.03164450  0.47310450  1
  C  687  1  0.40299400  0.03740500  0.49671500  1
  C  699  1  0.09561000  0.53164000  0.97309500  1
  C  700  1  0.08877000  0.51271850  0.96040150  1
  C  701  1  0.05111800  0.50059350  0.97085750  1
  C  702  1  0.01987950  0.50738350  0.99431950  1
  C  704  1  0.06477500  0.53740150  0.99670750  1
  C  705  1  0.98009850  0.49639250  0.00567050  1
  C  706  1  0.94886650  0.50318000  0.02913400  1
  C  707  1  0.91120050  0.49106250  0.03958650  1
  C  708  1  0.90437050  0.47213650  0.02689550  1
  C  709  1  0.93519900  0.46637750  0.00328150  1
  C  897  1  0.79632900  0.92677400  0.80933300  1
  C  898  1  0.83672100  0.91231650  0.79250750  1
  C  899  1  0.83248700  0.90848200  0.76893200  1
  C  900  1  0.78750800  0.91934650  0.76199150  1
  C  902  1  0.75245050  0.93759600  0.80163100  1
  C  903  1  0.78061600  0.91639350  0.73843650  1
  C  904  1  0.73603350  0.92784700  0.73138900  1
  C  905  1  0.73262200  0.92524900  0.70742000  1
  C  906  1  0.77332200  0.91131700  0.69033400  1
  C  907  1  0.81644800  0.89948300  0.69824500  1
  C  919  1  0.53063200  0.57695550  0.69068250  1
  C  920  1  0.53975000  0.59141250  0.70750550  1
  C  921  1  0.50809350  0.59525850  0.73107950  1
  C  922  1  0.46703150  0.58439950  0.73802150  1
  C  924  1  0.48986550  0.56613950  0.69838750  1
  C  925  1  0.43361050  0.58737200  0.76157100  1
  C  926  1  0.39341850  0.57592950  0.76861650  1
  C  927  1  0.36342450  0.57854100  0.79258300  1
  C  928  1  0.37309500  0.59248200  0.80966500  1
  C  929  1  0.41232000  0.60430300  0.80175400  1
  C  941  1  0.72128250  0.81120050  0.57506350  1
  C  942  1  0.74722100  0.79437700  0.58952000  1
  C  943  1  0.73911600  0.77080900  0.59337700  1
  C  944  1  0.70499400  0.76386800  0.58251800  1
  C  946  1  0.68821950  0.80349900  0.56424600  1
  C  947  1  0.69509950  0.74032350  0.58550050  1
  C  948  1  0.66195300  0.73327750  0.57405750  1
  C  949  1  0.65590350  0.70931550  0.57667950  1
  C  950  1  0.68267800  0.69223000  0.59060800  1
  C  951  1  0.71396500  0.70014450  0.60244450  1
  C  963  1  0.10570600  0.69255600  0.92492700  1
  C  964  1  0.12926800  0.70938000  0.91046200  1
  C  965  1  0.10145150  0.73295200  0.90662200  1
  C  966  1  0.04953050  0.73988900  0.91748200  1
  C  968  1  0.05412750  0.70025650  0.93575050  1
  C  969  1  0.01907100  0.76343750  0.91451450  1
  C  970  1  0.96743600  0.77047850  0.92595950  1
  C  971  1  0.94004000  0.79444150  0.92334450  1
  C  972  1  0.96366050  0.81153050  0.90942750  1
  C  973  1  0.01469700  0.80362200  0.89758800  1
  C  985  1  0.20365800  0.07698650  0.19066850  1
  C  986  1  0.16326500  0.09144450  0.20749150  1
  C  987  1  0.16749700  0.09527900  0.23106800  1
  C  988  1  0.21247300  0.08441400  0.23801000  1
  C  990  1  0.24753500  0.06616450  0.19837050  1
  C  991  1  0.21936400  0.08736650  0.26156550  1
  C  992  1  0.26394800  0.07591550  0.26861250  1
  C  993  1  0.26735700  0.07851500  0.29258300  1
  C  994  1  0.22665600  0.09244450  0.30966750  1
  C  995  1  0.18352750  0.10427750  0.30175650  1
  C  1007  1  0.46937900  0.42680400  0.30931500  1
  C  1008  1  0.46026900  0.41234500  0.29249100  1
  C  1009  1  0.49192950  0.40849850  0.26891950  1
  C  1010  1  0.53299100  0.41935750  0.26197950  1
  C  1012  1  0.51014500  0.43762050  0.30161350  1
  C  1013  1  0.56641750  0.41638500  0.23843200  1
  C  1014  1  0.60660500  0.42783200  0.23138600  1
  C  1015  1  0.63660150  0.42522100  0.20742100  1
  C  1016  1  0.62693950  0.41127550  0.19033950  1
  C  1017  1  0.58772200  0.39945100  0.19825000  1
  C  1029  1  0.27870950  0.19256850  0.42493450  1
  C  1030  1  0.25276400  0.20939350  0.41048050  1
  C  1031  1  0.26086450  0.23296050  0.40662650  1
  C  1032  1  0.29498750  0.23990300  0.41748300  1
  C  1034  1  0.31177550  0.20027100  0.43575000  1
  C  1035  1  0.30487650  0.26344900  0.41450300  1
  C  1036  1  0.33802950  0.27049350  0.42594250  1
  C  1037  1  0.34407700  0.29445600  0.42332100  1
  C  1038  1  0.31729300  0.31154400  0.40939700  1
  C  1039  1  0.28600000  0.30362950  0.39756350  1
  C  1051  1  0.89430850  0.31121300  0.07506400  1
  C  1052  1  0.87074700  0.29439050  0.08953050  1
  C  1053  1  0.89856900  0.27081950  0.09337550  1
  C  1054  1  0.95048800  0.26388200  0.08251300  1
  C  1056  1  0.94588600  0.30351350  0.06423850  1
  C  1057  1  0.98094900  0.24033450  0.08548350  1
  C  1058  1  0.03258400  0.23329400  0.07403600  1
  C  1059  1  0.05997950  0.20933100  0.07665200  1
  C  1060  1  0.03636150  0.19224200  0.09057200  1
  C  1061  1  0.98532600  0.20015200  0.10241300  1
  C  1249  1  0.85390350  0.73153850  0.10076650  1
  C  1250  1  0.87956000  0.70666800  0.09886800  1
  C  1251  1  0.92282950  0.69775700  0.10759800  1
  C  1252  1  0.93830700  0.71405050  0.12019050  1
  C  1253  1  0.91275750  0.73905950  0.12310650  1
  C  1254  1  0.87151800  0.74775450  0.11247750  1
  C  1257  1  0.81102050  0.73965250  0.09095950  1
  C  1258  1  0.81271000  0.73466500  0.06649800  1
  C  1259  1  0.76909050  0.74147700  0.05754100  1
  C  1260  1  0.72403000  0.75464800  0.07298800  1
  C  1261  1  0.72200400  0.76088600  0.09710600  1
  C  1262  1  0.76537300  0.75260550  0.10593650  1
  C  1271  1  0.67415350  0.77566700  0.11219400  1
  C  1274  1  0.77113800  0.73506700  0.03209500  1
  C  1277  1  0.95231800  0.67191300  0.10432700  1
  C  1280  1  0.93201150  0.75464950  0.13686350  1
  C  1283  1  0.68433450  0.41147800  0.75997800  1
  C  1284  1  0.68320750  0.43634900  0.76187900  1
  C  1285  1  0.72628900  0.44526600  0.75315300  1
  C  1286  1  0.77065750  0.42897900  0.74055500  1
  C  1287  1  0.77304100  0.40397100  0.73762800  1
  C  1288  1  0.72987950  0.39526700  0.74826100  1
  C  1291  1  0.63976900  0.40335600  0.76979000  1
  C  1292  1  0.61202900  0.40833300  0.79425600  1
  C  1293  1  0.56627400  0.40151500  0.80321900  1
  C  1294  1  0.54982250  0.38834300  0.78777500  1
  C  1295  1  0.57813900  0.38211350  0.76365250  1
  C  1296  1  0.62204850  0.39040200  0.75481600  1
  C  1305  1  0.56014650  0.36733700  0.74856600  1
  C  1308  1  0.53647650  0.40792000  0.82866700  1
  C  1311  1  0.72665000  0.47111000  0.75643500  1
  C  1314  1  0.82165200  0.38838450  0.72387550  1
  C  1317  1  0.76395100  0.74189490  0.77032310  1
  C  1318  1  0.76473100  0.73999940  0.79519460  1
  C  1319  1  0.79908950  0.74872940  0.80410460  1
  C  1320  1  0.83086100  0.76132190  0.78781010  1
  C  1321  1  0.83032300  0.76423600  0.76280200  1
  C  1322  1  0.79777650  0.75360792  0.75410708  1
  C  1325  1  0.72918100  0.73208790  0.76220810  1
  C  1326  1  0.72589600  0.70762390  0.76718710  1
  C  1327  1  0.68909700  0.69866490  0.76037110  1
  C  1328  1  0.65720550  0.71411190  0.74719910  1
  C  1329  1  0.66140600  0.73823342  0.74096858  1
  C  1330  1  0.69648550  0.74706542  0.74925758  1
  C  1339  1  0.62833300  0.75332150  0.72619050  1
  C  1342  1  0.68474450  0.67321690  0.76677310  1
  C  1345  1  0.80273850  0.74545840  0.82994760  1
  C  1348  1  0.86516700  0.77799300  0.74721100  1
  C  1351  1  0.27431400  0.40111000  0.09040700  1
  C  1352  1  0.29807200  0.40301300  0.06553800  1
  C  1353  1  0.35007150  0.39428300  0.05662800  1
  C  1354  1  0.37813750  0.38168400  0.07292000  1
  C  1355  1  0.35550150  0.37876350  0.09792750  1
  C  1356  1  0.30363350  0.38939200  0.10662300  1
  C  1359  1  0.22162300  0.41092000  0.09852200  1
  C  1360  1  0.19886050  0.43538650  0.09354250  1
  C  1361  1  0.14628750  0.44434950  0.10035750  1
  C  1362  1  0.11666500  0.42890300  0.11352700  1
  C  1363  1  0.13874800  0.40478200  0.11975900  1
  C  1364  1  0.19094750  0.39594650  0.11147250  1
  C  1373  1  0.10597800  0.38969700  0.13453600  1
  C  1376  1  0.12289750  0.46979800  0.09395400  1
  C  1379  1  0.37629200  0.39756450  0.03078650  1
  C  1382  1  0.38850850  0.36499950  0.11351850  1
  C  1385  1  0.14609800  0.91148650  0.25997350  1
  C  1386  1  0.12044950  0.93635800  0.26187300  1
  C  1387  1  0.07718200  0.94527350  0.25314150  1
  C  1388  1  0.06169650  0.92898200  0.24054900  1
  C  1389  1  0.08724100  0.90397200  0.23763300  1
  C  1390  1  0.12848000  0.89527300  0.24826200  1
  C  1393  1  0.18897950  0.90336800  0.26978200  1
  C  1394  1  0.18728750  0.90835450  0.29424450  1
  C  1395  1  0.23093017  0.90153950  0.30320250  1
  C  1396  1  0.27596550  0.88836800  0.28775600  1
  C  1397  1  0.27799500  0.88213050  0.26363750  1
  C  1398  1  0.23462500  0.89041550  0.25480550  1
  C  1407  1  0.32584450  0.86735100  0.24855000  1
  C  1410  1  0.22885750  0.90794850  0.32864850  1
  C  1413  1  0.04769850  0.97111850  0.25641450  1
  C  1416  1  0.06797600  0.88838500  0.22387800  1
  C  1419  1  0.31566150  0.23154750  0.60076550  1
  C  1420  1  0.31678050  0.20667750  0.59886650  1
  C  1421  1  0.27369700  0.19776300  0.60759500  1
  C  1422  1  0.22933450  0.21405250  0.62019550  1
  C  1423  1  0.22695650  0.23905950  0.62312050  1
  C  1424  1  0.27012150  0.24776050  0.61248350  1
  C  1427  1  0.36023100  0.23966750  0.59095250  1
  C  1428  1  0.38796950  0.23468850  0.56648650  1
  C  1429  1  0.43372700  0.24150300  0.55752300  1
  C  1430  1  0.45018100  0.25467400  0.57296700  1
  C  1431  1  0.42186650  0.26090650  0.59708850  1
  C  1432  1  0.37795500  0.25261950  0.60592650  1
  C  1441  1  0.43986500  0.27568100  0.61217400  1
  C  1444  1  0.46352400  0.23509500  0.53207600  1
  C  1447  1  0.27333000  0.17191950  0.60431450  1
  C  1450  1  0.17835300  0.25464850  0.63687750  1
  C  1453  1  0.23604900  0.90112950  0.59041950  1
  C  1454  1  0.23525950  0.90302400  0.56554900  1
  C  1455  1  0.20089750  0.89429300  0.55664300  1
  C  1456  1  0.16912800  0.88170150  0.57293950  1
  C  1457  1  0.16967400  0.87878900  0.59794700  1
  C  1458  1  0.20222500  0.88941700  0.60663900  1
  C  1461  1  0.27082150  0.91093600  0.59853100  1
  C  1462  1  0.27410350  0.93540100  0.59355100  1
  C  1463  1  0.31090300  0.94436150  0.60036650  1
  C  1464  1  0.34279750  0.92891400  0.61353700  1
  C  1465  1  0.33860000  0.90479300  0.61976600  1
  C  1466  1  0.30351900  0.89595950  0.61148150  1
  C  1475  1  0.37167550  0.88970400  0.63454500  1
  C  1478  1  0.31525100  0.96981000  0.59396300  1
  C  1481  1  0.19724300  0.89756400  0.53080000  1
  C  1484  1  0.13483750  0.86503000  0.61354000  1
  C  1487  1  0.72569500  0.24191140  0.27033660  1
  C  1488  1  0.70194400  0.24000690  0.29520710  1
  C  1489  1  0.64994550  0.24873440  0.30412160  1
  C  1490  1  0.62187000  0.26133390  0.28783210  1
  C  1491  1  0.64449700  0.26425400  0.26282300  1
  C  1492  1  0.69636650  0.25362742  0.25412458  1
  C  1495  1  0.77838400  0.23210290  0.26221810  1
  C  1496  1  0.80115250  0.20763740  0.26719560  1
  C  1497  1  0.85372650  0.19867690  0.26037610  1
  C  1498  1  0.88334200  0.21412440  0.24720660  1
  C  1499  1  0.86125400  0.23824642  0.24097658  1
  C  1500  1  0.80905450  0.24707892  0.24926608  1
  C  1509  1  0.89401750  0.25333350  0.22619650  1
  C  1512  1  0.87712450  0.17322740  0.26677760  1
  C  1515  1  0.62373350  0.24545090  0.32996410  1
  C  1518  1  0.61147950  0.27801350  0.24723750  1
  C  1793  1  0.92759650  0.79324050  0.15435750  1
  C  1794  1  0.94992700  0.81102300  0.14098500  1
  C  1795  1  0.97862650  0.82255450  0.15107650  1
  C  1796  1  0.98509300  0.81631900  0.17485000  1
  C  1798  1  0.93359600  0.78805950  0.17824950  1
  C  1799  1  0.01485850  0.82671900  0.18589800  1
  C  1800  1  0.02131850  0.82048550  0.20967350  1
  C  1801  1  0.05000950  0.83201950  0.21976550  1
  C  1802  1  0.07235300  0.84979800  0.20639000  1
  C  1803  1  0.06633450  0.85498650  0.18250350  1
  C  1815  1  0.87332750  0.34979600  0.70637500  1
  C  1816  1  0.90004650  0.33199950  0.71974650  1
  C  1817  1  0.95037200  0.32046800  0.70966300  1
  C  1818  1  0.97439600  0.32670950  0.68589550  1
  C  1820  1  0.89806450  0.35498600  0.68249200  1
  C  1821  1  0.02561850  0.31631150  0.67485850  1
  C  1822  1  0.04964050  0.32254950  0.65108750  1
  C  1823  1  0.09996200  0.31101650  0.64100350  1
  C  1824  1  0.12669750  0.29324050  0.65438450  1
  C  1825  1  0.10195700  0.28804300  0.67826500  1
  C  1837  1  0.89934400  0.79549400  0.70862500  1
  C  1838  1  0.93947600  0.78211850  0.69085250  1
  C  1839  1  0.97971000  0.79221200  0.67933100  1
  C  1840  1  0.97992650  0.81598700  0.68557100  1
  C  1842  1  0.90015950  0.81938250  0.71381650  1
  C  1843  1  0.02010350  0.82703250  0.67518650  1
  C  1844  1  0.02032250  0.85080700  0.68142600  1
  C  1845  1  0.06055900  0.86089850  0.66990850  1
  C  1846  1  0.10068900  0.84752650  0.65213150  1
  C  1847  1  0.09987950  0.82363450  0.64694650  1
  C  1859  1  0.40155550  0.34749350  0.15211150  1
  C  1860  1  0.41050050  0.36087150  0.16989450  1
  C  1861  1  0.44930250  0.35079000  0.18142100  1
  C  1862  1  0.47956450  0.32702150  0.17518050  1
  C  1864  1  0.43147350  0.32360900  0.14692300  1
  C  1865  1  0.52040150  0.31598750  0.18556950  1
  C  1866  1  0.55066600  0.29221900  0.17932900  1
  C  1867  1  0.58947100  0.28213750  0.19085350  1
  C  1868  1  0.59839700  0.29551050  0.20864650  1
  C  1869  1  0.56847550  0.31939400  0.21383700  1
  C  1881  1  0.56871050  0.34841000  0.71013500  1
  C  1882  1  0.54918550  0.36110200  0.69121000  1
  C  1883  1  0.52197800  0.35065100  0.67908800  1
  C  1884  1  0.51421650  0.32718550  0.68587050  1
  C  1886  1  0.56148850  0.32479650  0.71589250  1
  C  1887  1  0.48580750  0.31583100  0.67486900  1
  C  1888  1  0.47804200  0.29236600  0.68165100  1
  C  1889  1  0.45084850  0.28191200  0.66952500  1
  C  1890  1  0.43131250  0.29460650  0.65060350  1
  C  1891  1  0.43854700  0.31821800  0.64484200  1
  C  1903  1  0.62537450  0.79460700  0.15062100  1
  C  1904  1  0.59961800  0.78191900  0.16955000  1
  C  1905  1  0.54983550  0.79237350  0.18166850  1
  C  1906  1  0.52539200  0.81583500  0.17487800  1
  C  1908  1  0.60030300  0.81821900  0.14485800  1
  C  1909  1  0.47462100  0.82718850  0.18587150  1
  C  1910  1  0.45017750  0.85065300  0.17908400  1
  C  1911  1  0.40039700  0.86110850  0.19120350  1
  C  1912  1  0.37462800  0.84841400  0.21012500  1
  C  1913  1  0.39971150  0.82480450  0.21589150  1
  C  1925  1  0.59848850  0.79175450  0.70726050  1
  C  1926  1  0.56003950  0.81068100  0.71995500  1
  C  1927  1  0.52070250  0.82279850  0.70950750  1
  C  1928  1  0.51971550  0.81601650  0.68604250  1
  C  1930  1  0.59701450  0.78599500  0.68365000  1
  C  1931  1  0.48029250  0.82701150  0.67469450  1
  C  1932  1  0.47930350  0.82022750  0.65123050  1
  C  1933  1  0.43996650  0.83234650  0.64078250  1
  C  1934  1  0.40152000  0.85127250  0.65347650  1
  C  1935  1  0.40299400  0.85703300  0.67708700  1
  C  1947  1  0.09561000  0.35126800  0.15346700  1
  C  1948  1  0.08877000  0.33234650  0.14077350  1
  C  1949  1  0.05111800  0.32022150  0.15122950  1
  C  1950  1  0.01987950  0.32701150  0.17469150  1
  C  1952  1  0.06477500  0.35702950  0.17707950  1
  C  1953  1  0.98009850  0.31602050  0.18604250  1
  C  1954  1  0.94886650  0.32280800  0.20950600  1
  C  1955  1  0.91120050  0.31069050  0.21995850  1
  C  1956  1  0.90437050  0.29176450  0.20726750  1
  C  1957  1  0.93519900  0.28600550  0.18365350  1
  C  2145  1  0.79632900  0.74640200  0.98970500  1
  C  2146  1  0.83672100  0.73194450  0.97287950  1
  C  2147  1  0.83248700  0.72811000  0.94930400  1
  C  2148  1  0.78750800  0.73897450  0.94236350  1
  C  2150  1  0.75245050  0.75722400  0.98200300  1
  C  2151  1  0.78061600  0.73602140  0.91880860  1
  C  2152  1  0.73603350  0.74747490  0.91176110  1
  C  2153  1  0.73262200  0.74487690  0.88779210  1
  C  2154  1  0.77332200  0.73094490  0.87070610  1
  C  2155  1  0.81644800  0.71911090  0.87861710  1
  C  2167  1  0.53063200  0.39658350  0.87105450  1
  C  2168  1  0.53975000  0.41104050  0.88787750  1
  C  2169  1  0.50809350  0.41488650  0.91145150  1
  C  2170  1  0.46703150  0.40402750  0.91839350  1
  C  2172  1  0.48986550  0.38576750  0.87875950  1
  C  2173  1  0.43361050  0.40700000  0.94194300  1
  C  2174  1  0.39341850  0.39555750  0.94898850  1
  C  2175  1  0.36342450  0.39816900  0.97295500  1
  C  2176  1  0.37309500  0.41211000  0.99003700  1
  C  2177  1  0.41232000  0.42393100  0.98212600  1
  C  2189  1  0.72128250  0.63082840  0.75543560  1
  C  2190  1  0.74722100  0.61400490  0.76989210  1
  C  2191  1  0.73911600  0.59043690  0.77374910  1
  C  2192  1  0.70499400  0.58349590  0.76289010  1
  C  2194  1  0.68821950  0.62312690  0.74461810  1
  C  2195  1  0.69509950  0.55995150  0.76587250  1
  C  2196  1  0.66195300  0.55290550  0.75442950  1
  C  2197  1  0.65590350  0.52894350  0.75705150  1
  C  2198  1  0.68267800  0.51185800  0.77098000  1
  C  2199  1  0.71396500  0.51977250  0.78281650  1
  C  2211  1  0.10570600  0.51218400  0.10529900  1
  C  2212  1  0.12926800  0.52900800  0.09083400  1
  C  2213  1  0.10145150  0.55258000  0.08699400  1
  C  2214  1  0.04953050  0.55951700  0.09785400  1
  C  2216  1  0.05412750  0.51988450  0.11612250  1
  C  2217  1  0.01907100  0.58306550  0.09488650  1
  C  2218  1  0.96743600  0.59010650  0.10633150  1
  C  2219  1  0.94004000  0.61406950  0.10371650  1
  C  2220  1  0.96366050  0.63115850  0.08979950  1
  C  2221  1  0.01469700  0.62325000  0.07796000  1
  C  2233  1  0.20365800  0.89661450  0.37104050  1
  C  2234  1  0.16326500  0.91107250  0.38786350  1
  C  2235  1  0.16749700  0.91490700  0.41144000  1
  C  2236  1  0.21247300  0.90404200  0.41838200  1
  C  2238  1  0.24753500  0.88579250  0.37874250  1
  C  2239  1  0.21936400  0.90699450  0.44193750  1
  C  2240  1  0.26394800  0.89554350  0.44898450  1
  C  2241  1  0.26735700  0.89814300  0.47295500  1
  C  2242  1  0.22665600  0.91207250  0.49003950  1
  C  2243  1  0.18352750  0.92390550  0.48212850  1
  C  2255  1  0.46937900  0.24643200  0.48968700  1
  C  2256  1  0.46026900  0.23197300  0.47286300  1
  C  2257  1  0.49192950  0.22812650  0.44929150  1
  C  2258  1  0.53299100  0.23898550  0.44235150  1
  C  2260  1  0.51014500  0.25724850  0.48198550  1
  C  2261  1  0.56641750  0.23601290  0.41880410  1
  C  2262  1  0.60660500  0.24745990  0.41175810  1
  C  2263  1  0.63660150  0.24484890  0.38779310  1
  C  2264  1  0.62693950  0.23090340  0.37071160  1
  C  2265  1  0.58772200  0.21907890  0.37862210  1
  C  2277  1  0.27870950  0.01219650  0.60530650  1
  C  2278  1  0.25276400  0.02902150  0.59085250  1
  C  2279  1  0.26086450  0.05258850  0.58699850  1
  C  2280  1  0.29498750  0.05953100  0.59785500  1
  C  2282  1  0.31177550  0.01989900  0.61612200  1
  C  2283  1  0.30487650  0.08307700  0.59487500  1
  C  2284  1  0.33802950  0.09012150  0.60631450  1
  C  2285  1  0.34407700  0.11408400  0.60369300  1
  C  2286  1  0.31729300  0.13117200  0.58976900  1
  C  2287  1  0.28600000  0.12325750  0.57793550  1
  C  2299  1  0.89430850  0.13084090  0.25543610  1
  C  2300  1  0.87074700  0.11401840  0.26990260  1
  C  2301  1  0.89856900  0.09044740  0.27374760  1
  C  2302  1  0.95048800  0.08350990  0.26288510  1
  C  2304  1  0.94588600  0.12314140  0.24461060  1
  C  2305  1  0.98094900  0.05996250  0.26585550  1
  C  2306  1  0.03258400  0.05292200  0.25440800  1
  C  2307  1  0.05997950  0.02895900  0.25702400  1
  C  2308  1  0.03636150  0.01187000  0.27094400  1
  C  2309  1  0.98532600  0.01978000  0.28278500  1
  H  7  1  0.86651950  0.87524950  0.91042250  1
  H  16  1  0.76380900  0.93632800  0.94328500  1
  H  19  1  0.86646200  0.95920000  0.91732600  1
  H  20  1  0.87551750  0.91556900  0.86506400  1
  H  21  1  0.96872100  0.87940500  0.96489900  1
  H  22  1  0.66360150  0.93036600  0.88793500  1
  H  24  1  0.64627750  0.94544750  0.93350150  1
  H  25  1  0.66296350  0.97264050  0.92157150  1
  H  27  1  0.73359800  0.91808150  0.84900950  1
  H  28  1  0.78872300  0.89600800  0.84887100  1
  H  30  1  0.99117450  0.85248200  0.91548600  1
  H  31  1  0.95063250  0.84444950  0.94220750  1
  H  33  1  0.96944350  0.93546200  0.94572200  1
  H  34  1  0.93579700  0.92567050  0.97365850  1
  H  41  1  0.65030350  0.62850600  0.58959000  1
  H  50  1  0.64154200  0.56742950  0.55672150  1
  H  53  1  0.74114100  0.54456350  0.58266250  1
  H  54  1  0.65432200  0.58817350  0.63493850  1
  H  55  1  0.81112100  0.62438000  0.53510800  1
  H  56  1  0.48005900  0.57336600  0.61209300  1
  H  58  1  0.52335300  0.55830050  0.56652250  1
  H  59  1  0.55531850  0.53110400  0.57843900  1
  H  61  1  0.49886450  0.58565050  0.65101250  1
  H  62  1  0.53177750  0.60772350  0.65115050  1
  H  64  1  0.75723550  0.65128550  0.58453250  1
  H  65  1  0.73537450  0.65932500  0.55781400  1
  H  67  1  0.84874200  0.56831200  0.55428000  1
  H  68  1  0.83326250  0.57811350  0.52634050  1
  H  75  1  0.73991100  0.91229100  0.62661200  1
  H  84  1  0.69826700  0.94515850  0.56553750  1
  H  87  1  0.82379950  0.91919800  0.54266300  1
  H  88  1  0.78923900  0.86693650  0.58628250  1
  H  89  1  0.84627200  0.96677100  0.62245400  1
  H  90  1  0.59212650  0.88980050  0.57148150  1
  H  92  1  0.58986650  0.93536950  0.55640950  1
  H  93  1  0.63374800  0.92344800  0.52921500  1
  H  95  1  0.64984850  0.85087300  0.58376000  1
  H  96  1  0.68290000  0.85073250  0.60583350  1
  H  98  1  0.84179200  0.91735600  0.64937700  1
  H  99  1  0.79323350  0.94408250  0.65740750  1
  H  101  1  0.90303650  0.94759850  0.56640150  1
  H  102  1  0.85959600  0.97553250  0.57619150  1
  H  109  1  0.27696150  0.59146700  0.87337800  1
  H  118  1  0.20709600  0.55859600  0.93444800  1
  H  121  1  0.28381000  0.58454200  0.95732500  1
  H  122  1  0.24061750  0.63681250  0.91370950  1
  H  123  1  0.43363900  0.53698100  0.87752500  1
  H  124  1  0.05154950  0.61396800  0.92850400  1
  H  126  1  0.07977400  0.56839650  0.94357350  1
  H  127  1  0.08454650  0.58031650  0.97076950  1
  H  129  1  0.08264250  0.65288800  0.91622400  1
  H  130  1  0.13762950  0.65302550  0.89415250  1
  H  132  1  0.40668200  0.58640250  0.85061650  1
  H  133  1  0.39285950  0.55968750  0.84257150  1
  H  135  1  0.41516700  0.55613950  0.93359450  1
  H  136  1  0.40946250  0.52820700  0.92379100  1
  H  143  1  0.13349200  0.12851850  0.08957550  1
  H  152  1  0.23619200  0.06743750  0.05671350  1
  H  155  1  0.13353150  0.04457150  0.08266750  1
  H  156  1  0.12447800  0.08819550  0.13493350  1
  H  157  1  0.03128800  0.12437400  0.03509700  1
  H  158  1  0.33639450  0.07339100  0.11206800  1
  H  160  1  0.35372250  0.05831350  0.06650350  1
  H  161  1  0.33703100  0.03112050  0.07842750  1
  H  163  1  0.26639600  0.08567750  0.15099250  1
  H  164  1  0.21127300  0.10775250  0.15112950  1
  H  166  1  0.00884000  0.15129450  0.08451150  1
  H  167  1  0.04938400  0.15932550  0.05779150  1
  H  169  1  0.03053850  0.06832550  0.05427450  1
  H  170  1  0.06420000  0.07810800  0.02633700  1
  H  177  1  0.34968350  0.37526250  0.41041050  1
  H  186  1  0.35846350  0.43633750  0.44327650  1
  H  189  1  0.25886200  0.45920800  0.41733800  1
  H  190  1  0.34567450  0.41559350  0.36506150  1
  H  191  1  0.18887050  0.37939800  0.46490100  1
  H  192  1  0.51994700  0.43039050  0.38790350  1
  H  194  1  0.47665950  0.44546050  0.43347150  1
  H  195  1  0.44469450  0.47265750  0.42155550  1
  H  197  1  0.50113900  0.41810550  0.34898650  1
  H  198  1  0.46821700  0.39603550  0.34884950  1
  H  200  1  0.24273900  0.35249000  0.41547600  1
  H  201  1  0.26460750  0.34444900  0.44219200  1
  H  203  1  0.15125400  0.43546700  0.44573400  1
  H  204  1  0.16674450  0.42566500  0.47367000  1
  H  211  1  0.26007800  0.09147700  0.37338500  1
  H  220  1  0.30173800  0.05861100  0.43445700  1
  H  223  1  0.17620350  0.08457400  0.45733800  1
  H  224  1  0.21075850  0.13683250  0.41371450  1
  H  225  1  0.15371250  0.03699700  0.37755500  1
  H  226  1  0.40787800  0.11397000  0.42850900  1
  H  228  1  0.41014250  0.06840050  0.44358050  1
  H  229  1  0.36626050  0.08032400  0.47077700  1
  H  231  1  0.35014750  0.15289800  0.41623200  1
  H  232  1  0.31709050  0.15303800  0.39416100  1
  H  234  1  0.15818900  0.08640950  0.35062750  1
  H  235  1  0.20674550  0.05968200  0.34259800  1
  H  237  1  0.09696100  0.05617050  0.43361450  1
  H  238  1  0.14040100  0.02823550  0.42381750  1
  H  245  1  0.72306050  0.41229750  0.12662150  1
  H  254  1  0.79290250  0.44517300  0.06554800  1
  H  257  1  0.71618550  0.41922450  0.04267750  1
  H  258  1  0.75939750  0.36695300  0.08628700  1
  H  259  1  0.56636850  0.46677700  0.12248600  1
  H  260  1  0.94846000  0.38980600  0.07148100  1
  H  262  1  0.92022300  0.43537800  0.05641400  1
  H  263  1  0.91544750  0.42345850  0.02921950  1
  H  265  1  0.91737800  0.35088350  0.08376050  1
  H  266  1  0.86239900  0.35074450  0.10583750  1
  H  268  1  0.59334550  0.41735500  0.14939200  1
  H  269  1  0.60716350  0.44407200  0.15743500  1
  H  271  1  0.58482150  0.44761600  0.06642300  1
  H  272  1  0.59052350  0.47555100  0.07622000  1
  H  557  1  0.08174100  0.04813600  0.99172400  1
  H  558  1  0.00468050  0.98838050  0.03961550  1
  H  559  1  0.05319850  0.00835200  0.05684300  1
  H  560  1  0.91826800  0.95562100  0.00826800  1
  H  561  1  0.94674100  0.99543650  0.94316550  1
  H  562  1  0.99524250  0.01541350  0.96039550  1
  H  564  1  0.86865450  0.96073850  0.97381250  1
  H  566  1  0.13131750  0.04302900  0.02618700  1
  H  579  1  0.11972100  0.45563100  0.50830000  1
  H  580  1  0.03083100  0.51537750  0.46038750  1
  H  581  1  0.11654900  0.49541050  0.44317450  1
  H  582  1  0.88031300  0.54816050  0.49172250  1
  H  583  1  0.88344550  0.50834100  0.55682500  1
  H  584  1  0.96916100  0.48836050  0.53960650  1
  H  586  1  0.80134600  0.54304750  0.52616350  1
  H  588  1  0.19868150  0.46072450  0.47384050  1
  H  601  1  0.12803900  0.99361500  0.45377500  1
  H  602  1  0.99118300  0.04149800  0.51351700  1
  H  603  1  0.05966800  0.05872950  0.49355950  1
  H  604  1  0.87197600  0.01015450  0.54622750  1
  H  605  1  0.94035400  0.94503650  0.50644750  1
  H  606  1  0.00884600  0.96226700  0.48649300  1
  H  608  1  0.82752850  0.97568450  0.54111950  1
  H  610  1  0.17249850  0.02808350  0.45887950  1
  H  623  1  0.57344150  0.51016800  0.04625800  1
  H  624  1  0.54433100  0.46226900  0.98649000  1
  H  625  1  0.61007650  0.44505350  0.00646250  1
  H  626  1  0.42652100  0.49358350  0.95375150  1
  H  627  1  0.38991050  0.55870500  0.99353500  1
  H  628  1  0.45565800  0.54149050  0.01350350  1
  H  630  1  0.34246050  0.52804300  0.95884800  1
  H  632  1  0.65750300  0.47571900  0.04115300  1
  H  645  1  0.42522000  0.50848600  0.45084300  1
  H  646  1  0.49269700  0.46289200  0.51459700  1
  H  647  1  0.44678800  0.44502850  0.49362050  1
  H  648  1  0.57477800  0.49528050  0.54916150  1
  H  649  1  0.55324600  0.55873100  0.50636900  1
  H  650  1  0.50734500  0.54086550  0.48539050  1
  H  652  1  0.62547650  0.52945700  0.54416100  1
  H  654  1  0.37453900  0.47430750  0.45583650  1
  H  667  1  0.38264400  0.99527850  0.04914150  1
  H  668  1  0.46831800  0.04087600  0.98540500  1
  H  669  1  0.38356550  0.05873950  0.00637050  1
  H  670  1  0.61734600  0.00847600  0.95084100  1
  H  671  1  0.61645400  0.94503300  0.99364300  1
  H  672  1  0.53170700  0.96290150  0.01461650  1
  H  674  1  0.69721500  0.97429800  0.95584200  1
  H  676  1  0.30279000  0.02946650  0.04415450  1
  H  689  1  0.37605650  0.05103850  0.50660650  1
  H  690  1  0.50728550  0.98729100  0.46100700  1
  H  691  1  0.44039950  0.00826500  0.44314700  1
  H  692  1  0.62395500  0.95273300  0.49338500  1
  H  693  1  0.55960700  0.99550450  0.55684650  1
  H  694  1  0.49271900  0.01648050  0.53898850  1
  H  696  1  0.66964650  0.95772000  0.52756700  1
  H  698  1  0.33036100  0.04605200  0.47242800  1
  H  711  1  0.93178450  0.45274250  0.99339050  1
  H  712  1  0.95369950  0.51648600  0.03898600  1
  H  713  1  0.88992250  0.49551550  0.05685050  1
  H  714  1  0.06819000  0.55103550  0.00660050  1
  H  715  1  0.11007850  0.50825050  0.94314550  1
  H  716  1  0.04629500  0.48728200  0.96100800  1
  H  718  1  0.15305650  0.54603600  0.97241700  1
  H  720  1  0.84692950  0.45773450  0.02757650  1
  H  909  1  0.84698600  0.88926450  0.68648850  1
  H  910  1  0.70637550  0.93859750  0.74323050  1
  H  911  1  0.70101650  0.93430000  0.70222500  1
  H  912  1  0.72224800  0.94831750  0.81315450  1
  H  913  1  0.86902600  0.90415550  0.79751450  1
  H  914  1  0.86221450  0.89772250  0.75713750  1
  H  916  1  0.78915350  0.94781850  0.83753150  1
  H  918  1  0.78098400  0.89350700  0.65974900  1
  H  931  1  0.42089150  0.61451900  0.81351100  1
  H  932  1  0.38640300  0.56514300  0.75679100  1
  H  933  1  0.33571950  0.56946350  0.79778550  1
  H  934  1  0.48191250  0.55541100  0.68686900  1
  H  935  1  0.56888850  0.59958000  0.70249200  1
  H  936  1  0.51525800  0.60602850  0.74286750  1
  H  938  1  0.57268550  0.55591100  0.66248200  1
  H  940  1  0.33239150  0.61027200  0.84026400  1
  H  953  1  0.73432350  0.68838100  0.61264200  1
  H  954  1  0.64312550  0.74510250  0.56326550  1
  H  955  1  0.63344550  0.70410500  0.56758200  1
  H  956  1  0.66875100  0.81501650  0.55351750  1
  H  957  1  0.77132450  0.79939400  0.59770000  1
  H  958  1  0.75804950  0.75902450  0.60415550  1
  H  960  1  0.73513750  0.83940200  0.55402000  1
  H  962  1  0.67258750  0.66162750  0.60839650  1
  H  975  1  0.03347600  0.81538050  0.88737150  1
  H  976  1  0.94964450  0.75864950  0.93674450  1
  H  977  1  0.90327100  0.79964900  0.93244000  1
  H  978  1  0.03545200  0.68873400  0.94647500  1
  H  979  1  0.16657450  0.70437050  0.90229350  1
  H  980  1  0.11937500  0.74474100  0.89584800  1
  H  982  1  0.12673100  0.66435250  0.94596550  1
  H  984  1  0.94074200  0.84212400  0.89162600  1
  H  997  1  0.15298800  0.11449600  0.31351300  1
  H  998  1  0.29360550  0.06516600  0.25677100  1
  H  999  1  0.29896350  0.06946600  0.29777700  1
  H  1000  1  0.27773650  0.05544250  0.18684850  1
  H  1001  1  0.13096100  0.09960550  0.20248350  1
  H  1002  1  0.13776900  0.10603900  0.24286100  1
  H  1004  1  0.21083500  0.05594200  0.16246900  1
  H  1006  1  0.21899350  0.11025900  0.34025100  1
  H  1019  1  0.57915700  0.38923250  0.18649250  1
  H  1020  1  0.61361250  0.43862000  0.24321100  1
  H  1021  1  0.66429900  0.43430250  0.20221850  1
  H  1022  1  0.51809400  0.44834900  0.31313300  1
  H  1023  1  0.43112800  0.40417850  0.29750250  1
  H  1024  1  0.48476900  0.39772850  0.25713050  1
  H  1026  1  0.42731950  0.44784950  0.33751550  1
  H  1028  1  0.66764600  0.39348900  0.15973800  1
  H  1041  1  0.26563600  0.31539500  0.38736800  1
  H  1042  1  0.35686350  0.25866900  0.43673100  1
  H  1043  1  0.36653850  0.29966650  0.43241650  1
  H  1044  1  0.33124850  0.18875200  0.44647700  1
  H  1045  1  0.22865800  0.20437600  0.40230200  1
  H  1046  1  0.24192500  0.24474900  0.39585000  1
  H  1048  1  0.26486300  0.16436500  0.44597700  1
  H  1050  1  0.32738200  0.34214550  0.39160650  1
  H  1063  1  0.96654600  0.18839350  0.11263050  1
  H  1064  1  0.05037550  0.24512150  0.06324950  1
  H  1065  1  0.09674850  0.20412300  0.06755500  1
  H  1066  1  0.96456200  0.31503400  0.05351200  1
  H  1067  1  0.83344500  0.29940250  0.09770550  1
  H  1068  1  0.88064700  0.25903200  0.10415400  1
  H  1070  1  0.87327800  0.33941600  0.05402700  1
  H  1072  1  0.05927950  0.16164850  0.10837250  1
  H  1255  1  0.86651950  0.69487750  0.09079450  1
  H  1264  1  0.76380900  0.75595600  0.12365700  1
  H  1267  1  0.86646200  0.77882800  0.09769800  1
  H  1268  1  0.87551750  0.73519700  0.04543600  1
  H  1269  1  0.96872100  0.69903300  0.14527100  1
  H  1270  1  0.66360150  0.74999400  0.06830700  1
  H  1272  1  0.64627750  0.76507550  0.11387350  1
  H  1273  1  0.66296350  0.79226850  0.10194350  1
  H  1275  1  0.73359800  0.73770950  0.02938150  1
  H  1276  1  0.78872300  0.71563600  0.02924300  1
  H  1278  1  0.99117450  0.67211000  0.09585800  1
  H  1279  1  0.95063250  0.66407750  0.12257950  1
  H  1281  1  0.96944350  0.75509000  0.12609400  1
  H  1282  1  0.93579700  0.74529850  0.15403050  1
  H  1289  1  0.65030350  0.44813400  0.76996200  1
  H  1298  1  0.64154200  0.38705750  0.73709350  1
  H  1301  1  0.74114100  0.36419150  0.76303450  1
  H  1302  1  0.65432200  0.40780150  0.81531050  1
  H  1303  1  0.81112100  0.44400800  0.71548000  1
  H  1304  1  0.48005900  0.39299400  0.79246500  1
  H  1306  1  0.52335300  0.37792850  0.74689450  1
  H  1307  1  0.55531850  0.35073200  0.75881100  1
  H  1309  1  0.49886450  0.40527850  0.83138450  1
  H  1310  1  0.53177750  0.42735150  0.83152250  1
  H  1312  1  0.75723550  0.47091350  0.76490450  1
  H  1313  1  0.73537450  0.47895300  0.73818600  1
  H  1315  1  0.84874200  0.38794000  0.73465200  1
  H  1316  1  0.83326250  0.39774150  0.70671250  1
  H  1323  1  0.73991100  0.73191890  0.80698410  1
  H  1332  1  0.69826700  0.76478650  0.74590950  1
  H  1335  1  0.82379950  0.73882600  0.72303500  1
  H  1336  1  0.78923900  0.68656440  0.76665460  1
  H  1337  1  0.84627200  0.78639892  0.80282608  1
  H  1338  1  0.59212650  0.70942840  0.75185360  1
  H  1340  1  0.58986650  0.75499750  0.73678150  1
  H  1341  1  0.63374800  0.74307600  0.70958700  1
  H  1343  1  0.64984850  0.67050090  0.76413210  1
  H  1344  1  0.68290000  0.67036040  0.78620560  1
  H  1346  1  0.84179200  0.73698390  0.82974910  1
  H  1347  1  0.79323350  0.76371040  0.83777960  1
  H  1349  1  0.90303650  0.76722650  0.74677350  1
  H  1350  1  0.85959600  0.79516050  0.75656350  1
  H  1357  1  0.27696150  0.41109500  0.05375000  1
  H  1366  1  0.20709600  0.37822400  0.11482000  1
  H  1369  1  0.28381000  0.40417000  0.13769700  1
  H  1370  1  0.24061750  0.45644050  0.09408150  1
  H  1371  1  0.43363900  0.35660900  0.05789700  1
  H  1372  1  0.05154950  0.43359600  0.10887600  1
  H  1374  1  0.07977400  0.38802450  0.12394550  1
  H  1375  1  0.08454650  0.39994450  0.15114150  1
  H  1377  1  0.08264250  0.47251600  0.09659600  1
  H  1378  1  0.13762950  0.47265350  0.07452450  1
  H  1380  1  0.40668200  0.40603050  0.03098850  1
  H  1381  1  0.39285950  0.37931550  0.02294350  1
  H  1383  1  0.41516700  0.37576750  0.11396650  1
  H  1384  1  0.40946250  0.34783500  0.10416300  1
  H  1391  1  0.13349200  0.94814650  0.26994750  1
  H  1400  1  0.23619200  0.88706550  0.23708550  1
  H  1403  1  0.13353150  0.86419950  0.26303950  1
  H  1404  1  0.12447800  0.90782350  0.31530550  1
  H  1405  1  0.03128800  0.94400200  0.21546900  1
  H  1406  1  0.33639450  0.89301900  0.29244000  1
  H  1408  1  0.35372250  0.87794150  0.24687550  1
  H  1409  1  0.33703100  0.85074850  0.25879950  1
  H  1411  1  0.26639600  0.90530550  0.33136450  1
  H  1412  1  0.21127300  0.92738050  0.33150150  1
  H  1414  1  0.00884000  0.97092250  0.26488350  1
  H  1415  1  0.04938400  0.97895350  0.23816350  1
  H  1417  1  0.03053850  0.88795350  0.23464650  1
  H  1418  1  0.06420000  0.89773600  0.20670900  1
  H  1425  1  0.34968350  0.19489050  0.59078250  1
  H  1434  1  0.35846350  0.25596550  0.62364850  1
  H  1437  1  0.25886200  0.27883600  0.59771000  1
  H  1438  1  0.34567450  0.23522150  0.54543350  1
  H  1439  1  0.18887050  0.19902600  0.64527300  1
  H  1440  1  0.51994700  0.25001850  0.56827550  1
  H  1442  1  0.47665950  0.26508850  0.61384350  1
  H  1443  1  0.44469450  0.29228550  0.60192750  1
  H  1445  1  0.50113900  0.23773350  0.52935850  1
  H  1446  1  0.46821700  0.21566350  0.52922150  1
  H  1448  1  0.24273900  0.17211800  0.59584800  1
  H  1449  1  0.26460750  0.16407700  0.62256400  1
  H  1451  1  0.15125400  0.25509500  0.62610600  1
  H  1452  1  0.16674450  0.24529300  0.65404200  1
  H  1459  1  0.26007800  0.91110500  0.55375700  1
  H  1468  1  0.30173800  0.87823900  0.61482900  1
  H  1471  1  0.17620350  0.90420200  0.63771000  1
  H  1472  1  0.21075850  0.95646050  0.59408650  1
  H  1473  1  0.15371250  0.85662500  0.55792700  1
  H  1474  1  0.40787800  0.93359800  0.60888100  1
  H  1476  1  0.41014250  0.88802850  0.62395250  1
  H  1477  1  0.36626050  0.89995200  0.65114900  1
  H  1479  1  0.35014750  0.97252600  0.59660400  1
  H  1480  1  0.31709050  0.97266600  0.57453300  1
  H  1482  1  0.15818900  0.90603750  0.53099950  1
  H  1483  1  0.20674550  0.87931000  0.52297000  1
  H  1485  1  0.09696100  0.87579850  0.61398650  1
  H  1486  1  0.14040100  0.84786350  0.60418950  1
  H  1493  1  0.72306050  0.23192540  0.30699360  1
  H  1502  1  0.79290250  0.26480100  0.24592000  1
  H  1505  1  0.71618550  0.23885250  0.22304950  1
  H  1506  1  0.75939750  0.18658090  0.26665910  1
  H  1507  1  0.56636850  0.28640492  0.30285808  1
  H  1508  1  0.94846000  0.20943390  0.25185310  1
  H  1510  1  0.92022300  0.25500600  0.23678600  1
  H  1511  1  0.91544750  0.24308650  0.20959150  1
  H  1513  1  0.91737800  0.17051140  0.26413260  1
  H  1514  1  0.86239900  0.17037240  0.28620960  1
  H  1516  1  0.59334550  0.23698290  0.32976410  1
  H  1517  1  0.60716350  0.26369990  0.33780710  1
  H  1519  1  0.58482150  0.26724400  0.24679500  1
  H  1520  1  0.59052350  0.29517900  0.25659200  1
  H  1805  1  0.08174100  0.86776400  0.17209600  1
  H  1806  1  0.00468050  0.80800850  0.21998750  1
  H  1807  1  0.05319850  0.82798000  0.23721500  1
  H  1808  1  0.91826800  0.77524900  0.18864000  1
  H  1809  1  0.94674100  0.81506450  0.12353750  1
  H  1810  1  0.99524250  0.83504150  0.14076750  1
  H  1812  1  0.86865450  0.78036650  0.15418450  1
  H  1814  1  0.13131750  0.86265700  0.20655900  1
  H  1827  1  0.11972100  0.27525900  0.68867200  1
  H  1828  1  0.03083100  0.33500550  0.64075950  1
  H  1829  1  0.11654900  0.31503850  0.62354650  1
  H  1830  1  0.88031300  0.36778850  0.67209450  1
  H  1831  1  0.88344550  0.32796900  0.73719700  1
  H  1832  1  0.96916100  0.30798850  0.71997850  1
  H  1834  1  0.80134600  0.36267550  0.70653550  1
  H  1836  1  0.19868150  0.28035250  0.65421250  1
  H  1849  1  0.12803900  0.81324300  0.63414700  1
  H  1850  1  0.99118300  0.86112600  0.69388900  1
  H  1851  1  0.05966800  0.87835750  0.67393150  1
  H  1852  1  0.87197600  0.82978250  0.72659950  1
  H  1853  1  0.94035400  0.76466450  0.68681950  1
  H  1854  1  0.00884600  0.78189500  0.66686500  1
  H  1856  1  0.82752850  0.79531250  0.72149150  1
  H  1858  1  0.17249850  0.84771150  0.63925150  1
  H  1871  1  0.57344150  0.32979600  0.22663000  1
  H  1872  1  0.54433100  0.28189700  0.16686200  1
  H  1873  1  0.61007650  0.26468150  0.18683450  1
  H  1874  1  0.42652100  0.31321150  0.13412350  1
  H  1875  1  0.38991050  0.37833300  0.17390700  1
  H  1876  1  0.45565800  0.36111850  0.19387550  1
  H  1878  1  0.34246050  0.34767100  0.13922000  1
  H  1880  1  0.65750300  0.29534700  0.22152500  1
  H  1893  1  0.42522000  0.32811400  0.63121500  1
  H  1894  1  0.49269700  0.28252000  0.69496900  1
  H  1895  1  0.44678800  0.26465650  0.67399250  1
  H  1896  1  0.57477800  0.31490850  0.72953350  1
  H  1897  1  0.55324600  0.37835900  0.68674100  1
  H  1898  1  0.50734500  0.36049350  0.66576250  1
  H  1900  1  0.62547650  0.34908500  0.72453300  1
  H  1902  1  0.37453900  0.29393550  0.63620850  1
  H  1915  1  0.38264400  0.81490650  0.22951350  1
  H  1916  1  0.46831800  0.86050400  0.16577700  1
  H  1917  1  0.38356550  0.87836750  0.18674250  1
  H  1918  1  0.61734600  0.82810400  0.13121300  1
  H  1919  1  0.61645400  0.76466100  0.17401500  1
  H  1920  1  0.53170700  0.78252950  0.19498850  1
  H  1922  1  0.69721500  0.79392600  0.13621400  1
  H  1924  1  0.30279000  0.84909450  0.22452650  1
  H  1937  1  0.37605650  0.87066650  0.68697850  1
  H  1938  1  0.50728550  0.80691900  0.64137900  1
  H  1939  1  0.44039950  0.82789300  0.62351900  1
  H  1940  1  0.62395500  0.77236100  0.67375700  1
  H  1941  1  0.55960700  0.81513250  0.73721850  1
  H  1942  1  0.49271900  0.83610850  0.71936050  1
  H  1944  1  0.66964650  0.77734800  0.70793900  1
  H  1946  1  0.33036100  0.86568000  0.65280000  1
  H  1959  1  0.93178450  0.27237050  0.17376250  1
  H  1960  1  0.95369950  0.33611400  0.21935800  1
  H  1961  1  0.88992250  0.31514350  0.23722250  1
  H  1962  1  0.06819000  0.37066350  0.18697250  1
  H  1963  1  0.11007850  0.32787850  0.12351750  1
  H  1964  1  0.04629500  0.30691000  0.14138000  1
  H  1966  1  0.15305650  0.36566400  0.15278900  1
  H  1968  1  0.84692950  0.27736250  0.20794850  1
  H  2157  1  0.84698600  0.70889240  0.86686060  1
  H  2158  1  0.70637550  0.75822540  0.92360260  1
  H  2159  1  0.70101650  0.75392790  0.88259710  1
  H  2160  1  0.72224800  0.76794550  0.99352650  1
  H  2161  1  0.86902600  0.72378350  0.97788650  1
  H  2162  1  0.86221450  0.71735050  0.93750950  1
  H  2164  1  0.78915350  0.76744650  0.01790350  1
  H  2166  1  0.78098400  0.71313490  0.84012110  1
  H  2179  1  0.42089150  0.43414700  0.99388300  1
  H  2180  1  0.38640300  0.38477100  0.93716300  1
  H  2181  1  0.33571950  0.38909150  0.97815750  1
  H  2182  1  0.48191250  0.37503900  0.86724100  1
  H  2183  1  0.56888850  0.41920800  0.88286400  1
  H  2184  1  0.51525800  0.42565650  0.92323950  1
  H  2186  1  0.57268550  0.37553900  0.84285400  1
  H  2188  1  0.33239150  0.42990000  0.02063600  1
  H  2201  1  0.73432350  0.50800900  0.79301400  1
  H  2202  1  0.64312550  0.56473040  0.74363760  1
  H  2203  1  0.63344550  0.52373300  0.74795400  1
  H  2204  1  0.66875100  0.63464440  0.73388960  1
  H  2205  1  0.77132450  0.61902190  0.77807210  1
  H  2206  1  0.75804950  0.57865250  0.78452750  1
  H  2208  1  0.73513750  0.65902990  0.73439210  1
  H  2210  1  0.67258750  0.48125550  0.78876850  1
  H  2223  1  0.03347600  0.63500850  0.06774350  1
  H  2224  1  0.94964450  0.57827750  0.11711650  1
  H  2225  1  0.90327100  0.61927700  0.11281200  1
  H  2226  1  0.03545200  0.50836200  0.12684700  1
  H  2227  1  0.16657450  0.52399850  0.08266550  1
  H  2228  1  0.11937500  0.56436900  0.07622000  1
  H  2230  1  0.12673100  0.48398050  0.12633750  1
  H  2232  1  0.94074200  0.66175200  0.07199800  1
  H  2245  1  0.15298800  0.93412400  0.49388500  1
  H  2246  1  0.29360550  0.88479400  0.43714300  1
  H  2247  1  0.29896350  0.88909400  0.47814900  1
  H  2248  1  0.27773650  0.87507050  0.36722050  1
  H  2249  1  0.13096100  0.91923350  0.38285550  1
  H  2250  1  0.13776900  0.92566700  0.42323300  1
  H  2252  1  0.21083500  0.87557000  0.34284100  1
  H  2254  1  0.21899350  0.92988700  0.52062300  1
  H  2267  1  0.57915700  0.20886040  0.36686460  1
  H  2268  1  0.61361250  0.25824790  0.42358310  1
  H  2269  1  0.66429900  0.25393040  0.38259060  1
  H  2270  1  0.51809400  0.26797700  0.49350500  1
  H  2271  1  0.43112800  0.22380650  0.47787450  1
  H  2272  1  0.48476900  0.21735650  0.43750250  1
  H  2274  1  0.42731950  0.26747750  0.51788750  1
  H  2276  1  0.66764600  0.21311690  0.34011010  1
  H  2289  1  0.26563600  0.13502300  0.56774000  1
  H  2290  1  0.35686350  0.07829700  0.61710300  1
  H  2291  1  0.36653850  0.11929450  0.61278850  1
  H  2292  1  0.33124850  0.00838000  0.62684900  1
  H  2293  1  0.22865800  0.02400400  0.58267400  1
  H  2294  1  0.24192500  0.06437700  0.57622200  1
  H  2296  1  0.26486300  0.98399300  0.62634900  1
  H  2298  1  0.32738200  0.16177350  0.57197850  1
  H  2311  1  0.96654600  0.00802150  0.29300250  1
  H  2312  1  0.05037550  0.06474940  0.24362160  1
  H  2313  1  0.09674850  0.02375100  0.24792700  1
  H  2314  1  0.96456200  0.13466190  0.23388410  1
  H  2315  1  0.83344500  0.11903040  0.27807760  1
  H  2316  1  0.88064700  0.07866000  0.28452600  1
  H  2318  1  0.87327800  0.15904390  0.23439910  1
  H  2320  1  0.05927950  0.98127650  0.28874450  1
  N  549  1  0.96179800  0.97979450  0.00689450  1
  N  556  1  0.03816150  0.02398350  0.99310650  1
  N  563  1  0.90312400  0.96055300  0.96257300  1
  N  565  1  0.09684450  0.04322150  0.03742750  1
  N  571  1  0.94664050  0.52398550  0.49310550  1
  N  578  1  0.05338000  0.47978950  0.50690850  1
  N  585  1  0.82438050  0.54322600  0.53741100  1
  N  587  1  0.17563600  0.46054850  0.46259850  1
  N  593  1  0.93971650  0.00877800  0.52208300  1
  N  600  1  0.06031250  0.99498750  0.47792950  1
  N  607  1  0.86181350  0.96444700  0.54130600  1
  N  609  1  0.13820600  0.03931950  0.45870050  1
  N  615  1  0.46869300  0.49497000  0.97791600  1
  N  622  1  0.53126850  0.50878100  0.02209400  1
  N  629  1  0.36568350  0.53928300  0.95867400  1
  N  631  1  0.63428450  0.46447400  0.04133400  1
  N  637  1  0.53480850  0.49578450  0.52353550  1
  N  644  1  0.46521150  0.50797700  0.47646000  1
  N  651  1  0.59157150  0.54066000  0.54325700  1
  N  653  1  0.40844450  0.46310250  0.45673950  1
  N  659  1  0.55225200  0.00797650  0.97646750  1
  N  666  1  0.44775550  0.99578750  0.02353250  1
  N  673  1  0.67360600  0.96309500  0.95675400  1
  N  675  1  0.32639950  0.04067000  0.04324500  1
  N  681  1  0.55834850  0.97835450  0.49389450  1
  N  688  1  0.44166100  0.02541800  0.50609800  1
  N  695  1  0.63483400  0.95862800  0.53876900  1
  N  697  1  0.36517250  0.04514200  0.46122400  1
  N  703  1  0.02870600  0.52541900  0.00609200  1
  N  710  1  0.97126800  0.47836000  0.99389600  1
  N  717  1  0.13035200  0.54513200  0.96121500  1
  N  719  1  0.86963400  0.45864100  0.03877700  1
  N  901  1  0.74982950  0.93349250  0.77879150  1
  N  908  1  0.81849400  0.90261500  0.72142300  1
  N  915  1  0.80019250  0.92957450  0.83331450  1
  N  917  1  0.77089050  0.91121350  0.66573550  1
  N  923  1  0.46029850  0.57024950  0.72122650  1
  N  930  1  0.44069400  0.60115700  0.77858200  1
  N  937  1  0.56126900  0.57415450  0.66669950  1
  N  939  1  0.34598100  0.59256950  0.83426450  1
  N  945  1  0.68147700  0.78066250  0.56836250  1
  N  952  1  0.71918450  0.72331450  0.59928850  1
  N  959  1  0.72793850  0.83518350  0.57226350  1
  N  961  1  0.68018350  0.66762650  0.59069350  1
  N  967  1  0.02865900  0.72309150  0.93163750  1
  N  974  1  0.03992850  0.78044850  0.90072750  1
  N  981  1  0.13355150  0.66857300  0.92772100  1
  N  983  1  0.93663350  0.83613150  0.90932950  1
  N  989  1  0.25015350  0.07026750  0.22121050  1
  N  996  1  0.18148100  0.10114500  0.27857900  1
  N  1003  1  0.19979850  0.07418550  0.16668550  1
  N  1005  1  0.22908700  0.09255150  0.33426650  1
  N  1011  1  0.53971800  0.43350900  0.27877600  1
  N  1018  1  0.55934350  0.40259750  0.22142150  1
  N  1025  1  0.43873800  0.42960550  0.33329750  1
  N  1027  1  0.65404950  0.41119150  0.16573950  1
  N  1033  1  0.31851150  0.22310800  0.43163700  1
  N  1040  1  0.28078450  0.28046000  0.40071900  1
  N  1047  1  0.27205950  0.16858450  0.42773350  1
  N  1049  1  0.31979200  0.33614600  0.40930900  1
  N  1055  1  0.97135650  0.28067800  0.06835300  1
  N  1062  1  0.96009200  0.22332450  0.09927150  1
  N  1069  1  0.86646450  0.33519650  0.07226950  1
  N  1071  1  0.06338900  0.16764150  0.09066650  1
  N  1797  1  0.96179800  0.79942250  0.18726650  1
  N  1804  1  0.03816150  0.84361150  0.17347850  1
  N  1811  1  0.90312400  0.78018100  0.14294500  1
  N  1813  1  0.09684450  0.86284950  0.21779950  1
  N  1819  1  0.94664050  0.34361350  0.67347750  1
  N  1826  1  0.05338000  0.29941750  0.68728050  1
  N  1833  1  0.82438050  0.36285400  0.71778300  1
  N  1835  1  0.17563600  0.28017650  0.64297050  1
  N  1841  1  0.93971650  0.82840600  0.70245500  1
  N  1848  1  0.06031250  0.81461550  0.65830150  1
  N  1855  1  0.86181350  0.78407500  0.72167800  1
  N  1857  1  0.13820600  0.85894750  0.63907250  1
  N  1863  1  0.46869300  0.31459800  0.15828800  1
  N  1870  1  0.53126850  0.32840900  0.20246600  1
  N  1877  1  0.36568350  0.35891100  0.13904600  1
  N  1879  1  0.63428450  0.28410200  0.22170600  1
  N  1885  1  0.53480850  0.31541250  0.70390750  1
  N  1892  1  0.46521150  0.32760500  0.65683200  1
  N  1899  1  0.59157150  0.36028800  0.72362900  1
  N  1901  1  0.40844450  0.28273050  0.63711150  1
  N  1907  1  0.55225200  0.82760450  0.15683950  1
  N  1914  1  0.44775550  0.81541550  0.20390450  1
  N  1921  1  0.67360600  0.78272300  0.13712600  1
  N  1923  1  0.32639950  0.86029800  0.22361700  1
  N  1929  1  0.55834850  0.79798250  0.67426650  1
  N  1936  1  0.44166100  0.84504600  0.68647000  1
  N  1943  1  0.63483400  0.77825600  0.71914100  1
  N  1945  1  0.36517250  0.86477000  0.64159600  1
  N  1951  1  0.02870600  0.34504700  0.18646400  1
  N  1958  1  0.97126800  0.29798800  0.17426800  1
  N  1965  1  0.13035200  0.36476000  0.14158700  1
  N  1967  1  0.86963400  0.27826900  0.21914900  1
  N  2149  1  0.74982950  0.75312050  0.95916350  1
  N  2156  1  0.81849400  0.72224290  0.90179510  1
  N  2163  1  0.80019250  0.74920250  0.01368650  1
  N  2165  1  0.77089050  0.73084140  0.84610760  1
  N  2171  1  0.46029850  0.38987750  0.90159850  1
  N  2178  1  0.44069400  0.42078500  0.95895400  1
  N  2185  1  0.56126900  0.39378250  0.84707150  1
  N  2187  1  0.34598100  0.41219750  0.01463650  1
  N  2193  1  0.68147700  0.60029040  0.74873460  1
  N  2200  1  0.71918450  0.54294250  0.77966050  1
  N  2207  1  0.72793850  0.65481140  0.75263560  1
  N  2209  1  0.68018350  0.48725450  0.77106550  1
  N  2215  1  0.02865900  0.54271950  0.11200950  1
  N  2222  1  0.03992850  0.60007650  0.08109950  1
  N  2229  1  0.13355150  0.48820100  0.10809300  1
  N  2231  1  0.93663350  0.65575950  0.08970150  1
  N  2237  1  0.25015350  0.88989550  0.40158250  1
  N  2244  1  0.18148100  0.92077300  0.45895100  1
  N  2251  1  0.19979850  0.89381350  0.34705750  1
  N  2253  1  0.22908700  0.91217950  0.51463850  1
  N  2259  1  0.53971800  0.25313700  0.45914800  1
  N  2266  1  0.55934350  0.22222540  0.40179360  1
  N  2273  1  0.43873800  0.24923350  0.51366950  1
  N  2275  1  0.65404950  0.23081940  0.34611160  1
  N  2281  1  0.31851150  0.04273600  0.61200900  1
  N  2288  1  0.28078450  0.10008800  0.58109100  1
  N  2295  1  0.27205950  0.98821250  0.60810550  1
  N  2297  1  0.31979200  0.15577400  0.58968100  1
  N  2303  1  0.97135650  0.10030590  0.24872510  1
  N  2310  1  0.96009200  0.04295250  0.27964350  1
  N  2317  1  0.86646450  0.15482440  0.25264160  1
  N  2319  1  0.06338900  0.98726950  0.27103850  1
  O  8  1  0.97998650  0.88593500  0.94854000  1
  O  15  1  0.68236900  0.94303650  0.88385650  1
  O  17  1  0.84897250  0.95236700  0.93235500  1
  O  18  1  0.85651200  0.90321700  0.87093600  1
  O  42  1  0.81256450  0.61784350  0.55146450  1
  O  49  1  0.50742350  0.56069600  0.61616800  1
  O  51  1  0.73183750  0.55139750  0.56763550  1
  O  52  1  0.62882700  0.60052550  0.62907150  1
  O  76  1  0.86406000  0.95041050  0.61592450  1
  O  83  1  0.62356500  0.88572200  0.55881100  1
  O  85  1  0.79947350  0.93422700  0.54949400  1
  O  86  1  0.75787900  0.87280750  0.59863650  1
  O  110  1  0.42854150  0.55333700  0.88406200  1
  O  117  1  0.06624650  0.61804200  0.94117500  1
  O  119  1  0.28133600  0.56951700  0.95049000  1
  O  120  1  0.22748100  0.63094650  0.90135450  1
  O  144  1  0.02002000  0.11784600  0.05145500  1
  O  151  1  0.31762450  0.06072150  0.11614650  1
  O  153  1  0.15102100  0.05140500  0.06763700  1
  O  154  1  0.14348500  0.10054750  0.12906150  1
  O  178  1  0.18742450  0.38593350  0.44854450  1
  O  185  1  0.49258300  0.44306400  0.38382900  1
  O  187  1  0.26817000  0.45237300  0.43236400  1
  O  188  1  0.37116650  0.40324050  0.37092850  1
  O  212  1  0.13592600  0.05335600  0.38408400  1
  O  219  1  0.37643900  0.11804950  0.44117950  1
  O  221  1  0.20053050  0.06954450  0.45050650  1
  O  222  1  0.24211550  0.13096250  0.40136050  1
  O  246  1  0.57146800  0.45042000  0.11595000  1
  O  253  1  0.93376200  0.38573200  0.05881100  1
  O  255  1  0.71865550  0.43425250  0.04951150  1
  O  256  1  0.77253850  0.37281950  0.09864050  1
  O  1256  1  0.97998650  0.70556300  0.12891200  1
  O  1263  1  0.68236900  0.76266450  0.06422850  1
  O  1265  1  0.84897250  0.77199500  0.11272700  1
  O  1266  1  0.85651200  0.72284500  0.05130800  1
  O  1290  1  0.81256450  0.43747150  0.73183650  1
  O  1297  1  0.50742350  0.38032400  0.79654000  1
  O  1299  1  0.73183750  0.37102550  0.74800750  1
  O  1300  1  0.62882700  0.42015350  0.80944350  1
  O  1324  1  0.86406000  0.77003840  0.79629660  1
  O  1331  1  0.62356500  0.70534990  0.73918310  1
  O  1333  1  0.79947350  0.75385500  0.72986600  1
  O  1334  1  0.75787900  0.69243540  0.77900860  1
  O  1358  1  0.42854150  0.37296500  0.06443400  1
  O  1365  1  0.06624650  0.43767000  0.12154700  1
  O  1367  1  0.28133600  0.38914500  0.13086200  1
  O  1368  1  0.22748100  0.45057450  0.08172650  1
  O  1392  1  0.02002000  0.93747400  0.23182700  1
  O  1399  1  0.31762450  0.88034950  0.29651850  1
  O  1401  1  0.15102100  0.87103300  0.24800900  1
  O  1402  1  0.14348500  0.92017550  0.30943350  1
  O  1426  1  0.18742450  0.20556150  0.62891650  1
  O  1433  1  0.49258300  0.26269200  0.56420100  1
  O  1435  1  0.26817000  0.27200100  0.61273600  1
  O  1436  1  0.37116650  0.22286850  0.55130050  1
  O  1460  1  0.13592600  0.87298400  0.56445600  1
  O  1467  1  0.37643900  0.93767750  0.62155150  1
  O  1469  1  0.20053050  0.88917250  0.63087850  1
  O  1470  1  0.24211550  0.95059050  0.58173250  1
  O  1494  1  0.57146800  0.27004790  0.29632210  1
  O  1501  1  0.93376200  0.20535990  0.23918310  1
  O  1503  1  0.71865550  0.25388050  0.22988350  1
  O  1504  1  0.77253850  0.19244740  0.27901260  1
