# generated using pymatgen
data_CdH26(C7O)4
_symmetry_space_group_name_H-M   'P 1'
_cell_length_a   34.60408621
_cell_length_b   34.60438503
_cell_length_c   34.62295000
_cell_angle_alpha   119.98218763
_cell_angle_beta   119.98186395
_cell_angle_gamma   60.00039302
_symmetry_Int_Tables_number   1
_chemical_formula_structural   CdH26(C7O)4
_chemical_formula_sum   'Cd24 H624 C672 O96'
_cell_volume   29324.24356251
_cell_formula_units_Z   24
loop_
 _symmetry_equiv_pos_site_id
 _symmetry_equiv_pos_as_xyz
  1  'x, y, z'
loop_
 _atom_site_type_symbol
 _atom_site_label
 _atom_site_symmetry_multiplicity
 _atom_site_fract_x
 _atom_site_fract_y
 _atom_site_fract_z
 _atom_site_occupancy
  Cd  Cd0  1  0.47416000  0.07243000  0.07238000  1
  Cd  Cd1  1  0.02584000  0.57241000  0.57236000  1
  Cd  Cd2  1  0.47425000  0.92752000  0.47408000  1
  Cd  Cd3  1  0.97412000  0.02583000  0.57235000  1
  Cd  Cd4  1  0.52575000  0.07248000  0.52592000  1
  Cd  Cd5  1  0.42759000  0.02588000  0.42764000  1
  Cd  Cd6  1  0.07232000  0.47425000  0.47408000  1
  Cd  Cd7  1  0.02579000  0.42772000  0.02597000  1
  Cd  Cd8  1  0.97416000  0.42759000  0.42763000  1
  Cd  Cd9  1  0.47422000  0.52583000  0.92761000  1
  Cd  Cd10  1  0.07249000  0.92768000  0.52591000  1
  Cd  Cd11  1  0.07243000  0.52579000  0.07239000  1
  Cd  Cd12  1  0.97421000  0.57228000  0.97403000  1
  Cd  Cd13  1  0.52579000  0.47417000  0.07240000  1
  Cd  Cd14  1  0.92757000  0.47421000  0.92761000  1
  Cd  Cd15  1  0.57246000  0.02579000  0.02596000  1
  Cd  Cd16  1  0.92768000  0.52575000  0.52592000  1
  Cd  Cd17  1  0.42754000  0.97420000  0.97403000  1
  Cd  Cd18  1  0.02588000  0.97417000  0.42764000  1
  Cd  Cd19  1  0.42772000  0.57245000  0.02596000  1
  Cd  Cd20  1  0.52584000  0.92756000  0.92761000  1
  Cd  Cd21  1  0.57241000  0.97412000  0.57236000  1
  Cd  Cd22  1  0.92751000  0.07231000  0.47408000  1
  Cd  Cd23  1  0.57228000  0.42754000  0.97403000  1
  H  H24  1  0.44702000  0.68706000  0.95793000  1
  H  H25  1  0.79439000  0.99575000  0.22963000  1
  H  H26  1  0.71784000  0.57230000  0.09488000  1
  H  H27  1  0.42768000  0.09489000  0.71785000  1
  H  H28  1  0.59490000  0.92767000  0.21786000  1
  H  H29  1  0.50429000  0.06046000  0.29441000  1
  H  H30  1  0.12671000  0.18797000  0.77414000  1
  H  H31  1  0.33601000  0.04873000  0.92414000  1
  H  H32  1  0.44705000  0.04222000  0.17616000  1
  H  H33  1  0.80471000  0.57232000  0.28214000  1
  H  H34  1  0.10239000  0.22535000  0.99894000  1
  H  H35  1  0.62831000  0.77784000  0.36224000  1
  H  H36  1  0.72218000  0.86230000  0.45624000  1
  H  H37  1  0.46061000  0.66398000  0.07586000  1
  H  H38  1  0.99572000  0.79443000  0.56049000  1
  H  H39  1  0.92768000  0.59490000  0.30476000  1
  H  H40  1  0.93951000  0.49576000  0.72962000  1
  H  H41  1  0.26221000  0.43470000  0.55470000  1
  H  H42  1  0.64928000  0.05492000  0.81660000  1
  H  H43  1  0.00613000  0.70599000  0.25195000  1
  H  H44  1  0.74805000  0.70593000  0.46011000  1
  H  H45  1  0.50102000  0.72536000  0.39760000  1
  H  H46  1  0.27460000  0.49894000  0.17112000  1
  H  H47  1  0.31309000  0.95775000  0.44705000  1
  H  H48  1  0.74808000  0.53979000  0.99381000  1
  H  H49  1  0.96020000  0.49384000  0.20591000  1
  H  H50  1  0.39757000  0.27459000  0.17110000  1
  H  H51  1  0.70594000  0.74807000  0.99380000  1
  H  H52  1  0.62668000  0.72585000  0.31206000  1
  H  H53  1  0.55295000  0.95778000  0.82384000  1
  H  H54  1  0.37497000  0.49475000  0.78148000  1
  H  H55  1  0.41182000  0.87503000  0.00535000  1
  H  H56  1  0.67107000  0.09659000  0.49488000  1
  H  H57  1  0.54223000  0.94706000  0.67616000  1
  H  H58  1  0.60238000  0.50103000  0.27463000  1
  H  H59  1  0.66396000  0.92423000  0.53942000  1
  H  H60  1  0.38753000  0.31658000  0.14913000  1
  H  H61  1  0.90511000  0.80471000  0.28214000  1
  H  H62  1  0.99480000  0.71844000  0.58821000  1
  H  H63  1  0.71782000  0.90511000  0.19524000  1
  H  H64  1  0.56050000  0.22952000  0.99551000  1
  H  H65  1  0.50613000  0.20594000  0.96012000  1
  H  H66  1  0.96074000  0.49853000  0.15822000  1
  H  H67  1  0.67113000  0.72727000  0.90341000  1
  H  H68  1  0.72540000  0.50106000  0.82888000  1
  H  H69  1  0.58818000  0.12497000  0.99465000  1
  H  H70  1  0.83604000  0.03941000  0.42420000  1
  H  H71  1  0.27464000  0.39762000  0.50107000  1
  H  H72  1  0.93463000  0.94529000  0.64209000  1
  H  H73  1  0.07232000  0.21784000  0.59489000  1
  H  H74  1  0.03979000  0.24807000  0.49380000  1
  H  H75  1  0.49387000  0.96018000  0.24806000  1
  H  H76  1  0.22586000  0.12668000  0.81207000  1
  H  H77  1  0.06537000  0.05471000  0.35791000  1
  H  H78  1  0.86224000  0.54386000  0.27781000  1
  H  H79  1  0.49898000  0.27464000  0.60239000  1
  H  H80  1  0.35778000  0.93469000  0.05469000  1
  H  H81  1  0.21843000  0.49481000  0.08821000  1
  H  H82  1  0.70554000  0.72952000  0.49554000  1
  H  H83  1  0.26218000  0.85786000  0.56538000  1
  H  H84  1  0.03926000  0.50146000  0.84177000  1
  H  H85  1  0.96070000  0.84175000  0.30091000  1
  H  H86  1  0.21845000  0.91174000  0.62504000  1
  H  H87  1  0.58826000  0.28154000  0.87496000  1
  H  H88  1  0.16400000  0.42429000  0.54882000  1
  H  H89  1  0.05493000  0.11240000  0.81661000  1
  H  H90  1  0.62670000  0.95946000  0.27414000  1
  H  H91  1  0.55298000  0.31294000  0.04207000  1
  H  H92  1  0.38762000  0.85069000  0.55495000  1
  H  H93  1  0.76219000  0.94535000  0.06539000  1
  H  H94  1  0.80097000  0.65820000  0.46066000  1
  H  H95  1  0.69523000  0.78213000  0.07219000  1
  H  H96  1  0.77785000  0.63775000  0.37172000  1
  H  H97  1  0.45610000  0.27785000  0.86225000  1
  H  H98  1  0.92768000  0.69529000  0.21787000  1
  H  H99  1  0.82385000  0.44702000  0.95793000  1
  H  H100  1  0.85069000  0.31664000  0.55494000  1
  H  H101  1  0.80106000  0.00145000  0.34177000  1
  H  H102  1  0.78150000  0.62497000  0.49465000  1
  H  H103  1  0.34180000  0.99851000  0.53934000  1
  H  H104  1  0.13776000  0.45613000  0.72217000  1
  H  H105  1  0.71846000  0.99484000  0.12504000  1
  H  H106  1  0.05471000  0.23783000  0.35791000  1
  H  H107  1  0.00500000  0.22727000  0.40340000  1
  H  H108  1  0.87171000  0.86224000  0.27782000  1
  H  H109  1  0.61238000  0.14931000  0.44505000  1
  H  H110  1  0.30096000  0.50150000  0.96065000  1
  H  H111  1  0.72952000  0.06048000  0.49553000  1
  H  H112  1  0.83600000  0.57571000  0.45118000  1
  H  H113  1  0.77781000  0.62826000  0.04377000  1
  H  H114  1  0.82378000  0.04219000  0.31298000  1
  H  H115  1  0.23781000  0.05465000  0.93461000  1
  H  H116  1  0.62503000  0.50525000  0.21852000  1
  H  H117  1  0.00105000  0.22540000  0.32888000  1
  H  H118  1  0.04388000  0.22215000  0.62828000  1
  H  H119  1  0.63776000  0.62829000  0.22217000  1
  H  H120  1  0.04219000  0.44702000  0.31299000  1
  H  H121  1  0.30100000  0.15822000  0.49846000  1
  H  H122  1  0.29401000  0.46017000  0.74805000  1
  H  H123  1  0.09664000  0.67112000  0.27276000  1
  H  H124  1  0.32378000  0.94703000  0.81301000  1
  H  H125  1  0.87333000  0.54047000  0.18794000  1
  H  H126  1  0.92424000  0.66402000  0.04880000  1
  H  H127  1  0.99899000  0.32876000  0.10240000  1
  H  H128  1  0.89757000  0.99895000  0.67112000  1
  H  H129  1  0.00499000  0.17112000  0.77276000  1
  H  H130  1  0.68336000  0.61238000  0.44505000  1
  H  H131  1  0.21784000  0.30473000  0.59488000  1
  H  H132  1  0.12668000  0.45953000  0.81207000  1
  H  H133  1  0.28154000  0.00516000  0.87496000  1
  H  H134  1  0.49481000  0.37497000  0.08821000  1
  H  H135  1  0.94703000  0.54220000  0.81301000  1
  H  H136  1  0.24808000  0.20595000  0.49381000  1
  H  H137  1  0.22967000  0.56048000  0.79446000  1
  H  H138  1  0.22219000  0.37174000  0.95623000  1
  H  H139  1  0.19903000  0.34180000  0.53934000  1
  H  H140  1  0.37175000  0.36229000  0.95622000  1
  H  H141  1  0.99387000  0.25195000  0.53989000  1
  H  H142  1  0.77414000  0.87332000  0.18793000  1
  H  H143  1  0.85075000  0.44506000  0.61242000  1
  H  H144  1  0.44502000  0.38754000  0.14914000  1
  H  H145  1  0.49576000  0.29435000  0.72962000  1
  H  H146  1  0.21850000  0.37502000  0.50534000  1
  H  H147  1  0.04877000  0.33604000  0.46058000  1
  H  H148  1  0.96076000  0.69900000  0.50154000  1
  H  H149  1  0.35784000  0.76219000  0.06538000  1
  H  H150  1  0.44506000  0.31661000  0.61242000  1
  H  H151  1  0.07233000  0.30471000  0.78214000  1
  H  H152  1  0.49571000  0.93954000  0.70558000  1
  H  H153  1  0.36230000  0.22218000  0.95622000  1
  H  H154  1  0.77272000  0.82888000  0.59662000  1
  H  H155  1  0.49500000  0.32887000  0.09659000  1
  H  H156  1  0.40510000  0.21782000  0.69524000  1
  H  H157  1  0.50613000  0.03982000  0.75194000  1
  H  H158  1  0.24805000  0.50614000  0.96012000  1
  H  H159  1  0.53946000  0.04880000  0.66415000  1
  H  H160  1  0.66399000  0.95127000  0.07586000  1
  H  H161  1  0.59667000  0.22725000  0.82890000  1
  H  H162  1  0.25193000  0.46020000  0.00619000  1
  H  H163  1  0.99503000  0.40332000  0.17110000  1
  H  H164  1  0.68793000  0.72581000  0.04038000  1
  H  H165  1  0.55498000  0.61246000  0.85086000  1
  H  H166  1  0.93465000  0.35782000  0.23779000  1
  H  H167  1  0.58824000  0.00526000  0.71852000  1
  H  H168  1  0.64222000  0.06531000  0.94531000  1
  H  H169  1  0.04873000  0.53940000  0.92415000  1
  H  H170  1  0.10243000  0.00105000  0.32888000  1
  H  H171  1  0.40334000  0.99502000  0.22724000  1
  H  H172  1  0.50515000  0.78155000  0.37496000  1
  H  H173  1  0.49387000  0.79406000  0.03988000  1
  H  H174  1  0.06049000  0.50424000  0.27038000  1
  H  H175  1  0.69527000  0.92769000  0.40512000  1
  H  H176  1  0.72585000  0.95954000  0.31206000  1
  H  H177  1  0.45953000  0.22586000  0.81207000  1
  H  H178  1  0.95775000  0.17621000  0.44705000  1
  H  H179  1  0.78216000  0.69527000  0.40511000  1
  H  H180  1  0.16396000  0.96058000  0.57579000  1
  H  H181  1  0.65823000  0.80101000  0.99848000  1
  H  H182  1  0.54226000  0.18689000  0.05293000  1
  H  H183  1  0.87329000  0.81203000  0.22586000  1
  H  H184  1  0.69529000  0.59490000  0.21786000  1
  H  H185  1  0.57583000  0.54882000  0.16412000  1
  H  H186  1  0.31658000  0.44502000  0.14914000  1
  H  H187  1  0.54390000  0.72215000  0.13775000  1
  H  H188  1  0.29440000  0.49572000  0.06047000  1
  H  H189  1  0.96059000  0.45125000  0.57580000  1
  H  H190  1  0.49897000  0.82877000  0.72536000  1
  H  H191  1  0.45780000  0.67622000  0.18699000  1
  H  H192  1  0.36224000  0.37170000  0.77782000  1
  H  H193  1  0.29407000  0.99386000  0.53988000  1
  H  H194  1  0.05497000  0.18341000  0.35085000  1
  H  H195  1  0.35068000  0.88761000  0.05494000  1
  H  H196  1  0.80101000  0.53924000  0.99848000  1
  H  H197  1  0.90518000  0.71786000  0.42781000  1
  H  H198  1  0.77048000  0.79450000  0.00448000  1
  H  H199  1  0.22536000  0.67120000  0.99894000  1
  H  H200  1  0.15822000  0.03924000  0.49846000  1
  H  H201  1  0.11239000  0.18335000  0.94506000  1
  H  H202  1  0.04391000  0.37169000  0.63776000  1
  H  H203  1  0.73779000  0.56530000  0.44530000  1
  H  H204  1  0.37330000  0.04053000  0.72585000  1
  H  H205  1  0.28157000  0.12502000  0.41178000  1
  H  H206  1  0.44702000  0.82378000  0.31299000  1
  H  H207  1  0.41174000  0.71846000  0.12504000  1
  H  H208  1  0.70561000  0.50428000  0.93954000  1
  H  H209  1  0.49499000  0.90337000  0.72724000  1
  H  H210  1  0.07232000  0.40510000  0.69524000  1
  H  H211  1  0.64932000  0.11239000  0.94506000  1
  H  H212  1  0.00148000  0.80097000  0.46066000  1
  H  H213  1  0.82379000  0.68691000  0.55295000  1
  H  H214  1  0.29406000  0.25192000  0.00619000  1
  H  H215  1  0.79451000  0.43950000  0.00449000  1
  H  H216  1  0.31207000  0.27418000  0.95961000  1
  H  H217  1  0.93952000  0.29446000  0.50446000  1
  H  H218  1  0.19529000  0.42768000  0.71786000  1
  H  H219  1  0.61240000  0.55493000  0.31660000  1
  H  H220  1  0.80474000  0.71783000  0.09488000  1
  H  H221  1  0.57571000  0.83606000  0.96056000  1
  H  H222  1  0.81203000  0.77415000  0.12668000  1
  H  H223  1  0.35782000  0.94532000  0.23779000  1
  H  H224  1  0.77418000  0.81207000  0.45961000  1
  H  H225  1  0.50424000  0.70565000  0.27038000  1
  H  H226  1  0.81208000  0.87335000  0.45961000  1
  H  H227  1  0.99500000  0.77273000  0.59660000  1
  H  H228  1  0.49853000  0.69896000  0.15822000  1
  H  H229  1  0.25195000  0.29406000  0.53988000  1
  H  H230  1  0.40339000  0.82892000  0.00510000  1
  H  H231  1  0.72215000  0.54387000  0.12828000  1
  H  H232  1  0.31312000  0.55295000  0.82385000  1
  H  H233  1  0.81296000  0.05296000  0.54207000  1
  H  H234  1  0.99474000  0.87497000  0.28147000  1
  H  H235  1  0.40333000  0.77275000  0.17110000  1
  H  H236  1  0.99895000  0.77460000  0.67112000  1
  H  H237  1  0.49485000  0.21845000  0.62504000  1
  H  H238  1  0.05297000  0.67615000  0.54208000  1
  H  H239  1  0.22585000  0.45950000  0.87332000  1
  H  H240  1  0.77784000  0.95609000  0.36223000  1
  H  H241  1  0.67123000  0.00102000  0.77464000  1
  H  H242  1  0.07589000  0.53945000  0.66414000  1
  H  H243  1  0.46055000  0.92423000  0.04881000  1
  H  H244  1  0.99387000  0.29401000  0.74805000  1
  H  H245  1  0.00151000  0.65826000  0.19907000  1
  H  H246  1  0.53979000  0.70595000  0.99382000  1
  H  H247  1  0.85779000  0.26221000  0.55470000  1
  H  H248  1  0.68689000  0.44704000  0.17615000  1
  H  H249  1  0.99898000  0.89761000  0.22535000  1
  H  H250  1  0.55472000  0.56536000  0.85793000  1
  H  H251  1  0.99484000  0.41174000  0.12504000  1
  H  H252  1  0.95946000  0.68798000  0.27415000  1
  H  H253  1  0.23784000  0.06537000  0.35792000  1
  H  H254  1  0.04054000  0.31202000  0.72585000  1
  H  H255  1  0.99568000  0.77034000  0.20554000  1
  H  H256  1  0.12665000  0.22582000  0.54040000  1
  H  H257  1  0.72536000  0.60238000  0.49893000  1
  H  H258  1  0.72584000  0.68798000  0.37332000  1
  H  H259  1  0.81659000  0.88753000  0.64915000  1
  H  H260  1  0.32888000  0.49500000  0.72724000  1
  H  H261  1  0.05294000  0.81313000  0.32384000  1
  H  H262  1  0.81665000  0.35068000  0.05494000  1
  H  H263  1  0.40510000  0.07232000  0.78213000  1
  H  H264  1  0.11241000  0.64928000  0.81661000  1
  H  H265  1  0.77465000  0.99899000  0.10241000  1
  H  H266  1  0.12497000  0.28150000  0.99465000  1
  H  H267  1  0.43950000  0.77047000  0.00447000  1
  H  H268  1  0.20599000  0.50613000  0.75194000  1
  H  H269  1  0.05468000  0.06534000  0.76220000  1
  H  H270  1  0.15826000  0.50154000  0.69909000  1
  H  H271  1  0.50500000  0.67112000  0.90339000  1
  H  H272  1  0.13775000  0.27785000  0.87172000  1
  H  H273  1  0.75192000  0.79405000  0.50618000  1
  H  H274  1  0.26216000  0.44528000  0.14208000  1
  H  H275  1  0.90334000  0.49500000  0.67110000  1
  H  H276  1  0.49847000  0.96071000  0.30092000  1
  H  H277  1  0.37336000  0.31207000  0.95962000  1
  H  H278  1  0.49894000  0.39758000  0.17111000  1
  H  H279  1  0.55298000  0.17622000  0.68701000  1
  H  H280  1  0.94508000  0.88760000  0.18339000  1
  H  H281  1  0.20549000  0.56050000  0.99551000  1
  H  H282  1  0.49475000  0.91176000  0.78148000  1
  H  H283  1  0.50153000  0.03929000  0.69908000  1
  H  H284  1  0.19523000  0.09482000  0.57219000  1
  H  H285  1  0.45777000  0.05294000  0.32384000  1
  H  H286  1  0.69900000  0.84177000  0.50153000  1
  H  H287  1  0.77415000  0.54050000  0.12668000  1
  H  H288  1  0.50616000  0.24813000  0.79410000  1
  H  H289  1  0.23778000  0.64222000  0.94530000  1
  H  H290  1  0.00102000  0.10239000  0.77464000  1
  H  H291  1  0.04047000  0.37332000  0.68794000  1
  H  H292  1  0.37503000  0.91182000  0.50534000  1
  H  H293  1  0.09483000  0.28214000  0.57220000  1
  H  H294  1  0.06531000  0.23778000  0.94531000  1
  H  H295  1  0.55494000  0.68339000  0.38758000  1
  H  H296  1  0.00616000  0.53981000  0.29410000  1
  H  H297  1  0.95123000  0.66396000  0.53942000  1
  H  H298  1  0.57232000  0.90511000  0.28214000  1
  H  H299  1  0.04050000  0.27416000  0.62668000  1
  H  H300  1  0.22953000  0.20550000  0.99552000  1
  H  H301  1  0.03948000  0.83600000  0.45118000  1
  H  H302  1  0.28150000  0.58818000  0.99465000  1
  H  H303  1  0.84180000  0.69904000  0.03934000  1
  H  H304  1  0.00497000  0.59667000  0.82889000  1
  H  H305  1  0.17622000  0.31309000  0.44706000  1
  H  H306  1  0.32893000  0.90340000  0.50511000  1
  H  H307  1  0.00432000  0.22966000  0.79446000  1
  H  H308  1  0.17123000  0.60238000  0.27464000  1
  H  H309  1  0.50499000  0.72725000  0.32889000  1
  H  H310  1  0.99501000  0.82888000  0.22723000  1
  H  H311  1  0.72966000  0.50430000  0.29442000  1
  H  H312  1  0.64926000  0.18338000  0.88757000  1
  H  H313  1  0.45774000  0.81310000  0.94706000  1
  H  H314  1  0.54387000  0.87171000  0.27782000  1
  H  H315  1  0.11247000  0.05497000  0.35085000  1
  H  H316  1  0.44528000  0.43463000  0.14206000  1
  H  H317  1  0.86226000  0.72215000  0.12828000  1
  H  H318  1  0.94532000  0.93465000  0.23779000  1
  H  H319  1  0.45125000  0.16396000  0.57580000  1
  H  H320  1  0.09660000  0.72722000  0.49489000  1
  H  H321  1  0.91182000  0.21849000  0.50534000  1
  H  H322  1  0.14927000  0.61240000  0.31660000  1
  H  H323  1  0.78213000  0.59483000  0.07219000  1
  H  H324  1  0.00526000  0.12503000  0.71853000  1
  H  H325  1  0.45950000  0.18797000  0.87332000  1
  H  H326  1  0.75187000  0.96019000  0.20590000  1
  H  H327  1  0.42430000  0.96053000  0.54883000  1
  H  H328  1  0.17112000  0.00499000  0.40338000  1
  H  H329  1  0.62825000  0.63770000  0.04377000  1
  H  H330  1  0.03947000  0.57583000  0.16412000  1
  H  H331  1  0.94507000  0.35074000  0.11243000  1
  H  H332  1  0.78155000  0.08826000  0.37496000  1
  H  H333  1  0.96018000  0.79401000  0.24806000  1
  H  H334  1  0.73782000  0.14214000  0.43462000  1
  H  H335  1  0.50147000  0.30104000  0.84178000  1
  H  H336  1  0.94703000  0.32384000  0.45791000  1
  H  H337  1  0.17622000  0.95780000  0.68700000  1
  H  H338  1  0.10239000  0.67123000  0.77464000  1
  H  H339  1  0.93954000  0.27034000  0.70558000  1
  H  H340  1  0.62829000  0.95613000  0.22218000  1
  H  H341  1  0.29435000  0.93951000  0.72962000  1
  H  H342  1  0.49573000  0.27035000  0.06047000  1
  H  H343  1  0.89761000  0.32877000  0.22536000  1
  H  H344  1  0.06535000  0.64218000  0.76221000  1
  H  H345  1  0.32385000  0.18704000  0.45792000  1
  H  H346  1  0.18797000  0.22584000  0.87331000  1
  H  H347  1  0.27279000  0.32892000  0.50511000  1
  H  H348  1  0.18689000  0.32378000  0.05293000  1
  H  H349  1  0.73784000  0.55472000  0.85792000  1
  H  H350  1  0.56048000  0.00431000  0.79445000  1
  H  H351  1  0.12825000  0.27782000  0.54377000  1
  H  H352  1  0.90340000  0.27277000  0.50510000  1
  H  H353  1  0.42429000  0.16394000  0.03944000  1
  H  H354  1  0.32877000  0.77464000  0.10240000  1
  H  H355  1  0.03941000  0.54875000  0.42420000  1
  H  H356  1  0.09490000  0.42769000  0.80477000  1
  H  H357  1  0.20594000  0.03979000  0.49380000  1
  H  H358  1  0.04222000  0.68689000  0.17616000  1
  H  H359  1  0.27419000  0.37335000  0.95961000  1
  H  H360  1  0.70565000  0.06048000  0.27037000  1
  H  H361  1  0.38760000  0.44506000  0.68339000  1
  H  H362  1  0.68798000  0.62670000  0.27414000  1
  H  H363  1  0.89762000  0.77465000  0.00107000  1
  H  H364  1  0.22216000  0.36225000  0.62829000  1
  H  H365  1  0.95120000  0.92411000  0.33586000  1
  H  H366  1  0.27785000  0.12830000  0.86225000  1
  H  H367  1  0.86230000  0.87175000  0.45623000  1
  H  H368  1  0.37169000  0.22216000  0.63776000  1
  H  H369  1  0.31665000  0.38761000  0.55495000  1
  H  H370  1  0.32877000  0.99898000  0.22536000  1
  H  H371  1  0.77035000  0.99570000  0.56048000  1
  H  H372  1  0.53927000  0.80105000  0.34177000  1
  H  H373  1  0.46021000  0.29405000  0.00618000  1
  H  H374  1  0.22216000  0.04390000  0.63775000  1
  H  H375  1  0.77278000  0.40339000  0.00510000  1
  H  H376  1  0.00614000  0.74805000  0.46012000  1
  H  H377  1  0.81662000  0.94507000  0.11243000  1
  H  H378  1  0.50151000  0.15819000  0.96066000  1
  H  H379  1  0.70593000  0.00614000  0.46012000  1
  H  H380  1  0.88759000  0.35072000  0.18338000  1
  H  H381  1  0.45118000  0.96053000  0.83588000  1
  H  H382  1  0.30104000  0.03926000  0.84177000  1
  H  H383  1  0.82881000  0.27464000  0.50107000  1
  H  H384  1  0.12830000  0.45610000  0.86225000  1
  H  H385  1  0.46019000  0.25187000  0.70590000  1
  H  H386  1  0.27275000  0.90334000  0.67110000  1
  H  H387  1  0.90336000  0.32888000  0.72724000  1
  H  H388  1  0.50103000  0.17122000  0.27463000  1
  H  H389  1  0.64216000  0.23781000  0.93462000  1
  H  H390  1  0.49384000  0.75187000  0.20590000  1
  H  H391  1  0.55494000  0.14927000  0.31661000  1
  H  H392  1  0.99575000  0.43950000  0.22964000  1
  H  H393  1  0.56537000  0.73784000  0.85793000  1
  H  H394  1  0.57231000  0.80474000  0.09488000  1
  H  H395  1  0.28217000  0.42770000  0.90513000  1
  H  H396  1  0.07576000  0.33597000  0.95119000  1
  H  H397  1  0.00516000  0.58826000  0.87496000  1
  H  H398  1  0.82888000  0.40335000  0.22724000  1
  H  H399  1  0.08824000  0.62503000  0.21852000  1
  H  H400  1  0.72215000  0.87170000  0.13775000  1
  H  H401  1  0.06048000  0.70554000  0.49554000  1
  H  H402  1  0.50501000  0.09663000  0.27276000  1
  H  H403  1  0.13770000  0.12825000  0.54377000  1
  H  H404  1  0.72721000  0.67108000  0.49489000  1
  H  H405  1  0.49850000  0.84181000  0.03935000  1
  H  H406  1  0.82878000  0.49898000  0.60240000  1
  H  H407  1  0.27034000  0.49570000  0.70558000  1
  H  H408  1  0.54875000  0.83604000  0.42420000  1
  H  H409  1  0.88754000  0.94503000  0.64916000  1
  H  H410  1  0.20561000  0.00425000  0.77036000  1
  H  H411  1  0.53946000  0.07577000  0.95120000  1
  H  H412  1  0.44507000  0.85073000  0.68340000  1
  H  H413  1  0.77033000  0.43952000  0.20554000  1
  H  H414  1  0.68339000  0.14924000  0.38757000  1
  H  H415  1  0.66402000  0.46054000  0.04880000  1
  H  H416  1  0.31202000  0.04049000  0.62667000  1
  H  H417  1  0.05297000  0.45779000  0.18698000  1
  H  H418  1  0.81203000  0.54054000  0.22586000  1
  H  H419  1  0.53924000  0.65823000  0.99848000  1
  H  H420  1  0.53982000  0.00613000  0.25194000  1
  H  H421  1  0.06046000  0.72965000  0.29441000  1
  H  H422  1  0.43950000  0.79439000  0.22963000  1
  H  H423  1  0.46073000  0.19894000  0.65822000  1
  H  H424  1  0.77465000  0.32880000  0.00107000  1
  H  H425  1  0.45946000  0.12671000  0.77414000  1
  H  H426  1  0.27048000  0.93952000  0.50447000  1
  H  H427  1  0.19899000  0.46076000  0.00152000  1
  H  H428  1  0.18687000  0.54223000  0.67616000  1
  H  H429  1  0.27035000  0.29439000  0.06047000  1
  H  H430  1  0.24813000  0.03980000  0.79408000  1
  H  H431  1  0.17122000  0.50102000  0.39760000  1
  H  H432  1  0.78157000  0.50519000  0.91179000  1
  H  H433  1  0.18338000  0.05493000  0.88757000  1
  H  H434  1  0.79406000  0.96021000  0.50619000  1
  H  H435  1  0.82888000  0.99501000  0.59662000  1
  H  H436  1  0.44534000  0.26218000  0.56537000  1
  H  H437  1  0.25187000  0.99384000  0.70590000  1
  H  H438  1  0.37332000  0.27415000  0.68794000  1
  H  H439  1  0.79443000  0.77035000  0.56049000  1
  H  H440  1  0.95953000  0.62667000  0.31205000  1
  H  H441  1  0.30477000  0.21786000  0.92780000  1
  H  H442  1  0.03924000  0.30100000  0.49846000  1
  H  H443  1  0.95781000  0.55298000  0.68701000  1
  H  H444  1  0.12503000  0.00520000  0.41179000  1
  H  H445  1  0.60243000  0.72540000  0.82889000  1
  H  H446  1  0.04225000  0.82379000  0.55295000  1
  H  H447  1  0.45613000  0.12828000  0.72217000  1
  H  H448  1  0.72965000  0.70561000  0.93953000  1
  H  H449  1  0.00429000  0.20557000  0.43952000  1
  H  H450  1  0.96053000  0.42417000  0.83587000  1
  H  H451  1  0.27273000  0.49499000  0.09659000  1
  H  H452  1  0.03983000  0.20599000  0.75195000  1
  H  H453  1  0.54220000  0.32377000  0.81300000  1
  H  H454  1  0.87503000  0.71850000  0.00535000  1
  H  H455  1  0.18798000  0.45946000  0.77415000  1
  H  H456  1  0.65827000  0.53929000  0.19907000  1
  H  H457  1  0.22536000  0.00101000  0.89760000  1
  H  H458  1  0.67622000  0.45774000  0.94706000  1
  H  H459  1  0.36225000  0.04388000  0.62828000  1
  H  H460  1  0.69896000  0.96073000  0.15822000  1
  H  H461  1  0.14218000  0.56534000  0.26221000  1
  H  H462  1  0.87336000  0.77418000  0.45961000  1
  H  H463  1  0.62503000  0.78157000  0.91179000  1
  H  H464  1  0.50519000  0.62502000  0.91178000  1
  H  H465  1  0.59661000  0.17107000  0.99489000  1
  H  H466  1  0.27785000  0.45612000  0.87171000  1
  H  H467  1  0.28214000  0.19522000  0.57218000  1
  H  H468  1  0.99852000  0.19902000  0.53933000  1
  H  H469  1  0.67615000  0.81296000  0.54208000  1
  H  H470  1  0.85786000  0.44534000  0.56538000  1
  H  H471  1  0.95778000  0.31311000  0.82384000  1
  H  H472  1  0.18335000  0.64932000  0.94506000  1
  H  H473  1  0.16393000  0.45121000  0.03943000  1
  H  H474  1  0.79401000  0.49387000  0.24806000  1
  H  H475  1  0.03980000  0.50615000  0.79408000  1
  H  H476  1  0.27464000  0.82877000  0.60239000  1
  H  H477  1  0.45613000  0.13774000  0.87172000  1
  H  H478  1  0.67123000  0.22535000  0.89759000  1
  H  H479  1  0.19527000  0.28216000  0.90512000  1
  H  H480  1  0.96053000  0.16400000  0.54883000  1
  H  H481  1  0.32880000  0.89761000  0.00106000  1
  H  H482  1  0.67622000  0.05297000  0.18699000  1
  H  H483  1  0.92769000  0.78216000  0.40512000  1
  H  H484  1  0.55469000  0.14217000  0.26220000  1
  H  H485  1  0.00520000  0.28156000  0.41179000  1
  H  H486  1  0.85783000  0.43466000  0.73780000  1
  H  H487  1  0.57570000  0.03947000  0.45117000  1
  H  H488  1  0.91174000  0.49485000  0.62505000  1
  H  H489  1  0.96021000  0.75192000  0.50618000  1
  H  H490  1  0.31202000  0.37329000  0.72585000  1
  H  H491  1  0.18704000  0.94703000  0.45791000  1
  H  H492  1  0.46071000  0.99848000  0.80093000  1
  H  H493  1  0.32887000  0.27273000  0.09659000  1
  H  H494  1  0.43953000  0.99568000  0.20555000  1
  H  H495  1  0.54054000  0.87329000  0.22585000  1
  H  H496  1  0.76216000  0.93463000  0.64208000  1
  H  H497  1  0.93469000  0.76221000  0.05468000  1
  H  H498  1  0.34177000  0.19899000  0.00152000  1
  H  H499  1  0.19894000  0.99855000  0.65823000  1
  H  H500  1  0.50106000  0.60242000  0.82888000  1
  H  H501  1  0.68706000  0.82385000  0.95793000  1
  H  H502  1  0.81313000  0.45777000  0.32384000  1
  H  H503  1  0.40517000  0.30477000  0.92780000  1
  H  H504  1  0.71843000  0.87498000  0.58821000  1
  H  H505  1  0.00145000  0.53927000  0.34178000  1
  H  H506  1  0.63770000  0.77781000  0.04376000  1
  H  H507  1  0.34173000  0.46070000  0.80092000  1
  H  H508  1  0.22722000  0.59661000  0.99490000  1
  H  H509  1  0.82893000  0.77278000  0.00509000  1
  H  H510  1  0.42417000  0.45118000  0.83588000  1
  H  H511  1  0.50525000  0.08824000  0.21852000  1
  H  H512  1  0.95609000  0.62831000  0.36224000  1
  H  H513  1  0.37497000  0.21843000  0.08821000  1
  H  H514  1  0.14925000  0.55494000  0.38758000  1
  H  H515  1  0.09666000  0.50500000  0.32890000  1
  H  H516  1  0.72581000  0.62664000  0.04038000  1
  H  H517  1  0.94535000  0.35785000  0.06539000  1
  H  H518  1  0.77460000  0.89757000  0.67112000  1
  H  H519  1  0.84175000  0.49846000  0.30091000  1
  H  H520  1  0.22728000  0.17112000  0.40338000  1
  H  H521  1  0.94529000  0.76216000  0.64208000  1
  H  H522  1  0.45121000  0.42429000  0.03944000  1
  H  H523  1  0.31661000  0.85075000  0.61242000  1
  H  H524  1  0.69904000  0.49849000  0.03934000  1
  H  H525  1  0.59666000  0.00498000  0.77275000  1
  H  H526  1  0.78218000  0.92768000  0.30476000  1
  H  H527  1  0.61247000  0.68341000  0.85085000  1
  H  H528  1  0.05493000  0.64926000  0.88757000  1
  H  H529  1  0.28218000  0.09489000  0.80476000  1
  H  H530  1  0.43466000  0.44531000  0.73780000  1
  H  H531  1  0.20594000  0.24805000  0.96012000  1
  H  H532  1  0.68342000  0.55498000  0.85086000  1
  H  H533  1  0.43463000  0.26216000  0.14207000  1
  H  H534  1  0.22965000  0.00430000  0.43951000  1
  H  H535  1  0.39763000  0.82880000  0.50107000  1
  H  H536  1  0.46077000  0.34176000  0.00151000  1
  H  H537  1  0.67120000  0.10238000  0.99893000  1
  H  H538  1  0.39762000  0.49897000  0.72536000  1
  H  H539  1  0.84178000  0.96076000  0.50154000  1
  H  H540  1  0.99384000  0.46019000  0.70590000  1
  H  H541  1  0.20558000  0.22965000  0.43952000  1
  H  H542  1  0.95612000  0.77785000  0.37172000  1
  H  H543  1  0.33604000  0.07577000  0.46058000  1
  H  H544  1  0.21782000  0.07232000  0.69524000  1
  H  H545  1  0.99855000  0.46073000  0.65822000  1
  H  H546  1  0.85073000  0.38760000  0.68340000  1
  H  H547  1  0.14214000  0.55466000  0.43462000  1
  H  H548  1  0.54883000  0.03947000  0.16413000  1
  H  H549  1  0.67112000  0.50500000  0.27276000  1
  H  H550  1  0.27782000  0.13770000  0.54376000  1
  H  H551  1  0.54050000  0.81203000  0.12668000  1
  H  H552  1  0.21787000  0.40517000  0.92781000  1
  H  H553  1  0.87497000  0.41176000  0.28147000  1
  H  H554  1  0.37171000  0.04387000  0.77782000  1
  H  H555  1  0.07577000  0.04877000  0.46058000  1
  H  H556  1  0.95612000  0.63776000  0.22218000  1
  H  H557  1  0.55466000  0.73781000  0.43462000  1
  H  H558  1  0.53981000  0.74813000  0.29410000  1
  H  H559  1  0.32378000  0.54226000  0.05294000  1
  H  H560  1  0.44531000  0.85783000  0.73780000  1
  H  H561  1  0.80477000  0.90518000  0.42781000  1
  H  H562  1  0.33598000  0.53945000  0.95119000  1
  H  H563  1  0.92423000  0.95123000  0.53942000  1
  H  H564  1  0.87175000  0.72218000  0.45623000  1
  H  H565  1  0.29447000  0.27048000  0.50447000  1
  H  H566  1  0.27416000  0.31202000  0.62668000  1
  H  H567  1  0.64218000  0.05468000  0.76220000  1
  H  H568  1  0.09489000  0.19528000  0.71785000  1
  H  H569  1  0.95127000  0.46060000  0.07585000  1
  H  H570  1  0.71786000  0.80477000  0.42781000  1
  H  H571  1  0.42769000  0.19526000  0.90511000  1
  H  H572  1  0.08826000  0.50515000  0.37495000  1
  H  H573  1  0.03930000  0.15825000  0.69908000  1
  H  H574  1  0.14931000  0.68336000  0.44506000  1
  H  H575  1  0.46054000  0.95120000  0.33585000  1
  H  H576  1  0.82877000  0.39761000  0.72535000  1
  H  H577  1  0.72725000  0.09666000  0.32890000  1
  H  H578  1  0.27415000  0.04046000  0.68794000  1
  H  H579  1  0.35074000  0.81662000  0.11243000  1
  H  H580  1  0.04881000  0.07589000  0.66415000  1
  H  H581  1  0.56534000  0.55469000  0.26220000  1
  H  H582  1  0.04388000  0.36224000  0.77782000  1
  H  H583  1  0.63775000  0.95612000  0.37171000  1
  H  H584  1  0.94706000  0.18687000  0.67616000  1
  H  H585  1  0.59483000  0.69523000  0.07219000  1
  H  H586  1  0.99849000  0.34174000  0.80093000  1
  H  H587  1  0.65820000  0.00149000  0.46066000  1
  H  H588  1  0.30473000  0.07231000  0.59488000  1
  H  H589  1  0.87170000  0.54390000  0.13775000  1
  H  H590  1  0.56051000  0.20561000  0.77038000  1
  H  H591  1  0.57231000  0.71782000  0.19524000  1
  H  H592  1  0.53930000  0.00152000  0.19908000  1
  H  H593  1  0.62497000  0.08818000  0.49466000  1
  H  H594  1  0.49501000  0.27275000  0.67110000  1
  H  H595  1  0.12829000  0.13775000  0.72217000  1
  H  H596  1  0.77275000  0.99502000  0.17110000  1
  H  H597  1  0.53940000  0.33602000  0.92415000  1
  H  H598  1  0.56530000  0.14221000  0.44530000  1
  H  H599  1  0.91176000  0.37497000  0.78148000  1
  H  H600  1  0.72727000  0.50501000  0.90340000  1
  H  H601  1  0.76222000  0.35778000  0.05469000  1
  H  H602  1  0.74813000  0.00616000  0.29409000  1
  H  H603  1  0.92411000  0.46054000  0.33584000  1
  H  H604  1  0.14221000  0.73779000  0.44530000  1
  H  H605  1  0.88761000  0.81665000  0.05494000  1
  H  H606  1  0.22540000  0.10243000  0.32888000  1
  H  H607  1  0.42769000  0.28218000  0.80476000  1
  H  H608  1  0.68691000  0.04225000  0.55294000  1
  H  H609  1  0.62664000  0.68793000  0.04038000  1
  H  H610  1  0.17119000  0.72536000  0.49893000  1
  H  H611  1  0.41176000  0.99474000  0.28147000  1
  H  H612  1  0.54387000  0.86226000  0.12828000  1
  H  H613  1  0.15820000  0.30096000  0.96066000  1
  H  H614  1  0.08818000  0.78151000  0.49465000  1
  H  H615  1  0.17112000  0.59665000  0.77276000  1
  H  H616  1  0.31294000  0.17615000  0.04207000  1
  H  H617  1  0.79406000  0.75195000  0.03988000  1
  H  H618  1  0.59490000  0.78218000  0.30476000  1
  H  H619  1  0.71850000  0.41182000  0.00535000  1
  H  H620  1  0.95950000  0.72584000  0.37332000  1
  H  H621  1  0.30471000  0.40510000  0.78214000  1
  H  H622  1  0.22725000  0.00498000  0.82890000  1
  H  H623  1  0.12503000  0.58824000  0.71853000  1
  H  H624  1  0.46018000  0.99387000  0.74806000  1
  H  H625  1  0.00426000  0.56050000  0.77037000  1
  H  H626  1  0.87498000  0.99480000  0.58822000  1
  H  H627  1  0.00101000  0.67123000  0.89759000  1
  H  H628  1  0.83607000  0.54879000  0.96056000  1
  H  H629  1  0.75195000  0.49386000  0.03988000  1
  H  H630  1  0.35072000  0.94508000  0.18339000  1
  H  H631  1  0.54047000  0.77414000  0.18793000  1
  H  H632  1  0.05465000  0.64215000  0.93461000  1
  H  H633  1  0.81311000  0.67622000  0.94707000  1
  H  H634  1  0.43470000  0.85779000  0.55470000  1
  H  H635  1  0.17107000  0.22722000  0.99491000  1
  H  H636  1  0.72536000  0.17123000  0.39761000  1
  H  H637  1  0.54879000  0.57571000  0.96056000  1
  H  H638  1  0.18341000  0.11247000  0.35084000  1
  H  H639  1  0.94503000  0.81659000  0.64915000  1
  H  H640  1  0.90511000  0.57231000  0.19524000  1
  H  H641  1  0.68798000  0.95950000  0.37332000  1
  H  H642  1  0.60238000  0.17119000  0.49893000  1
  H  H643  1  0.22582000  0.18792000  0.54038000  1
  H  H644  1  0.17615000  0.55298000  0.04207000  1
  H  H645  1  0.70599000  0.53982000  0.25194000  1
  H  H646  1  0.50427000  0.72965000  0.93953000  1
  H  H647  1  0.18793000  0.12665000  0.54040000  1
  C  C648  1  0.88098000  0.48594000  0.40430000  1
  C  C649  1  0.46263000  0.01407000  0.09568000  1
  C  C650  1  0.84938000  0.44374000  0.10574000  1
  C  C651  1  0.25631000  0.36463000  0.52636000  1
  C  C652  1  0.55591000  0.10829000  0.80997000  1
  C  C653  1  0.81244000  0.04409000  0.43942000  1
  C  C654  1  0.36458000  0.25624000  0.09456000  1
  C  C655  1  0.17029000  0.06152000  0.49587000  1
  C  C656  1  0.49418000  0.79919000  0.94837000  1
  C  C657  1  0.72133000  0.60196000  0.46520000  1
  C  C658  1  0.52628000  0.09460000  0.25630000  1
  C  C659  1  0.60538000  0.95945000  0.23773000  1
  C  C660  1  0.97912000  0.82856000  0.55578000  1
  C  C661  1  0.57254000  0.63639000  0.94904000  1
  C  C662  1  0.27867000  0.39804000  0.53480000  1
  C  C663  1  0.24010000  0.13639000  0.44903000  1
  C  C664  1  0.23484000  0.95098000  0.58666000  1
  C  C665  1  0.13542000  0.02625000  0.40542000  1
  C  C666  1  0.40074000  0.95098000  0.76509000  1
  C  C667  1  0.58290000  0.81244000  0.43943000  1
  C  C668  1  0.02090000  0.25189000  0.82857000  1
  C  C669  1  0.24373000  0.02622000  0.86457000  1
  C  C670  1  0.91712000  0.45592000  0.06058000  1
  C  C671  1  0.32971000  0.23592000  0.00411000  1
  C  C672  1  0.05165000  0.49424000  0.20090000  1
  C  C673  1  0.08663000  0.54902000  0.73490000  1
  C  C674  1  0.01411000  0.90427000  0.53732000  1
  C  C675  1  0.36463000  0.90541000  0.52635000  1
  C  C676  1  0.55626000  0.18738000  0.89426000  1
  C  C677  1  0.34933000  0.39430000  0.05623000  1
  C  C678  1  0.44374000  0.84932000  0.18737000  1
  C  C679  1  0.59459000  0.13537000  0.97364000  1
  C  C680  1  0.81262000  0.44374000  0.15067000  1
  C  C681  1  0.44904000  0.75990000  0.13642000  1
  C  C682  1  0.50576000  0.34498000  0.79909000  1
  C  C683  1  0.93188000  0.76583000  0.14387000  1
  C  C684  1  0.95945000  0.67290000  0.23773000  1
  C  C685  1  0.75624000  0.86458000  0.59457000  1
  C  C686  1  0.10196000  0.22132000  0.96520000  1
  C  C687  1  0.43847000  0.23588000  0.67028000  1
  C  C688  1  0.52089000  0.67151000  0.24819000  1
  C  C689  1  0.85424000  0.80998000  0.10831000  1
  C  C690  1  0.32848000  0.94421000  0.75180000  1
  C  C691  1  0.59916000  0.76516000  0.41334000  1
  C  C692  1  0.35808000  0.89803000  0.03479000  1
  C  C693  1  0.38105000  0.98589000  0.46268000  1
  C  C694  1  0.44410000  0.89171000  0.19004000  1
  C  C695  1  0.73593000  0.82971000  0.50413000  1
  C  C696  1  0.05624000  0.68738000  0.34932000  1
  C  C697  1  0.74369000  0.63537000  0.47364000  1
  C  C698  1  0.55165000  0.15499000  0.70089000  1
  C  C699  1  0.63638000  0.05095000  0.42738000  1
  C  C700  1  0.49592000  0.73589000  0.17028000  1
  C  C701  1  0.15062000  0.55625000  0.89425000  1
  C  C702  1  0.69003000  0.64577000  0.39168000  1
  C  C703  1  0.60199000  0.53476000  0.27866000  1
  C  C704  1  0.55383000  0.23415000  0.93179000  1
  C  C705  1  0.77865000  0.96526000  0.10201000  1
  C  C706  1  0.06152000  0.26406000  0.49587000  1
  C  C707  1  0.92741000  0.86358000  0.24003000  1
  C  C708  1  0.06157000  0.17033000  0.73599000  1
  C  C709  1  0.38878000  0.48624000  0.04492000  1
  C  C710  1  0.90427000  0.61895000  0.53733000  1
  C  C711  1  0.03478000  0.22137000  0.35817000  1
  C  C712  1  0.43189000  0.94617000  0.64390000  1
  C  C713  1  0.98589000  0.09573000  0.46267000  1
  C  C714  1  0.94421000  0.32859000  0.52102000  1
  C  C715  1  0.11909000  0.96267000  0.48604000  1
  C  C716  1  0.47372000  0.90539000  0.74369000  1
  C  C717  1  0.54494000  0.11122000  0.67000000  1
  C  C718  1  0.84501000  0.00575000  0.29911000  1
  C  C719  1  0.09925000  0.08662000  0.73490000  1
  C  C720  1  0.63542000  0.74376000  0.90544000  1
  C  C721  1  0.83006000  0.51378000  0.38879000  1
  C  C722  1  0.82971000  0.93848000  0.50412000  1
  C  C723  1  0.40426000  0.51409000  0.03733000  1
  C  C724  1  0.55165000  0.29911000  0.00566000  1
  C  C725  1  0.06811000  0.14387000  0.44617000  1
  C  C726  1  0.94376000  0.39431000  0.68738000  1
  C  C727  1  0.55626000  0.15068000  0.81262000  1
  C  C728  1  0.56055000  0.58298000  0.18765000  1
  C  C729  1  0.45589000  0.91703000  0.31236000  1
  C  C730  1  0.54902000  0.09925000  0.73490000  1
  C  C731  1  0.70079000  0.44837000  0.15495000  1
  C  C732  1  0.30997000  0.35423000  0.60832000  1
  C  C733  1  0.68740000  0.65067000  0.94376000  1
  C  C734  1  0.93847000  0.49592000  0.17028000  1
  C  C735  1  0.74005000  0.63638000  0.42737000  1
  C  C736  1  0.13638000  0.24004000  0.92738000  1
  C  C737  1  0.18738000  0.55626000  0.84933000  1
  C  C738  1  0.59575000  0.48591000  0.96267000  1
  C  C739  1  0.31246000  0.08288000  0.93942000  1
  C  C740  1  0.45592000  0.68754000  0.06058000  1
  C  C741  1  0.55096000  0.13638000  0.92738000  1
  C  C742  1  0.99425000  0.55165000  0.70089000  1
  C  C743  1  0.49591000  0.93844000  0.26401000  1
  C  C744  1  0.05578000  0.75187000  0.32854000  1
  C  C745  1  0.76583000  0.44616000  0.14388000  1
  C  C746  1  0.94905000  0.42748000  0.63642000  1
  C  C747  1  0.48591000  0.88101000  0.96266000  1
  C  C748  1  0.40422000  0.96263000  0.88083000  1
  C  C749  1  0.44835000  0.84501000  0.29911000  1
  C  C750  1  0.15068000  0.10568000  0.81261000  1
  C  C751  1  0.67147000  0.52088000  0.94422000  1
  C  C752  1  0.94905000  0.25995000  0.57262000  1
  C  C753  1  0.36361000  0.25989000  0.05095000  1
  C  C754  1  0.03474000  0.64190000  0.89799000  1
  C  C755  1  0.95098000  0.23485000  0.59924000  1
  C  C756  1  0.60537000  0.76231000  0.32714000  1
  C  C757  1  0.82710000  0.54055000  0.26228000  1
  C  C758  1  0.00407000  0.56153000  0.32971000  1
  C  C759  1  0.10569000  0.15066000  0.44374000  1
  C  C760  1  0.35423000  0.39170000  0.69005000  1
  C  C761  1  0.94411000  0.35422000  0.69003000  1
  C  C762  1  0.17284000  0.10532000  0.54044000  1
  C  C763  1  0.94835000  0.34507000  0.49433000  1
  C  C764  1  0.95504000  0.48616000  0.82995000  1
  C  C765  1  0.44374000  0.89431000  0.15067000  1
  C  C766  1  0.44410000  0.80993000  0.14579000  1
  C  C767  1  0.56154000  0.76411000  0.32972000  1
  C  C768  1  0.51409000  0.11899000  0.03734000  1
  C  C769  1  0.96266000  0.40428000  0.48603000  1
  C  C770  1  0.76516000  0.04902000  0.41334000  1
  C  C771  1  0.42748000  0.25989000  0.63642000  1
  C  C772  1  0.45946000  0.26232000  0.82714000  1
  C  C773  1  0.04054000  0.39463000  0.67285000  1
  C  C774  1  0.45098000  0.90075000  0.26510000  1
  C  C775  1  0.39804000  0.85809000  0.53480000  1
  C  C776  1  0.54492000  0.33004000  0.98611000  1
  C  C777  1  0.01384000  0.54494000  0.67000000  1
  C  C778  1  0.24813000  0.47911000  0.67146000  1
  C  C779  1  0.54054000  0.73768000  0.17285000  1
  C  C780  1  0.64576000  0.05589000  0.39168000  1
  C  C781  1  0.74011000  0.57255000  0.94905000  1
  C  C782  1  0.09578000  0.98599000  0.61913000  1
  C  C783  1  0.76519000  0.59921000  0.95098000  1
  C  C784  1  0.47377000  0.25625000  0.63541000  1
  C  C785  1  0.10538000  0.17289000  0.73772000  1
  C  C786  1  0.61122000  0.51375000  0.95507000  1
  C  C787  1  0.51399000  0.40422000  0.88084000  1
  C  C788  1  0.55626000  0.10569000  0.84933000  1
  C  C789  1  0.01378000  0.33010000  0.88882000  1
  C  C790  1  0.54055000  0.89463000  0.26228000  1
  C  C791  1  0.56048000  0.04412000  0.41703000  1
  C  C792  1  0.60202000  0.72138000  0.85818000  1
  C  C793  1  0.54054000  0.82713000  0.10537000  1
  C  C794  1  0.34937000  0.31262000  0.60575000  1
  C  C795  1  0.19007000  0.10824000  0.85421000  1
  C  C796  1  0.52623000  0.74374000  0.36458000  1
  C  C797  1  0.29922000  0.55163000  0.84506000  1
  C  C798  1  0.14391000  0.06812000  0.76586000  1
  C  C799  1  0.44836000  0.70089000  0.99434000  1
  C  C800  1  0.73483000  0.90085000  0.08666000  1
  C  C801  1  0.93952000  0.91706000  0.54408000  1
  C  C802  1  0.77862000  0.89798000  0.64182000  1
  C  C803  1  0.43189000  0.26582000  0.05383000  1
  C  C804  1  0.24822000  0.94421000  0.52102000  1
  C  C805  1  0.15499000  0.99425000  0.70089000  1
  C  C806  1  0.01401000  0.46263000  0.38087000  1
  C  C807  1  0.95588000  0.18757000  0.58297000  1
  C  C808  1  0.02088000  0.17144000  0.44422000  1
  C  C809  1  0.64192000  0.10196000  0.96520000  1
  C  C810  1  0.64393000  0.05383000  0.26589000  1
  C  C811  1  0.73771000  0.54054000  0.10538000  1
  C  C812  1  0.97910000  0.74811000  0.17143000  1
  C  C813  1  0.33014000  0.01376000  0.45510000  1
  C  C814  1  0.74811000  0.97912000  0.55579000  1
  C  C815  1  0.86358000  0.44904000  0.24003000  1
  C  C816  1  0.04496000  0.51384000  0.17005000  1
  C  C817  1  0.76404000  0.67029000  0.43840000  1
  C  C818  1  0.26584000  0.43188000  0.64389000  1
  C  C819  1  0.25180000  0.17138000  0.97897000  1
  C  C820  1  0.03476000  0.10199000  0.77867000  1
  C  C821  1  0.03738000  0.88098000  0.40430000  1
  C  C822  1  0.82716000  0.89467000  0.45955000  1
  C  C823  1  0.44617000  0.93188000  0.14388000  1
  C  C824  1  0.30993000  0.94412000  0.64581000  1
  C  C825  1  0.24376000  0.13542000  0.40543000  1
  C  C826  1  0.26407000  0.17029000  0.49587000  1
  C  C827  1  0.44375000  0.81262000  0.10575000  1
  C  C828  1  0.06813000  0.55383000  0.76587000  1
  C  C829  1  0.53733000  0.38095000  0.01399000  1
  C  C830  1  0.81262000  0.84938000  0.10575000  1
  C  C831  1  0.14576000  0.10826000  0.44408000  1
  C  C832  1  0.48625000  0.16990000  0.04492000  1
  C  C833  1  0.41337000  0.40074000  0.76509000  1
  C  C834  1  0.94422000  0.24813000  0.67146000  1
  C  C835  1  0.29922000  0.99419000  0.44838000  1
  C  C836  1  0.31250000  0.06048000  0.45591000  1
  C  C837  1  0.14387000  0.23419000  0.44617000  1
  C  C838  1  0.45508000  0.66995000  0.01388000  1
  C  C839  1  0.08659000  0.26515000  0.90076000  1
  C  C840  1  0.46526000  0.27864000  0.60200000  1
  C  C841  1  0.32859000  0.24821000  0.52101000  1
  C  C842  1  0.23419000  0.06811000  0.44616000  1
  C  C843  1  0.60196000  0.14191000  0.46520000  1
  C  C844  1  0.60827000  0.64577000  0.94411000  1
  C  C845  1  0.40539000  0.97372000  0.24369000  1
  C  C846  1  0.89798000  0.96522000  0.64182000  1
  C  C847  1  0.95946000  0.76229000  0.39463000  1
  C  C848  1  0.26586000  0.94617000  0.56821000  1
  C  C849  1  0.97372000  0.86458000  0.24368000  1
  C  C850  1  0.14189000  0.53475000  0.39799000  1
  C  C851  1  0.43849000  0.32971000  0.00412000  1
  C  C852  1  0.77868000  0.35808000  0.03480000  1
  C  C853  1  0.10827000  0.19006000  0.44409000  1
  C  C854  1  0.89468000  0.73772000  0.45956000  1
  C  C855  1  0.73485000  0.45097000  0.09924000  1
  C  C856  1  0.60570000  0.05624000  0.34932000  1
  C  C857  1  0.57252000  0.74011000  0.36358000  1
  C  C858  1  0.95590000  0.41710000  0.56056000  1
  C  C859  1  0.23771000  0.32712000  0.60537000  1
  C  C860  1  0.68754000  0.91712000  0.06058000  1
  C  C861  1  0.82713000  0.73771000  0.10538000  1
  C  C862  1  0.47912000  0.94422000  0.67146000  1
  C  C863  1  0.06812000  0.23417000  0.85612000  1
  C  C864  1  0.98592000  0.38102000  0.90431000  1
  C  C865  1  0.40541000  0.86463000  0.02636000  1
  C  C866  1  0.88885000  0.45508000  0.01388000  1
  C  C867  1  0.32967000  0.43843000  0.76402000  1
  C  C868  1  0.67028000  0.00407000  0.43839000  1
  C  C869  1  0.26403000  0.50408000  0.93839000  1
  C  C870  1  0.75178000  0.05579000  0.47898000  1
  C  C871  1  0.79909000  0.05164000  0.50566000  1
  C  C872  1  0.39798000  0.27861000  0.14181000  1
  C  C873  1  0.58663000  0.59926000  0.23491000  1
  C  C874  1  0.72139000  0.53478000  0.85818000  1
  C  C875  1  0.00408000  0.67033000  0.23598000  1
  C  C876  1  0.39468000  0.32715000  0.95955000  1
  C  C877  1  0.54902000  0.26517000  0.91334000  1
  C  C878  1  0.18739000  0.10568000  0.44373000  1
  C  C879  1  0.42741000  0.94905000  0.74004000  1
  C  C880  1  0.23772000  0.39467000  0.95954000  1
  C  C881  1  0.05165000  0.65493000  0.50566000  1
  C  C882  1  0.41701000  0.95588000  0.81234000  1
  C  C883  1  0.63639000  0.74011000  0.94905000  1
  C  C884  1  0.01408000  0.61898000  0.09569000  1
  C  C885  1  0.36458000  0.47372000  0.74369000  1
  C  C886  1  0.43844000  0.99592000  0.76403000  1
  C  C887  1  0.96524000  0.89801000  0.22133000  1
  C  C888  1  0.94836000  0.20081000  0.65496000  1
  C  C889  1  0.38883000  0.16999000  0.51388000  1
  C  C890  1  0.34507000  0.20091000  0.49433000  1
  C  C891  1  0.24812000  0.32852000  0.05577000  1
  C  C892  1  0.73597000  0.49591000  0.06160000  1
  C  C893  1  0.45946000  0.17287000  0.89462000  1
  C  C894  1  0.94412000  0.39175000  0.64579000  1
  C  C895  1  0.83010000  0.61122000  0.95507000  1
  C  C896  1  0.90080000  0.73480000  0.54902000  1
  C  C897  1  0.63537000  0.09458000  0.47364000  1
  C  C898  1  0.89432000  0.84934000  0.55627000  1
  C  C899  1  0.57259000  0.05095000  0.25996000  1
  C  C900  1  0.46264000  0.90422000  0.38087000  1
  C  C901  1  0.13542000  0.59461000  0.75631000  1
  C  C902  1  0.02090000  0.55579000  0.74818000  1
  C  C903  1  0.94835000  0.50576000  0.79909000  1
  C  C904  1  0.92746000  0.75990000  0.55097000  1
  C  C905  1  0.20091000  0.94835000  0.49433000  1
  C  C906  1  0.19002000  0.55591000  0.89169000  1
  C  C907  1  0.26228000  0.17284000  0.54044000  1
  C  C908  1  0.83001000  0.04494000  0.48612000  1
  C  C909  1  0.24004000  0.55096000  0.92738000  1
  C  C910  1  0.55591000  0.14576000  0.89169000  1
  C  C911  1  0.61125000  0.04496000  0.17005000  1
  C  C912  1  0.10569000  0.18738000  0.84933000  1
  C  C913  1  0.05588000  0.60825000  0.35420000  1
  C  C914  1  0.53474000  0.72136000  0.39799000  1
  C  C915  1  0.27862000  0.46521000  0.14182000  1
  C  C916  1  0.91342000  0.90080000  0.54902000  1
  C  C917  1  0.76232000  0.95946000  0.32714000  1
  C  C918  1  0.72136000  0.14189000  0.39799000  1
  C  C919  1  0.04410000  0.58290000  0.43944000  1
  C  C920  1  0.67034000  0.56156000  0.23598000  1
  C  C921  1  0.32853000  0.47912000  0.05577000  1
  C  C922  1  0.49420000  0.05163000  0.34502000  1
  C  C923  1  0.54411000  0.08297000  0.68764000  1
  C  C924  1  0.04055000  0.23771000  0.60538000  1
  C  C925  1  0.90428000  0.46268000  0.98601000  1
  C  C926  1  0.60569000  0.65069000  0.31262000  1
  C  C927  1  0.17287000  0.26229000  0.89462000  1
  C  C928  1  0.94377000  0.34937000  0.60576000  1
  C  C929  1  0.23588000  0.99593000  0.67028000  1
  C  C930  1  0.44904000  0.92742000  0.24004000  1
  C  C931  1  0.26232000  0.10536000  0.82714000  1
  C  C932  1  0.84932000  0.89432000  0.18738000  1
  C  C933  1  0.26520000  0.08658000  0.45097000  1
  C  C934  1  0.65500000  0.49418000  0.94837000  1
  C  C935  1  0.99593000  0.23595000  0.56159000  1
  C  C936  1  0.00579000  0.70079000  0.15494000  1
  C  C937  1  0.35423000  0.30993000  0.05589000  1
  C  C938  1  0.08294000  0.31249000  0.45591000  1
  C  C939  1  0.34931000  0.94376000  0.68738000  1
  C  C940  1  0.85809000  0.27867000  0.53480000  1
  C  C941  1  0.56811000  0.05383000  0.35610000  1
  C  C942  1  0.13537000  0.24369000  0.97365000  1
  C  C943  1  0.55096000  0.07258000  0.75996000  1
  C  C944  1  0.55579000  0.25180000  0.97897000  1
  C  C945  1  0.94376000  0.31262000  0.65068000  1
  C  C946  1  0.85613000  0.76581000  0.55383000  1
  C  C947  1  0.97910000  0.44421000  0.25182000  1
  C  C948  1  0.10533000  0.26228000  0.54045000  1
  C  C949  1  0.25989000  0.42745000  0.05095000  1
  C  C950  1  0.35808000  0.96524000  0.22133000  1
  C  C951  1  0.24369000  0.59459000  0.97365000  1
  C  C952  1  0.61906000  0.90429000  0.98602000  1
  C  C953  1  0.49592000  0.82971000  0.06160000  1
  C  C954  1  0.23417000  0.55383000  0.85611000  1
  C  C955  1  0.82862000  0.44421000  0.02103000  1
  C  C956  1  0.74374000  0.09461000  0.36457000  1
  C  C957  1  0.60569000  0.68740000  0.94376000  1
  C  C958  1  0.16999000  0.95506000  0.51388000  1
  C  C959  1  0.75631000  0.40541000  0.02635000  1
  C  C960  1  0.16994000  0.48622000  0.61121000  1
  C  C961  1  0.15497000  0.29921000  0.44837000  1
  C  C962  1  0.47375000  0.36458000  0.09456000  1
  C  C963  1  0.14191000  0.60199000  0.27866000  1
  C  C964  1  0.75990000  0.92748000  0.13642000  1
  C  C965  1  0.74376000  0.52626000  0.90543000  1
  C  C966  1  0.39431000  0.34931000  0.68738000  1
  C  C967  1  0.79919000  0.49421000  0.34503000  1
  C  C968  1  0.38094000  0.09571000  0.01398000  1
  C  C969  1  0.44421000  0.74820000  0.02103000  1
  C  C970  1  0.56151000  0.67029000  0.99588000  1
  C  C971  1  0.60830000  0.05588000  0.30995000  1
  C  C972  1  0.55383000  0.14391000  0.76587000  1
  C  C973  1  0.91337000  0.45097000  0.26509000  1
  C  C974  1  0.55096000  0.24010000  0.86358000  1
  C  C975  1  0.55383000  0.06811000  0.85611000  1
  C  C976  1  0.93843000  0.82967000  0.26401000  1
  C  C977  1  0.05589000  0.69003000  0.39169000  1
  C  C978  1  0.60533000  0.67285000  0.04046000  1
  C  C979  1  0.50409000  0.06156000  0.73598000  1
  C  C980  1  0.17145000  0.25189000  0.44422000  1
  C  C981  1  0.11120000  0.33013000  0.45509000  1
  C  C982  1  0.32713000  0.04054000  0.60538000  1
  C  C983  1  0.44837000  0.00578000  0.15494000  1
  C  C984  1  0.25190000  0.55578000  0.82857000  1
  C  C985  1  0.53477000  0.14191000  0.27867000  1
  C  C986  1  0.99592000  0.32967000  0.76402000  1
  C  C987  1  0.45098000  0.73483000  0.08666000  1
  C  C988  1  0.44422000  0.97910000  0.17143000  1
  C  C989  1  0.53737000  0.98592000  0.90430000  1
  C  C990  1  0.94905000  0.36358000  0.74004000  1
  C  C991  1  0.05383000  0.73416000  0.35610000  1
  C  C992  1  0.38875000  0.95504000  0.82995000  1
  C  C993  1  0.52089000  0.05578000  0.32854000  1
  C  C994  1  0.40084000  0.23484000  0.58666000  1
  C  C995  1  0.65067000  0.60569000  0.94375000  1
  C  C996  1  0.76585000  0.85619000  0.06821000  1
  C  C997  1  0.40428000  0.11909000  0.48604000  1
  C  C998  1  0.06056000  0.54411000  0.68764000  1
  C  C999  1  0.89462000  0.82710000  0.26227000  1
  C  C1000  1  0.64578000  0.60829000  0.30995000  1
  C  C1001  1  0.39462000  0.04055000  0.76227000  1
  C  C1002  1  0.04495000  0.83006000  0.38878000  1
  C  C1003  1  0.84510000  0.44836000  0.99435000  1
  C  C1004  1  0.84934000  0.81261000  0.55626000  1
  C  C1005  1  0.35618000  0.26586000  0.56821000  1
  C  C1006  1  0.27864000  0.85810000  0.60200000  1
  C  C1007  1  0.85609000  0.93187000  0.23413000  1
  C  C1008  1  0.58295000  0.56047000  0.95590000  1
  C  C1009  1  0.48602000  0.59578000  0.11917000  1
  C  C1010  1  0.85811000  0.46525000  0.60200000  1
  C  C1011  1  0.82967000  0.49591000  0.26401000  1
  C  C1012  1  0.24010000  0.07252000  0.86358000  1
  C  C1013  1  0.02628000  0.13542000  0.75631000  1
  C  C1014  1  0.97378000  0.40538000  0.13542000  1
  C  C1015  1  0.05579000  0.52089000  0.24819000  1
  C  C1016  1  0.07255000  0.24010000  0.44904000  1
  C  C1017  1  0.07259000  0.13642000  0.75997000  1
  C  C1018  1  0.94411000  0.30997000  0.60831000  1
  C  C1019  1  0.84503000  0.70079000  0.55163000  1
  C  C1020  1  0.90075000  0.91338000  0.26510000  1
  C  C1021  1  0.93189000  0.85613000  0.55383000  1
  C  C1022  1  0.44409000  0.85424000  0.10831000  1
  C  C1023  1  0.35810000  0.77865000  0.10201000  1
  C  C1024  1  0.25626000  0.90539000  0.63543000  1
  C  C1025  1  0.80993000  0.89176000  0.14579000  1
  C  C1026  1  0.08297000  0.06056000  0.68764000  1
  C  C1027  1  0.67290000  0.60538000  0.23772000  1
  C  C1028  1  0.82971000  0.73597000  0.06160000  1
  C  C1029  1  0.80994000  0.85423000  0.55591000  1
  C  C1030  1  0.17290000  0.45945000  0.73772000  1
  C  C1031  1  0.99419000  0.15497000  0.44838000  1
  C  C1032  1  0.86362000  0.75996000  0.07262000  1
  C  C1033  1  0.11122000  0.01384000  0.67000000  1
  C  C1034  1  0.97374000  0.75625000  0.59457000  1
  C  C1035  1  0.09461000  0.52623000  0.36458000  1
  C  C1036  1  0.75627000  0.97377000  0.13542000  1
  C  C1037  1  0.47913000  0.24812000  0.05577000  1
  C  C1038  1  0.86458000  0.40539000  0.24369000  1
  C  C1039  1  0.67152000  0.05579000  0.24820000  1
  C  C1040  1  0.23415000  0.14381000  0.93179000  1
  C  C1041  1  0.04056000  0.32710000  0.76228000  1
  C  C1042  1  0.89171000  0.85423000  0.19003000  1
  C  C1043  1  0.13639000  0.07254000  0.44903000  1
  C  C1044  1  0.86458000  0.97374000  0.59456000  1
  C  C1045  1  0.11115000  0.54492000  0.98612000  1
  C  C1046  1  0.00407000  0.76404000  0.43840000  1
  C  C1047  1  0.94421000  0.47911000  0.75180000  1
  C  C1048  1  0.08288000  0.54408000  0.93942000  1
  C  C1049  1  0.64191000  0.22135000  0.89800000  1
  C  C1050  1  0.09458000  0.74370000  0.47365000  1
  C  C1051  1  0.81243000  0.56048000  0.41703000  1
  C  C1052  1  0.41710000  0.18755000  0.56055000  1
  C  C1053  1  0.75187000  0.52089000  0.32854000  1
  C  C1054  1  0.65069000  0.05623000  0.31261000  1
  C  C1055  1  0.01376000  0.11120000  0.45510000  1
  C  C1056  1  0.51384000  0.61125000  0.17005000  1
  C  C1057  1  0.31245000  0.54411000  0.91705000  1
  C  C1058  1  0.43187000  0.35607000  0.73411000  1
  C  C1059  1  0.54411000  0.06049000  0.91704000  1
  C  C1060  1  0.16990000  0.38877000  0.04492000  1
  C  C1061  1  0.88091000  0.03733000  0.51396000  1
  C  C1062  1  0.81261000  0.89431000  0.55626000  1
  C  C1063  1  0.89174000  0.80994000  0.55592000  1
  C  C1064  1  0.89431000  0.81262000  0.15067000  1
  C  C1065  1  0.42746000  0.36360000  0.05095000  1
  C  C1066  1  0.02626000  0.24375000  0.40543000  1
  C  C1067  1  0.93848000  0.73593000  0.50412000  1
  C  C1068  1  0.05095000  0.74005000  0.42738000  1
  C  C1069  1  0.64192000  0.03475000  0.77866000  1
  C  C1070  1  0.81248000  0.58295000  0.95590000  1
  C  C1071  1  0.05623000  0.65063000  0.39424000  1
  C  C1072  1  0.56811000  0.73418000  0.94617000  1
  C  C1073  1  0.69008000  0.05588000  0.35420000  1
  C  C1074  1  0.73768000  0.89464000  0.17286000  1
  C  C1075  1  0.39430000  0.94376000  0.65068000  1
  C  C1076  1  0.50408000  0.26410000  0.82971000  1
  C  C1077  1  0.70078000  0.00580000  0.55161000  1
  C  C1078  1  0.05095000  0.57252000  0.36358000  1
  C  C1079  1  0.44904000  0.86362000  0.07262000  1
  C  C1080  1  0.52625000  0.63542000  0.90543000  1
  C  C1081  1  0.90539000  0.36458000  0.74369000  1
  C  C1082  1  0.05383000  0.64382000  0.43179000  1
  C  C1083  1  0.20081000  0.50579000  0.65496000  1
  C  C1084  1  0.63642000  0.57259000  0.25996000  1
  C  C1085  1  0.05589000  0.64577000  0.30995000  1
  C  C1086  1  0.26582000  0.35612000  0.05383000  1
  C  C1087  1  0.98622000  0.66990000  0.11118000  1
  C  C1088  1  0.93944000  0.45589000  0.31236000  1
  C  C1089  1  0.86361000  0.92746000  0.55097000  1
  C  C1090  1  0.60825000  0.69007000  0.35420000  1
  C  C1091  1  0.51406000  0.96262000  0.59570000  1
  C  C1092  1  0.96262000  0.11902000  0.59570000  1
  C  C1093  1  0.34501000  0.50581000  0.05162000  1
  C  C1094  1  0.90542000  0.25630000  0.52635000  1
  C  C1095  1  0.22135000  0.03474000  0.89799000  1
  C  C1096  1  0.73416000  0.56811000  0.35610000  1
  C  C1097  1  0.05095000  0.63642000  0.25996000  1
  C  C1098  1  0.66990000  0.45506000  0.11118000  1
  C  C1099  1  0.76407000  0.56152000  0.99588000  1
  C  C1100  1  0.10829000  0.14577000  0.80997000  1
  C  C1101  1  0.35424000  0.94411000  0.60832000  1
  C  C1102  1  0.61898000  0.46263000  0.09569000  1
  C  C1103  1  0.06048000  0.08293000  0.45591000  1
  C  C1104  1  0.43952000  0.95588000  0.58297000  1
  C  C1105  1  0.96522000  0.77862000  0.64182000  1
  C  C1106  1  0.39173000  0.35423000  0.05589000  1
  C  C1107  1  0.44617000  0.76585000  0.06821000  1
  C  C1108  1  0.05579000  0.67141000  0.47898000  1
  C  C1109  1  0.26516000  0.54902000  0.90076000  1
  C  C1110  1  0.88878000  0.98616000  0.33000000  1
  C  C1111  1  0.14576000  0.19002000  0.89169000  1
  C  C1112  1  0.56047000  0.81248000  0.95590000  1
  C  C1113  1  0.68750000  0.93952000  0.54409000  1
  C  C1114  1  0.35612000  0.43189000  0.05383000  1
  C  C1115  1  0.29911000  0.15490000  0.00565000  1
  C  C1116  1  0.05164000  0.79919000  0.34504000  1
  C  C1117  1  0.33004000  0.11115000  0.98611000  1
  C  C1118  1  0.48623000  0.95505000  0.61121000  1
  C  C1119  1  0.41342000  0.23481000  0.04902000  1
  C  C1120  1  0.38102000  0.53737000  0.90431000  1
  C  C1121  1  0.86463000  0.75631000  0.02635000  1
  C  C1122  1  0.03734000  0.59572000  0.51396000  1
  C  C1123  1  0.70089000  0.84509000  0.99434000  1
  C  C1124  1  0.95506000  0.38883000  0.51388000  1
  C  C1125  1  0.36358000  0.42741000  0.74004000  1
  C  C1126  1  0.65063000  0.68738000  0.39424000  1
  C  C1127  1  0.39463000  0.23768000  0.67285000  1
  C  C1128  1  0.55579000  0.17148000  0.74817000  1
  C  C1129  1  0.45506000  0.88878000  0.33000000  1
  C  C1130  1  0.68755000  0.45589000  0.08295000  1
  C  C1131  1  0.76229000  0.67288000  0.39462000  1
  C  C1132  1  0.44421000  0.82852000  0.25183000  1
  C  C1133  1  0.17033000  0.50409000  0.73598000  1
  C  C1134  1  0.23596000  0.32971000  0.56160000  1
  C  C1135  1  0.18756000  0.95590000  0.56056000  1
  C  C1136  1  0.30993000  0.39173000  0.05589000  1
  C  C1137  1  0.18757000  0.43952000  0.58297000  1
  C  C1138  1  0.63542000  0.52628000  0.25630000  1
  C  C1139  1  0.17149000  0.02089000  0.74817000  1
  C  C1140  1  0.93187000  0.44617000  0.23412000  1
  C  C1141  1  0.88880000  0.66987000  0.54491000  1
  C  C1142  1  0.23768000  0.04054000  0.67285000  1
  C  C1143  1  0.67029000  0.76407000  0.99588000  1
  C  C1144  1  0.09572000  0.53732000  0.01399000  1
  C  C1145  1  0.50408000  0.17028000  0.93839000  1
  C  C1146  1  0.65493000  0.79909000  0.50567000  1
  C  C1147  1  0.25995000  0.36361000  0.57261000  1
  C  C1148  1  0.06049000  0.31245000  0.91705000  1
  C  C1149  1  0.94617000  0.26584000  0.64389000  1
  C  C1150  1  0.61117000  0.83001000  0.48612000  1
  C  C1151  1  0.95098000  0.41337000  0.76509000  1
  C  C1152  1  0.91703000  0.93944000  0.31236000  1
  C  C1153  1  0.89800000  0.35808000  0.22132000  1
  C  C1154  1  0.17029000  0.26403000  0.93840000  1
  C  C1155  1  0.04902000  0.76514000  0.40075000  1
  C  C1156  1  0.13642000  0.55096000  0.75997000  1
  C  C1157  1  0.04494000  0.61117000  0.48612000  1
  C  C1158  1  0.14381000  0.55383000  0.93179000  1
  C  C1159  1  0.26411000  0.06153000  0.82972000  1
  C  C1160  1  0.05383000  0.56812000  0.26588000  1
  C  C1161  1  0.56813000  0.64393000  0.26589000  1
  C  C1162  1  0.82852000  0.97910000  0.25183000  1
  C  C1163  1  0.35607000  0.94617000  0.73411000  1
  C  C1164  1  0.09574000  0.38105000  0.46268000  1
  C  C1165  1  0.64577000  0.69007000  0.94411000  1
  C  C1166  1  0.73414000  0.05383000  0.43179000  1
  C  C1167  1  0.39176000  0.30992000  0.64580000  1
  C  C1168  1  0.09461000  0.63542000  0.25631000  1
  C  C1169  1  0.51377000  0.04495000  0.38879000  1
  C  C1170  1  0.61895000  0.01411000  0.53732000  1
  C  C1171  1  0.07251000  0.55096000  0.86357000  1
  C  C1172  1  0.96526000  0.35809000  0.10200000  1
  C  C1173  1  0.89464000  0.54053000  0.17285000  1
  C  C1174  1  0.15491000  0.55164000  0.00566000  1
  C  C1175  1  0.10824000  0.55590000  0.85421000  1
  C  C1176  1  0.53478000  0.60201000  0.85818000  1
  C  C1177  1  0.36362000  0.94905000  0.57262000  1
  C  C1178  1  0.48616000  0.38875000  0.82995000  1
  C  C1179  1  0.66986000  0.98624000  0.54490000  1
  C  C1180  1  0.49424000  0.65501000  0.20090000  1
  C  C1181  1  0.11903000  0.51405000  0.59570000  1
  C  C1182  1  0.04902000  0.59916000  0.41334000  1
  C  C1183  1  0.59578000  0.03737000  0.11916000  1
  C  C1184  1  0.34498000  0.94835000  0.79909000  1
  C  C1185  1  0.73418000  0.64388000  0.94616000  1
  C  C1186  1  0.10536000  0.45946000  0.82714000  1
  C  C1187  1  0.85809000  0.39801000  0.72134000  1
  C  C1188  1  0.43945000  0.41701000  0.81234000  1
  C  C1189  1  0.04412000  0.56055000  0.18765000  1
  C  C1190  1  0.06153000  0.50408000  0.82972000  1
  C  C1191  1  0.39170000  0.94412000  0.69004000  1
  C  C1192  1  0.90422000  0.01401000  0.38087000  1
  C  C1193  1  0.22138000  0.10202000  0.35817000  1
  C  C1194  1  0.54408000  0.31246000  0.93942000  1
  C  C1195  1  0.41342000  0.95098000  0.59925000  1
  C  C1196  1  0.76412000  0.00407000  0.32972000  1
  C  C1197  1  0.74011000  0.05095000  0.36358000  1
  C  C1198  1  0.73772000  0.82716000  0.45956000  1
  C  C1199  1  0.75188000  0.67147000  0.94422000  1
  C  C1200  1  0.99422000  0.29921000  0.84506000  1
  C  C1201  1  0.66996000  0.88885000  0.01388000  1
  C  C1202  1  0.94617000  0.35617000  0.56820000  1
  C  C1203  1  0.65502000  0.05165000  0.20091000  1
  C  C1204  1  0.25989000  0.94905000  0.63642000  1
  C  C1205  1  0.59926000  0.04902000  0.23491000  1
  C  C1206  1  0.98616000  0.45505000  0.32999000  1
  C  C1207  1  0.55578000  0.02089000  0.82856000  1
  C  C1208  1  0.32972000  0.99592000  0.56160000  1
  C  C1209  1  0.26517000  0.09915000  0.91334000  1
  C  C1210  1  0.19006000  0.14576000  0.44408000  1
  C  C1211  1  0.95505000  0.16993000  0.61120000  1
  C  C1212  1  0.89804000  0.77868000  0.03480000  1
  C  C1213  1  0.18738000  0.15062000  0.89425000  1
  C  C1214  1  0.58658000  0.76519000  0.95098000  1
  C  C1215  1  0.23593000  0.43848000  0.00412000  1
  C  C1216  1  0.89432000  0.44374000  0.18738000  1
  C  C1217  1  0.59572000  0.88091000  0.51396000  1
  C  C1218  1  0.51375000  0.83010000  0.95507000  1
  C  C1219  1  0.17138000  0.55579000  0.97897000  1
  C  C1220  1  0.76514000  0.58659000  0.40075000  1
  C  C1221  1  0.95098000  0.40084000  0.58666000  1
  C  C1222  1  0.75990000  0.86361000  0.55097000  1
  C  C1223  1  0.92749000  0.44904000  0.13642000  1
  C  C1224  1  0.09915000  0.54902000  0.91334000  1
  C  C1225  1  0.73589000  0.93847000  0.17028000  1
  C  C1226  1  0.59462000  0.02628000  0.75632000  1
  C  C1227  1  0.54494000  0.01378000  0.88882000  1
  C  C1228  1  0.45945000  0.10537000  0.73772000  1
  C  C1229  1  0.79920000  0.65500000  0.94838000  1
  C  C1230  1  0.31262000  0.39430000  0.65068000  1
  C  C1231  1  0.55163000  0.99422000  0.84506000  1
  C  C1232  1  0.58299000  0.04412000  0.18766000  1
  C  C1233  1  0.69007000  0.60827000  0.94411000  1
  C  C1234  1  0.46522000  0.39798000  0.14181000  1
  C  C1235  1  0.10200000  0.64192000  0.77868000  1
  C  C1236  1  0.67288000  0.95946000  0.39463000  1
  C  C1237  1  0.14577000  0.55590000  0.80996000  1
  C  C1238  1  0.67141000  0.75178000  0.47898000  1
  C  C1239  1  0.47911000  0.32848000  0.75180000  1
  C  C1240  1  0.54903000  0.08659000  0.90077000  1
  C  C1241  1  0.14191000  0.72133000  0.46520000  1
  C  C1242  1  0.23486000  0.41341000  0.59925000  1
  C  C1243  1  0.11898000  0.40426000  0.03733000  1
  C  C1244  1  0.64388000  0.56811000  0.94617000  1
  C  C1245  1  0.96263000  0.51398000  0.88083000  1
  C  C1246  1  0.32715000  0.23772000  0.95954000  1
  C  C1247  1  0.31261000  0.34933000  0.05625000  1
  C  C1248  1  0.50582000  0.20080000  0.05162000  1
  C  C1249  1  0.08658000  0.09919000  0.45097000  1
  C  C1250  1  0.40080000  0.41341000  0.04902000  1
  C  C1251  1  0.74811000  0.44421000  0.17143000  1
  C  C1252  1  0.40538000  0.75627000  0.13543000  1
  C  C1253  1  0.59462000  0.24373000  0.86457000  1
  C  C1254  1  0.59920000  0.58659000  0.95098000  1
  C  C1255  1  0.31262000  0.94376000  0.60575000  1
  C  C1256  1  0.74820000  0.82862000  0.02103000  1
  C  C1257  1  0.93951000  0.68755000  0.08295000  1
  C  C1258  1  0.99593000  0.43847000  0.67028000  1
  C  C1259  1  0.43953000  0.18752000  0.04410000  1
  C  C1260  1  0.10202000  0.03477000  0.35817000  1
  C  C1261  1  0.76228000  0.60533000  0.04045000  1
  C  C1262  1  0.04902000  0.58663000  0.23491000  1
  C  C1263  1  0.20080000  0.34500000  0.05162000  1
  C  C1264  1  0.00581000  0.84503000  0.55162000  1
  C  C1265  1  0.64382000  0.73414000  0.43179000  1
  C  C1266  1  0.90085000  0.45098000  0.08666000  1
  C  C1267  1  0.41706000  0.43953000  0.04411000  1
  C  C1268  1  0.32710000  0.39462000  0.76227000  1
  C  C1269  1  0.85423000  0.44409000  0.19003000  1
  C  C1270  1  0.33010000  0.54494000  0.88881000  1
  C  C1271  1  0.48594000  0.03738000  0.40430000  1
  C  C1272  1  0.68738000  0.05623000  0.39423000  1
  C  C1273  1  0.95946000  0.60537000  0.32715000  1
  C  C1274  1  0.04412000  0.81243000  0.41703000  1
  C  C1275  1  0.10569000  0.55625000  0.81262000  1
  C  C1276  1  0.68738000  0.60570000  0.34932000  1
  C  C1277  1  0.02622000  0.59462000  0.86458000  1
  C  C1278  1  0.91341000  0.73485000  0.09924000  1
  C  C1279  1  0.98599000  0.53736000  0.61912000  1
  C  C1280  1  0.89176000  0.44409000  0.14578000  1
  C  C1281  1  0.95588000  0.43945000  0.81234000  1
  C  C1282  1  0.82856000  0.74811000  0.55579000  1
  C  C1283  1  0.75996000  0.44904000  0.07262000  1
  C  C1284  1  0.67285000  0.76228000  0.04046000  1
  C  C1285  1  0.58659000  0.04902000  0.40075000  1
  C  C1286  1  0.91706000  0.68750000  0.54408000  1
  C  C1287  1  0.56157000  0.00408000  0.23598000  1
  C  C1288  1  0.85424000  0.89173000  0.55591000  1
  C  C1289  1  0.15066000  0.18739000  0.44373000  1
  C  C1290  1  0.22132000  0.64192000  0.96520000  1
  C  C1291  1  0.39801000  0.46523000  0.72133000  1
  C  C1292  1  0.26229000  0.45946000  0.89462000  1
  C  C1293  1  0.52088000  0.75187000  0.94422000  1
  C  C1294  1  0.25624000  0.47374000  0.09456000  1
  C  C1295  1  0.23481000  0.40079000  0.04902000  1
  C  C1296  1  0.25190000  0.02088000  0.44422000  1
  C  C1297  1  0.05624000  0.60569000  0.31262000  1
  C  C1298  1  0.46524000  0.85809000  0.72134000  1
  C  C1299  1  0.94617000  0.43187000  0.73411000  1
  C  C1300  1  0.50580000  0.94836000  0.65496000  1
  C  C1301  1  0.45098000  0.91341000  0.09924000  1
  C  C1302  1  0.53736000  0.09577000  0.61912000  1
  C  C1303  1  0.46268000  0.61905000  0.98601000  1
  C  C1304  1  0.44617000  0.85609000  0.23413000  1
  C  C1305  1  0.90539000  0.47377000  0.63542000  1
  C  C1306  1  0.85619000  0.44617000  0.06821000  1
  C  C1307  1  0.76581000  0.93189000  0.55384000  1
  C  C1308  1  0.73480000  0.91341000  0.54902000  1
  C  C1309  1  0.80998000  0.44409000  0.10831000  1
  C  C1310  1  0.03737000  0.48601000  0.11916000  1
  C  C1311  1  0.45589000  0.93951000  0.08295000  1
  C  C1312  1  0.88102000  0.59574000  0.96267000  1
  C  C1313  1  0.00575000  0.44835000  0.29911000  1
  C  C1314  1  0.39431000  0.31260000  0.05624000  1
  C  C1315  1  0.18752000  0.41705000  0.04410000  1
  C  C1316  1  0.09920000  0.26519000  0.45097000  1
  C  C1317  1  0.45506000  0.98622000  0.11118000  1
  C  C1318  1  0.98624000  0.88880000  0.54490000  1
  C  C1319  1  0.55591000  0.19006000  0.85421000  1
  O  O1320  1  0.09120000  0.49664000  0.55457000  1
  O  O1321  1  0.62411000  0.03320000  0.10277000  1
  O  O1322  1  0.05471000  0.87597000  0.53323000  1
  O  O1323  1  0.55461000  0.90881000  0.49653000  1
  O  O1324  1  0.39745000  0.94530000  0.46678000  1
  O  O1325  1  0.44546000  0.62411000  0.10277000  1
  O  O1326  1  0.00333000  0.40888000  0.94541000  1
  O  O1327  1  0.40896000  0.00332000  0.46690000  1
  O  O1328  1  0.87589000  0.05458000  0.39722000  1
  O  O1329  1  0.96680000  0.49654000  0.90868000  1
  O  O1330  1  0.50336000  0.03326000  0.44543000  1
  O  O1331  1  0.94539000  0.59104000  0.53312000  1
  O  O1332  1  0.90880000  0.50336000  0.44543000  1
  O  O1333  1  0.55461000  0.50335000  0.96685000  1
  O  O1334  1  0.37598000  0.10271000  0.44550000  1
  O  O1335  1  0.53324000  0.94535000  0.87601000  1
  O  O1336  1  0.94541000  0.53325000  0.60277000  1
  O  O1337  1  0.05462000  0.53306000  0.99656000  1
  O  O1338  1  0.03326000  0.90881000  0.44543000  1
  O  O1339  1  0.50335000  0.90888000  0.96683000  1
  O  O1340  1  0.09111000  0.44540000  0.03316000  1
  O  O1341  1  0.87597000  0.60256000  0.53323000  1
  O  O1342  1  0.05461000  0.40896000  0.46688000  1
  O  O1343  1  0.59112000  0.94538000  0.00342000  1
  O  O1344  1  0.05465000  0.60257000  0.12398000  1
  O  O1345  1  0.44539000  0.09119000  0.50347000  1
  O  O1346  1  0.53315000  0.05467000  0.59124000  1
  O  O1347  1  0.09119000  0.96689000  0.50347000  1
  O  O1348  1  0.94535000  0.39742000  0.87601000  1
  O  O1349  1  0.12411000  0.94541000  0.60277000  1
  O  O1350  1  0.62402000  0.89729000  0.55450000  1
  O  O1351  1  0.44534000  0.89745000  0.96682000  1
  O  O1352  1  0.89729000  0.03319000  0.55450000  1
  O  O1353  1  0.96680000  0.55454000  0.89723000  1
  O  O1354  1  0.10254000  0.37597000  0.03317000  1
  O  O1355  1  0.37589000  0.96680000  0.89723000  1
  O  O1356  1  0.99658000  0.46684000  0.40876000  1
  O  O1357  1  0.44535000  0.96679000  0.90869000  1
  O  O1358  1  0.46675000  0.87589000  0.39723000  1
  O  O1359  1  0.62403000  0.44534000  0.96682000  1
  O  O1360  1  0.96688000  0.44539000  0.50346000  1
  O  O1361  1  0.37597000  0.55466000  0.03317000  1
  O  O1362  1  0.44539000  0.03319000  0.37601000  1
  O  O1363  1  0.00331000  0.05461000  0.46688000  1
  O  O1364  1  0.03319000  0.89743000  0.37601000  1
  O  O1365  1  0.60255000  0.05470000  0.53322000  1
  O  O1366  1  0.96681000  0.10257000  0.62399000  1
  O  O1367  1  0.03320000  0.50345000  0.09131000  1
  O  O1368  1  0.46685000  0.94533000  0.40876000  1
  O  O1369  1  0.60272000  0.87598000  0.94546000  1
  O  O1370  1  0.05467000  0.00342000  0.59124000  1
  O  O1371  1  0.39743000  0.53324000  0.87602000  1
  O  O1372  1  0.03320000  0.44546000  0.10277000  1
  O  O1373  1  0.59104000  0.99668000  0.53310000  1
  O  O1374  1  0.96680000  0.37598000  0.44549000  1
  O  O1375  1  0.55466000  0.10255000  0.03318000  1
  O  O1376  1  0.12403000  0.39744000  0.46677000  1
  O  O1377  1  0.94533000  0.99658000  0.40876000  1
  O  O1378  1  0.99669000  0.94539000  0.53311000  1
  O  O1379  1  0.55461000  0.96681000  0.62398000  1
  O  O1380  1  0.94529000  0.12402000  0.46676000  1
  O  O1381  1  0.90889000  0.55460000  0.96684000  1
  O  O1382  1  0.10257000  0.55461000  0.62398000  1
  O  O1383  1  0.53325000  0.12411000  0.60277000  1
  O  O1384  1  0.46693000  0.59111000  0.00342000  1
  O  O1385  1  0.87598000  0.46676000  0.94545000  1
  O  O1386  1  0.00342000  0.53316000  0.59124000  1
  O  O1387  1  0.46679000  0.99667000  0.05458000  1
  O  O1388  1  0.03320000  0.62402000  0.55451000  1
  O  O1389  1  0.46676000  0.05465000  0.12399000  1
  O  O1390  1  0.53307000  0.40888000  0.99657000  1
  O  O1391  1  0.12402000  0.53324000  0.05455000  1
  O  O1392  1  0.40889000  0.53320000  0.94542000  1
  O  O1393  1  0.49665000  0.09111000  0.03316000  1
  O  O1394  1  0.50346000  0.55466000  0.09132000  1
  O  O1395  1  0.89746000  0.62403000  0.96682000  1
  O  O1396  1  0.39729000  0.12402000  0.05455000  1
  O  O1397  1  0.03313000  0.55460000  0.49654000  1
  O  O1398  1  0.99667000  0.59111000  0.05458000  1
  O  O1399  1  0.55454000  0.37589000  0.89723000  1
  O  O1400  1  0.96674000  0.09119000  0.55457000  1
  O  O1401  1  0.46676000  0.60271000  0.94545000  1
  O  O1402  1  0.49664000  0.96674000  0.55457000  1
  O  O1403  1  0.40888000  0.05461000  0.99657000  1
  O  O1404  1  0.49655000  0.44534000  0.90869000  1
  O  O1405  1  0.94538000  0.46693000  0.00342000  1
  O  O1406  1  0.90881000  0.03311000  0.49653000  1
  O  O1407  1  0.10271000  0.96681000  0.44550000  1
  O  O1408  1  0.44540000  0.49664000  0.03315000  1
  O  O1409  1  0.53324000  0.39729000  0.05455000  1
  O  O1410  1  0.59111000  0.46680000  0.05458000  1
  O  O1411  1  0.89743000  0.44539000  0.37601000  1
  O  O1412  1  0.05459000  0.46675000  0.39723000  1
  O  O1413  1  0.55465000  0.03320000  0.09130000  1
  O  O1414  1  0.60257000  0.46676000  0.12398000  1
  O  O1415  1  0.53321000  0.00333000  0.94542000  1
