# generated using pymatgen
data_H20C39(NO2)4
_symmetry_space_group_name_H-M   'P 1'
_cell_length_a   29.09340000
_cell_length_b   46.81640000
_cell_length_c   46.81650000
_cell_angle_alpha   90.00000000
_cell_angle_beta   89.99980000
_cell_angle_gamma   90.00000000
_symmetry_Int_Tables_number   1
_chemical_formula_structural   H20C39(NO2)4
_chemical_formula_sum   'H640 C1248 N128 O256'
_cell_volume   63766.33197813
_cell_formula_units_Z   32
loop_
 _symmetry_equiv_pos_site_id
 _symmetry_equiv_pos_as_xyz
  1  'x, y, z'
loop_
 _atom_site_type_symbol
 _atom_site_label
 _atom_site_symmetry_multiplicity
 _atom_site_fract_x
 _atom_site_fract_y
 _atom_site_fract_z
 _atom_site_occupancy
  H  25  1  0.71565300  0.18582500  0.42065500  1
  H  26  1  0.72923400  0.13736700  0.43048700  1
  H  27  1  0.82243000  0.05356300  0.43398000  1
  H  28  1  0.88287700  0.02491200  0.41793600  1
  H  29  1  0.93462700  0.09283200  0.36826100  1
  H  30  1  0.84976300  0.19416500  0.38728400  1
  H  31  1  0.81571000  0.11950400  0.34450100  1
  H  32  1  0.86969500  0.17243500  0.27974500  1
  H  33  1  0.93079800  0.18562500  0.30945900  1
  H  34  1  0.89953000  0.13199900  0.44703500  1
  H  35  1  0.02444700  0.17391000  0.39302400  1
  H  36  1  0.03602700  0.16190400  0.44147700  1
  H  39  1  0.80143200  0.10507500  0.44530700  1
  H  40  1  0.77151500  0.09450800  0.41393100  1
  H  42  1  0.98085400  0.16102900  0.34881500  1
  H  43  1  0.95379000  0.19260900  0.36147500  1
  H  68  1  0.21502000  0.32071400  0.58891100  1
  H  69  1  0.22971700  0.36887500  0.57828500  1
  H  70  1  0.32341200  0.45276000  0.57613800  1
  H  71  1  0.38283900  0.48145700  0.59371300  1
  H  72  1  0.43272000  0.41312800  0.64348800  1
  H  73  1  0.34773500  0.31230100  0.62437100  1
  H  74  1  0.31169600  0.38565700  0.66460000  1
  H  75  1  0.37055800  0.34013900  0.73298200  1
  H  76  1  0.43153400  0.32558200  0.70391900  1
  H  77  1  0.39926600  0.37352100  0.56395800  1
  H  78  1  0.52322800  0.33202000  0.61911600  1
  H  79  1  0.53531700  0.34309100  0.57049200  1
  H  82  1  0.30334700  0.40079700  0.56414800  1
  H  83  1  0.27166900  0.41177900  0.59469100  1
  H  85  1  0.48007400  0.34720100  0.66275600  1
  H  86  1  0.45299900  0.31499000  0.65181400  1
  H  111  1  0.96428700  0.83161000  0.93867900  1
  H  112  1  0.97464700  0.82526200  0.88938000  1
  H  113  1  0.04969000  0.84203600  0.80116400  1
  H  114  1  0.10560600  0.86371200  0.77241300  1
  H  115  1  0.18056200  0.88872200  0.84530600  1
  H  116  1  0.09718100  0.86702500  0.94558500  1
  H  117  1  0.06312600  0.91351500  0.86880200  1
  H  118  1  0.11386000  0.97789400  0.92324600  1
  H  119  1  0.17048500  0.94673000  0.94062500  1
  H  120  1  0.14712700  0.81119000  0.87986400  1
  H  121  1  0.26824900  0.86528800  0.92580100  1
  H  122  1  0.28300900  0.81812500  0.91080000  1
  H  125  1  0.04126600  0.81709400  0.85137700  1
  H  126  1  0.01039300  0.84969300  0.84802300  1
  H  128  1  0.22248700  0.90877500  0.91776700  1
  H  129  1  0.19255900  0.89294500  0.94679100  1
  H  154  1  0.46378900  0.67479700  0.07410900  1
  H  155  1  0.47466100  0.68125400  0.12336100  1
  H  156  1  0.55153400  0.66539700  0.21140200  1
  H  157  1  0.60838200  0.64419100  0.23998400  1
  H  158  1  0.68104400  0.61792400  0.16659100  1
  H  159  1  0.59654400  0.63925900  0.06678300  1
  H  160  1  0.56274200  0.59344300  0.14373300  1
  H  161  1  0.61590600  0.52778300  0.09203900  1
  H  162  1  0.67152600  0.55887400  0.07335500  1
  H  163  1  0.64724300  0.69533500  0.13217800  1
  H  164  1  0.76779600  0.64116600  0.08571600  1
  H  165  1  0.78274800  0.68835000  0.10062700  1
  H  168  1  0.54178200  0.68962800  0.16100700  1
  H  169  1  0.51101300  0.65704300  0.16476700  1
  H  171  1  0.72267200  0.59779000  0.09435200  1
  H  172  1  0.69167500  0.61303700  0.06545000  1
  H  197  1  0.78629500  0.31781600  0.41698100  1
  H  198  1  0.77515100  0.36657000  0.42778300  1
  H  199  1  0.68493800  0.45175000  0.43436200  1
  H  200  1  0.62473200  0.48149300  0.41995900  1
  H  201  1  0.56693900  0.41453000  0.37148700  1
  H  202  1  0.65031200  0.31224100  0.38619600  1
  H  203  1  0.68668500  0.39029900  0.34556200  1
  H  204  1  0.63808200  0.33774700  0.27891100  1
  H  205  1  0.57654600  0.32267300  0.30731800  1
  H  206  1  0.60029000  0.37315300  0.44673800  1
  H  207  1  0.48000900  0.32990300  0.38975400  1
  H  208  1  0.46582700  0.34039100  0.43802600  1
  H  211  1  0.70525900  0.39966700  0.44452500  1
  H  212  1  0.73309400  0.41050100  0.41251900  1
  H  214  1  0.52393000  0.34487900  0.34678700  1
  H  215  1  0.55280200  0.31362500  0.35873100  1
  H  240  1  0.28604200  0.18866800  0.59569100  1
  H  241  1  0.27540000  0.13992100  0.58460100  1
  H  242  1  0.18393400  0.05512100  0.57527700  1
  H  243  1  0.12336500  0.02525100  0.58914000  1
  H  244  1  0.06725900  0.09112800  0.63981200  1
  H  245  1  0.14943100  0.19379100  0.62544500  1
  H  246  1  0.18598000  0.11492600  0.66580100  1
  H  247  1  0.13791500  0.16730300  0.73268100  1
  H  248  1  0.07639200  0.18269100  0.70443500  1
  H  249  1  0.10001000  0.13307300  0.56473200  1
  H  250  1  0.97949600  0.17566600  0.62202000  1
  H  251  1  0.96522900  0.16521500  0.57374000  1
  H  254  1  0.20566100  0.10718700  0.56676100  1
  H  255  1  0.23280100  0.09566100  0.59874500  1
  H  257  1  0.02360000  0.16072500  0.66486300  1
  H  258  1  0.05249000  0.19203000  0.65308300  1
  H  283  1  0.53642700  0.67333800  0.94309300  1
  H  284  1  0.52806100  0.68153600  0.89366800  1
  H  285  1  0.45527800  0.66891500  0.80377300  1
  H  286  1  0.40163000  0.64711300  0.77351000  1
  H  287  1  0.32444400  0.61906300  0.84431000  1
  H  288  1  0.40325600  0.63788100  0.94642800  1
  H  289  1  0.44137800  0.59491300  0.86766300  1
  H  290  1  0.38968300  0.52719100  0.91719700  1
  H  291  1  0.33294800  0.55704000  0.93650600  1
  H  292  1  0.35294900  0.69552700  0.88143400  1
  H  293  1  0.23492800  0.63847900  0.92695000  1
  H  294  1  0.21802800  0.68552900  0.91318100  1
  H  297  1  0.46188800  0.69179300  0.85543000  1
  H  298  1  0.49326600  0.65959100  0.85056200  1
  H  300  1  0.28100700  0.59615600  0.91688500  1
  H  301  1  0.31185300  0.61065100  0.94624000  1
  H  326  1  0.03688600  0.83294700  0.06953400  1
  H  327  1  0.02820500  0.82480000  0.11894000  1
  H  328  1  0.95512000  0.83783400  0.20864800  1
  H  329  1  0.90134800  0.85976400  0.23872600  1
  H  330  1  0.82420000  0.88725300  0.16768500  1
  H  331  1  0.90365100  0.86827900  0.06579800  1
  H  332  1  0.94129200  0.91140400  0.14457700  1
  H  333  1  0.89026000  0.97895100  0.09457500  1
  H  334  1  0.83355600  0.94909600  0.07521000  1
  H  335  1  0.85305200  0.81077700  0.13069000  1
  H  336  1  0.73499100  0.86787500  0.08526400  1
  H  337  1  0.71800100  0.82087200  0.09915300  1
  H  340  1  0.96186000  0.81463900  0.15709500  1
  H  341  1  0.99318700  0.84687400  0.16188200  1
  H  343  1  0.78128300  0.91016300  0.09498700  1
  H  344  1  0.81215600  0.89545700  0.06574800  1
  H  369  1  0.29320300  0.82022100  0.58837100  1
  H  370  1  0.28404700  0.86983800  0.58374000  1
  H  371  1  0.20721300  0.95780500  0.59956600  1
  H  372  1  0.14619800  0.98611500  0.61600200  1
  H  373  1  0.06899700  0.91255400  0.63582400  1
  H  374  1  0.15770500  0.81284100  0.61970400  1
  H  375  1  0.19088000  0.89126200  0.66609100  1
  H  376  1  0.13581500  0.84207200  0.73306800  1
  H  377  1  0.08191600  0.82166200  0.70186700  1
  H  378  1  0.10805300  0.87774500  0.56415700  1
  H  379  1  0.98899300  0.82911500  0.61776000  1
  H  380  1  0.97410400  0.84355200  0.57042900  1
  H  383  1  0.22099300  0.90853400  0.57497200  1
  H  384  1  0.24553800  0.91042600  0.60970500  1
  H  386  1  0.03205800  0.83972900  0.66132400  1
  H  387  1  0.06522200  0.81109300  0.64740200  1
  H  412  1  0.79288400  0.68563500  0.42401500  1
  H  413  1  0.78410200  0.63592200  0.42791600  1
  H  414  1  0.70889600  0.54795300  0.40907400  1
  H  415  1  0.64784100  0.51976000  0.39246700  1
  H  416  1  0.56902900  0.59338100  0.37562500  1
  H  417  1  0.65747200  0.69305400  0.39260600  1
  H  418  1  0.69051400  0.61534000  0.34475500  1
  H  419  1  0.63928600  0.66893400  0.27986100  1
  H  420  1  0.58411800  0.68760700  0.31136500  1
  H  421  1  0.60844700  0.62753600  0.44731300  1
  H  422  1  0.48823400  0.67537000  0.39401200  1
  H  423  1  0.47352600  0.66023600  0.44115500  1
  H  426  1  0.72183000  0.59654300  0.43538500  1
  H  427  1  0.74629300  0.59587200  0.40058600  1
  H  429  1  0.53261900  0.66666667  0.35033900  1
  H  430  1  0.56445800  0.69516200  0.36557500  1
  H  455  1  0.04131900  0.15943000  0.07197500  1
  H  456  1  0.03173300  0.16730500  0.12111400  1
  H  457  1  0.95079600  0.16383700  0.20869300  1
  H  458  1  0.88956900  0.14967000  0.23799100  1
  H  459  1  0.81396100  0.12269200  0.16613000  1
  H  460  1  0.90279500  0.13325400  0.06515300  1
  H  461  1  0.93729100  0.09076200  0.14205300  1
  H  462  1  0.86319500  0.02116400  0.10859500  1
  H  463  1  0.80918000  0.05209800  0.08820800  1
  H  464  1  0.85714900  0.19350400  0.12709200  1
  H  465  1  0.73215500  0.14096000  0.08322600  1
  H  466  1  0.72211200  0.18958100  0.09410300  1
  H  469  1  0.96739100  0.18255900  0.15744100  1
  H  470  1  0.98993500  0.14772800  0.16322800  1
  H  472  1  0.76942500  0.09746300  0.10074700  1
  H  473  1  0.80076900  0.10507700  0.06906000  1
  H  498  1  0.54121500  0.34663900  0.94118600  1
  H  499  1  0.53295600  0.33871200  0.89197900  1
  H  500  1  0.45584200  0.34384100  0.80346100  1
  H  501  1  0.39647800  0.35910300  0.77345300  1
  H  502  1  0.31649500  0.38329100  0.84441700  1
  H  503  1  0.40252400  0.37286100  0.94653200  1
  H  504  1  0.43886600  0.41542000  0.86984800  1
  H  505  1  0.36352900  0.48493000  0.90239900  1
  H  506  1  0.30923700  0.45391800  0.92237700  1
  H  507  1  0.35866500  0.31244800  0.88433400  1
  H  508  1  0.23256800  0.36498700  0.92694600  1
  H  509  1  0.22300400  0.31627600  0.91634900  1
  H  512  1  0.46962500  0.32367100  0.85482300  1
  H  513  1  0.49267800  0.35846400  0.84959400  1
  H  515  1  0.27002700  0.40848100  0.90951600  1
  H  516  1  0.30059500  0.40097900  0.94151900  1
  H  541  1  0.22072200  0.68916200  0.58637800  1
  H  542  1  0.22901000  0.63953400  0.57955600  1
  H  543  1  0.30046400  0.54994400  0.59672000  1
  H  544  1  0.35672700  0.52050300  0.61716600  1
  H  545  1  0.43731900  0.59225600  0.63809600  1
  H  546  1  0.35431400  0.69351300  0.62113200  1
  H  547  1  0.31746700  0.61496100  0.66495900  1
  H  548  1  0.37079900  0.66371800  0.73272800  1
  H  549  1  0.42664600  0.68348900  0.70248800  1
  H  550  1  0.40432500  0.62881300  0.56390500  1
  H  551  1  0.52317700  0.67429300  0.62033100  1
  H  552  1  0.53950300  0.66038400  0.57325800  1
  H  555  1  0.29306700  0.60030900  0.57091500  1
  H  556  1  0.26400100  0.59747800  0.60418100  1
  H  558  1  0.47772000  0.66443800  0.66284600  1
  H  559  1  0.44639000  0.69368200  0.64853900  1
  H  584  1  0.71986000  0.81668800  0.42492700  1
  H  585  1  0.72778700  0.86638600  0.43144200  1
  H  586  1  0.79969600  0.95598900  0.41483700  1
  H  587  1  0.85677800  0.98542800  0.39526500  1
  H  588  1  0.93731200  0.91359600  0.37451300  1
  H  589  1  0.85395600  0.81237700  0.39091400  1
  H  590  1  0.81673100  0.89117400  0.34701500  1
  H  591  1  0.86960600  0.84256700  0.27900400  1
  H  592  1  0.92562200  0.82271100  0.30905300  1
  H  593  1  0.90370300  0.87662600  0.44794500  1
  H  594  1  0.02264700  0.83179300  0.39105000  1
  H  595  1  0.03900000  0.84535700  0.43822800  1
  H  598  1  0.79126100  0.90571000  0.44029200  1
  H  599  1  0.76321000  0.90839500  0.40667300  1
  H  601  1  0.97693900  0.84176400  0.34865500  1
  H  602  1  0.94581200  0.81239400  0.36287600  1
  H  627  1  0.47124400  0.34314500  0.07054600  1
  H  628  1  0.48088500  0.33411100  0.11957700  1
  H  629  1  0.55782700  0.34217300  0.20829500  1
  H  630  1  0.61579600  0.35998700  0.23813700  1
  H  631  1  0.69334200  0.38594800  0.16676300  1
  H  632  1  0.60777000  0.37336000  0.06523500  1
  H  633  1  0.57007400  0.41444900  0.14099600  1
  H  634  1  0.64074300  0.48479400  0.10622400  1
  H  635  1  0.69753600  0.45462500  0.08764100  1
  H  636  1  0.65442600  0.31255700  0.12669400  1
  H  637  1  0.78041700  0.36764900  0.08731500  1
  H  638  1  0.79155000  0.31914000  0.09766900  1
  H  641  1  0.54660100  0.32070200  0.15658800  1
  H  642  1  0.51952600  0.35428400  0.16214200  1
  H  644  1  0.73947700  0.41048600  0.10328600  1
  H  645  1  0.71136400  0.40187000  0.07069200  1
  H  670  1  0.97198300  0.16267000  0.94236400  1
  H  671  1  0.98117700  0.17215100  0.89339000  1
  H  672  1  0.05765300  0.16572400  0.80446800  1
  H  673  1  0.11487000  0.14785500  0.77417700  1
  H  674  1  0.19251900  0.12005100  0.84479700  1
  H  675  1  0.10847400  0.13222200  0.94687100  1
  H  676  1  0.06985700  0.09190300  0.87079100  1
  H  677  1  0.14110400  0.02078400  0.90374300  1
  H  678  1  0.19818600  0.05079900  0.92258200  1
  H  679  1  0.15512300  0.19346300  0.88533700  1
  H  680  1  0.28020400  0.13805900  0.92532200  1
  H  681  1  0.29172100  0.18655500  0.91518500  1
  H  684  1  0.04670000  0.18611800  0.85652900  1
  H  685  1  0.01951800  0.15265900  0.85042000  1
  H  687  1  0.23978600  0.09544100  0.90836700  1
  H  688  1  0.21108900  0.10339100  0.94092600  1
  H  694  1  0.75547000  0.22826200  0.44599000  1
  H  696  1  0.74678400  0.27875700  0.35616500  1
  H  708  1  0.25325000  0.27763300  0.56528900  1
  H  710  1  0.24614000  0.22806100  0.65565900  1
  H  722  1  0.00635600  0.80667600  0.98030800  1
  H  724  1  0.99577500  0.89619800  0.03128400  1
  H  736  1  0.50480500  0.69955100  0.03227600  1
  H  738  1  0.49597100  0.61008900  0.98109300  1
  H  750  1  0.24986400  0.77915000  0.56062200  1
  H  752  1  0.26158900  0.72712900  0.64951200  1
  H  764  1  0.74977100  0.72690300  0.45154600  1
  H  766  1  0.76114800  0.77851300  0.36239200  1
  H  778  1  0.99381600  0.18985200  0.03121600  1
  H  780  1  0.01712000  0.10103700  0.98060900  1
  H  792  1  0.49137600  0.31609000  0.98137900  1
  H  794  1  0.51750200  0.40476600  0.03172600  1
  H  806  1  0.25769300  0.72853900  0.93905900  1
  H  808  1  0.24373300  0.77867100  0.84930400  1
  H  820  1  0.75803700  0.77803900  0.07302000  1
  H  822  1  0.74343300  0.72758000  0.16257400  1
  H  834  1  0.50602900  0.31452000  0.48037000  1
  H  836  1  0.49582700  0.40407400  0.53127500  1
  H  848  1  0.00409900  0.19104300  0.53119700  1
  H  850  1  0.99731500  0.10142300  0.48024700  1
  H  862  1  0.74490000  0.27856200  0.06869400  1
  H  864  1  0.76588800  0.22699700  0.15716100  1
  H  876  1  0.24648400  0.22776800  0.94323700  1
  H  878  1  0.26655500  0.27843400  0.85419600  1
  H  890  1  0.49916800  0.68670300  0.53093300  1
  H  892  1  0.51237000  0.59754000  0.47963300  1
  H  904  1  0.99857600  0.81848800  0.48032600  1
  H  906  1  0.01214000  0.90716900  0.53238900  1
  H  918  1  0.77446000  0.17182300  0.27805800  1
  H  920  1  0.83955400  0.08812800  0.23382800  1
  H  932  1  0.27325200  0.33805400  0.73224100  1
  H  934  1  0.34530800  0.41901300  0.77683200  1
  H  946  1  0.01725100  0.98133300  0.91386300  1
  H  948  1  0.10819700  0.02340200  0.83874400  1
  H  960  1  0.51706500  0.52725500  0.10102600  1
  H  962  1  0.61002100  0.48077600  0.17239500  1
  H  974  1  0.73392500  0.34084000  0.27940800  1
  H  976  1  0.66197800  0.42167700  0.23402500  1
  H  988  1  0.23471400  0.16332200  0.73134000  1
  H  990  1  0.15771800  0.08522900  0.77834900  1
  H  1002  1  0.48899000  0.52819900  0.90853500  1
  H  1004  1  0.39537500  0.48175600  0.83757300  1
  H  1016  1  0.98956400  0.97793000  0.10404300  1
  H  1018  1  0.89358400  0.02443500  0.17372600  1
  H  1030  1  0.23432900  0.85039400  0.73438300  1
  H  1032  1  0.14290600  0.92496000  0.77667800  1
  H  1044  1  0.73525900  0.65918500  0.27575100  1
  H  1046  1  0.64496700  0.58233200  0.23639800  1
  H  1058  1  0.27133800  0.65512000  0.73236300  1
  H  1060  1  0.36782900  0.58450600  0.77688700  1
  H  1072  1  0.77032200  0.85142800  0.27955300  1
  H  1074  1  0.86718200  0.92204400  0.23535300  1
  H  1086  1  0.52973800  0.48259100  0.42233900  1
  H  1088  1  0.59012700  0.52505700  0.33647000  1
  H  1100  1  0.02797600  0.02336600  0.58887300  1
  H  1102  1  0.09269500  0.98121800  0.67371900  1
  H  1114  1  0.97913900  0.02591700  0.41673500  1
  H  1116  1  0.90691300  0.98073700  0.33598800  1
  H  1128  1  0.47923900  0.47998500  0.59659600  1
  H  1130  1  0.40443200  0.52497600  0.67653400  1
  H  1161  1  0.16249000  0.18582500  0.42065500  1
  H  1162  1  0.17607100  0.13736700  0.43048700  1
  H  1163  1  0.26926700  0.05356300  0.43398000  1
  H  1164  1  0.32971400  0.02491200  0.41793600  1
  H  1165  1  0.38146400  0.09283200  0.36826100  1
  H  1166  1  0.29660000  0.19416500  0.38728400  1
  H  1167  1  0.26254700  0.11950400  0.34450100  1
  H  1168  1  0.31653200  0.17243500  0.27974500  1
  H  1169  1  0.37763500  0.18562500  0.30945900  1
  H  1170  1  0.34636700  0.13199900  0.44703500  1
  H  1171  1  0.47128400  0.17391000  0.39302400  1
  H  1172  1  0.48286400  0.16190400  0.44147700  1
  H  1175  1  0.24826900  0.10507500  0.44530700  1
  H  1176  1  0.21835200  0.09450800  0.41393100  1
  H  1178  1  0.42769100  0.16102900  0.34881500  1
  H  1179  1  0.40062700  0.19260900  0.36147500  1
  H  1204  1  0.66185700  0.32071400  0.58891100  1
  H  1205  1  0.67655400  0.36887500  0.57828500  1
  H  1206  1  0.77024900  0.45276000  0.57613800  1
  H  1207  1  0.82967600  0.48145700  0.59371300  1
  H  1208  1  0.87955700  0.41312800  0.64348800  1
  H  1209  1  0.79457200  0.31230100  0.62437100  1
  H  1210  1  0.75853300  0.38565700  0.66460000  1
  H  1211  1  0.81739500  0.34013900  0.73298200  1
  H  1212  1  0.87837100  0.32558200  0.70391900  1
  H  1213  1  0.84610300  0.37352100  0.56395800  1
  H  1214  1  0.97006500  0.33202000  0.61911600  1
  H  1215  1  0.98215400  0.34309100  0.57049200  1
  H  1218  1  0.75018400  0.40079700  0.56414800  1
  H  1219  1  0.71850600  0.41177900  0.59469100  1
  H  1221  1  0.92691100  0.34720100  0.66275600  1
  H  1222  1  0.89983600  0.31499000  0.65181400  1
  H  1247  1  0.41112400  0.83161000  0.93867900  1
  H  1248  1  0.42148400  0.82526200  0.88938000  1
  H  1249  1  0.49652700  0.84203600  0.80116400  1
  H  1250  1  0.55244300  0.86371200  0.77241300  1
  H  1251  1  0.62739900  0.88872200  0.84530600  1
  H  1252  1  0.54401800  0.86702500  0.94558500  1
  H  1253  1  0.50996300  0.91351500  0.86880200  1
  H  1254  1  0.56069700  0.97789400  0.92324600  1
  H  1255  1  0.61732200  0.94673000  0.94062500  1
  H  1256  1  0.59396400  0.81119000  0.87986400  1
  H  1257  1  0.71508600  0.86528800  0.92580100  1
  H  1258  1  0.72984600  0.81812500  0.91080000  1
  H  1261  1  0.48810300  0.81709400  0.85137700  1
  H  1262  1  0.45723000  0.84969300  0.84802300  1
  H  1264  1  0.66932400  0.90877500  0.91776700  1
  H  1265  1  0.63939600  0.89294500  0.94679100  1
  H  1290  1  0.91062600  0.67479700  0.07410900  1
  H  1291  1  0.92149800  0.68125400  0.12336100  1
  H  1292  1  0.99837100  0.66539700  0.21140200  1
  H  1293  1  0.05521870  0.64419100  0.23998400  1
  H  1294  1  0.12788100  0.61792400  0.16659100  1
  H  1295  1  0.04338070  0.63925900  0.06678300  1
  H  1296  1  0.00957874  0.59344300  0.14373300  1
  H  1297  1  0.06274270  0.52778300  0.09203900  1
  H  1298  1  0.11836300  0.55887400  0.07335500  1
  H  1299  1  0.09407970  0.69533500  0.13217800  1
  H  1300  1  0.21463300  0.64116600  0.08571600  1
  H  1301  1  0.22958500  0.68835000  0.10062700  1
  H  1304  1  0.98861900  0.68962800  0.16100700  1
  H  1305  1  0.95785000  0.65704300  0.16476700  1
  H  1307  1  0.16950900  0.59779000  0.09435200  1
  H  1308  1  0.13851200  0.61303700  0.06545000  1
  H  1333  1  0.23313200  0.31781600  0.41698100  1
  H  1334  1  0.22198800  0.36657000  0.42778300  1
  H  1335  1  0.13177500  0.45175000  0.43436200  1
  H  1336  1  0.07156870  0.48149300  0.41995900  1
  H  1337  1  0.01377570  0.41453000  0.37148700  1
  H  1338  1  0.09714870  0.31224100  0.38619600  1
  H  1339  1  0.13352200  0.39029900  0.34556200  1
  H  1340  1  0.08491870  0.33774700  0.27891100  1
  H  1341  1  0.02338270  0.32267300  0.30731800  1
  H  1342  1  0.04712670  0.37315300  0.44673800  1
  H  1343  1  0.92684600  0.32990300  0.38975400  1
  H  1344  1  0.91266400  0.34039100  0.43802600  1
  H  1347  1  0.15209600  0.39966700  0.44452500  1
  H  1348  1  0.17993100  0.41050100  0.41251900  1
  H  1350  1  0.97076700  0.34487900  0.34678700  1
  H  1351  1  0.99963900  0.31362500  0.35873100  1
  H  1376  1  0.73287900  0.18866800  0.59569100  1
  H  1377  1  0.72223700  0.13992100  0.58460100  1
  H  1378  1  0.63077100  0.05512100  0.57527700  1
  H  1379  1  0.57020200  0.02525100  0.58914000  1
  H  1380  1  0.51409600  0.09112800  0.63981200  1
  H  1381  1  0.59626800  0.19379100  0.62544500  1
  H  1382  1  0.63281700  0.11492600  0.66580100  1
  H  1383  1  0.58475200  0.16730300  0.73268100  1
  H  1384  1  0.52322900  0.18269100  0.70443500  1
  H  1385  1  0.54684700  0.13307300  0.56473200  1
  H  1386  1  0.42633300  0.17566600  0.62202000  1
  H  1387  1  0.41206600  0.16521500  0.57374000  1
  H  1390  1  0.65249800  0.10718700  0.56676100  1
  H  1391  1  0.67963800  0.09566100  0.59874500  1
  H  1393  1  0.47043700  0.16072500  0.66486300  1
  H  1394  1  0.49932700  0.19203000  0.65308300  1
  H  1419  1  0.98326400  0.67333800  0.94309300  1
  H  1420  1  0.97489800  0.68153600  0.89366800  1
  H  1421  1  0.90211500  0.66891500  0.80377300  1
  H  1422  1  0.84846700  0.64711300  0.77351000  1
  H  1423  1  0.77128100  0.61906300  0.84431000  1
  H  1424  1  0.85009300  0.63788100  0.94642800  1
  H  1425  1  0.88821500  0.59491300  0.86766300  1
  H  1426  1  0.83652000  0.52719100  0.91719700  1
  H  1427  1  0.77978500  0.55704000  0.93650600  1
  H  1428  1  0.79978600  0.69552700  0.88143400  1
  H  1429  1  0.68176500  0.63847900  0.92695000  1
  H  1430  1  0.66486500  0.68552900  0.91318100  1
  H  1433  1  0.90872500  0.69179300  0.85543000  1
  H  1434  1  0.94010300  0.65959100  0.85056200  1
  H  1436  1  0.72784400  0.59615600  0.91688500  1
  H  1437  1  0.75869000  0.61065100  0.94624000  1
  H  1462  1  0.48372300  0.83294700  0.06953400  1
  H  1463  1  0.47504200  0.82480000  0.11894000  1
  H  1464  1  0.40195700  0.83783400  0.20864800  1
  H  1465  1  0.34818500  0.85976400  0.23872600  1
  H  1466  1  0.27103700  0.88725300  0.16768500  1
  H  1467  1  0.35048800  0.86827900  0.06579800  1
  H  1468  1  0.38812900  0.91140400  0.14457700  1
  H  1469  1  0.33709700  0.97895100  0.09457500  1
  H  1470  1  0.28039300  0.94909600  0.07521000  1
  H  1471  1  0.29988900  0.81077700  0.13069000  1
  H  1472  1  0.18182800  0.86787500  0.08526400  1
  H  1473  1  0.16483800  0.82087200  0.09915300  1
  H  1476  1  0.40869700  0.81463900  0.15709500  1
  H  1477  1  0.44002400  0.84687400  0.16188200  1
  H  1479  1  0.22812000  0.91016300  0.09498700  1
  H  1480  1  0.25899300  0.89545700  0.06574800  1
  H  1505  1  0.74004000  0.82022100  0.58837100  1
  H  1506  1  0.73088400  0.86983800  0.58374000  1
  H  1507  1  0.65405000  0.95780500  0.59956600  1
  H  1508  1  0.59303500  0.98611500  0.61600200  1
  H  1509  1  0.51583400  0.91255400  0.63582400  1
  H  1510  1  0.60454200  0.81284100  0.61970400  1
  H  1511  1  0.63771700  0.89126200  0.66609100  1
  H  1512  1  0.58265200  0.84207200  0.73306800  1
  H  1513  1  0.52875300  0.82166200  0.70186700  1
  H  1514  1  0.55489000  0.87774500  0.56415700  1
  H  1515  1  0.43583000  0.82911500  0.61776000  1
  H  1516  1  0.42094100  0.84355200  0.57042900  1
  H  1519  1  0.66783000  0.90853400  0.57497200  1
  H  1520  1  0.69237500  0.91042600  0.60970500  1
  H  1522  1  0.47889500  0.83972900  0.66132400  1
  H  1523  1  0.51205900  0.81109300  0.64740200  1
  H  1548  1  0.23972100  0.68563500  0.42401500  1
  H  1549  1  0.23093900  0.63592200  0.42791600  1
  H  1550  1  0.15573300  0.54795300  0.40907400  1
  H  1551  1  0.09467770  0.51976000  0.39246700  1
  H  1552  1  0.01586570  0.59338100  0.37562500  1
  H  1553  1  0.10430900  0.69305400  0.39260600  1
  H  1554  1  0.13735100  0.61534000  0.34475500  1
  H  1555  1  0.08612270  0.66893400  0.27986100  1
  H  1556  1  0.03095470  0.68760700  0.31136500  1
  H  1557  1  0.05528370  0.62753600  0.44731300  1
  H  1558  1  0.93507100  0.67537000  0.39401200  1
  H  1559  1  0.92036300  0.66023600  0.44115500  1
  H  1562  1  0.16866700  0.59654300  0.43538500  1
  H  1563  1  0.19313000  0.59587200  0.40058600  1
  H  1565  1  0.97945600  0.66666667  0.35033900  1
  H  1566  1  0.01129470  0.69516200  0.36557500  1
  H  1591  1  0.48815600  0.15943000  0.07197500  1
  H  1592  1  0.47857000  0.16730500  0.12111400  1
  H  1593  1  0.39763300  0.16383700  0.20869300  1
  H  1594  1  0.33640600  0.14967000  0.23799100  1
  H  1595  1  0.26079800  0.12269200  0.16613000  1
  H  1596  1  0.34963200  0.13325400  0.06515300  1
  H  1597  1  0.38412800  0.09076200  0.14205300  1
  H  1598  1  0.31003200  0.02116400  0.10859500  1
  H  1599  1  0.25601700  0.05209800  0.08820800  1
  H  1600  1  0.30398600  0.19350400  0.12709200  1
  H  1601  1  0.17899200  0.14096000  0.08322600  1
  H  1602  1  0.16894900  0.18958100  0.09410300  1
  H  1605  1  0.41422800  0.18255900  0.15744100  1
  H  1606  1  0.43677200  0.14772800  0.16322800  1
  H  1608  1  0.21626200  0.09746300  0.10074700  1
  H  1609  1  0.24760600  0.10507700  0.06906000  1
  H  1634  1  0.98805200  0.34663900  0.94118600  1
  H  1635  1  0.97979300  0.33871200  0.89197900  1
  H  1636  1  0.90267900  0.34384100  0.80346100  1
  H  1637  1  0.84331500  0.35910300  0.77345300  1
  H  1638  1  0.76333200  0.38329100  0.84441700  1
  H  1639  1  0.84936100  0.37286100  0.94653200  1
  H  1640  1  0.88570300  0.41542000  0.86984800  1
  H  1641  1  0.81036600  0.48493000  0.90239900  1
  H  1642  1  0.75607400  0.45391800  0.92237700  1
  H  1643  1  0.80550200  0.31244800  0.88433400  1
  H  1644  1  0.67940500  0.36498700  0.92694600  1
  H  1645  1  0.66984100  0.31627600  0.91634900  1
  H  1648  1  0.91646200  0.32367100  0.85482300  1
  H  1649  1  0.93951500  0.35846400  0.84959400  1
  H  1651  1  0.71686400  0.40848100  0.90951600  1
  H  1652  1  0.74743200  0.40097900  0.94151900  1
  H  1677  1  0.66755900  0.68916200  0.58637800  1
  H  1678  1  0.67584700  0.63953400  0.57955600  1
  H  1679  1  0.74730100  0.54994400  0.59672000  1
  H  1680  1  0.80356400  0.52050300  0.61716600  1
  H  1681  1  0.88415600  0.59225600  0.63809600  1
  H  1682  1  0.80115100  0.69351300  0.62113200  1
  H  1683  1  0.76430400  0.61496100  0.66495900  1
  H  1684  1  0.81763600  0.66371800  0.73272800  1
  H  1685  1  0.87348300  0.68348900  0.70248800  1
  H  1686  1  0.85116200  0.62881300  0.56390500  1
  H  1687  1  0.97001400  0.67429300  0.62033100  1
  H  1688  1  0.98634000  0.66038400  0.57325800  1
  H  1691  1  0.73990400  0.60030900  0.57091500  1
  H  1692  1  0.71083800  0.59747800  0.60418100  1
  H  1694  1  0.92455700  0.66443800  0.66284600  1
  H  1695  1  0.89322700  0.69368200  0.64853900  1
  H  1720  1  0.16669700  0.81668800  0.42492700  1
  H  1721  1  0.17462400  0.86638600  0.43144200  1
  H  1722  1  0.24653300  0.95598900  0.41483700  1
  H  1723  1  0.30361500  0.98542800  0.39526500  1
  H  1724  1  0.38414900  0.91359600  0.37451300  1
  H  1725  1  0.30079300  0.81237700  0.39091400  1
  H  1726  1  0.26356800  0.89117400  0.34701500  1
  H  1727  1  0.31644300  0.84256700  0.27900400  1
  H  1728  1  0.37245900  0.82271100  0.30905300  1
  H  1729  1  0.35054000  0.87662600  0.44794500  1
  H  1730  1  0.46948400  0.83179300  0.39105000  1
  H  1731  1  0.48583700  0.84535700  0.43822800  1
  H  1734  1  0.23809800  0.90571000  0.44029200  1
  H  1735  1  0.21004700  0.90839500  0.40667300  1
  H  1737  1  0.42377600  0.84176400  0.34865500  1
  H  1738  1  0.39264900  0.81239400  0.36287600  1
  H  1763  1  0.91808100  0.34314500  0.07054600  1
  H  1764  1  0.92772200  0.33411100  0.11957700  1
  H  1765  1  0.00466374  0.34217300  0.20829500  1
  H  1766  1  0.06263270  0.35998700  0.23813700  1
  H  1767  1  0.14017900  0.38594800  0.16676300  1
  H  1768  1  0.05460670  0.37336000  0.06523500  1
  H  1769  1  0.01691070  0.41444900  0.14099600  1
  H  1770  1  0.08757970  0.48479400  0.10622400  1
  H  1771  1  0.14437300  0.45462500  0.08764100  1
  H  1772  1  0.10126300  0.31255700  0.12669400  1
  H  1773  1  0.22725400  0.36764900  0.08731500  1
  H  1774  1  0.23838700  0.31914000  0.09766900  1
  H  1777  1  0.99343800  0.32070200  0.15658800  1
  H  1778  1  0.96636300  0.35428400  0.16214200  1
  H  1780  1  0.18631400  0.41048600  0.10328600  1
  H  1781  1  0.15820100  0.40187000  0.07069200  1
  H  1806  1  0.41882000  0.16267000  0.94236400  1
  H  1807  1  0.42801400  0.17215100  0.89339000  1
  H  1808  1  0.50449000  0.16572400  0.80446800  1
  H  1809  1  0.56170700  0.14785500  0.77417700  1
  H  1810  1  0.63935600  0.12005100  0.84479700  1
  H  1811  1  0.55531100  0.13222200  0.94687100  1
  H  1812  1  0.51669400  0.09190300  0.87079100  1
  H  1813  1  0.58794100  0.02078400  0.90374300  1
  H  1814  1  0.64502300  0.05079900  0.92258200  1
  H  1815  1  0.60196000  0.19346300  0.88533700  1
  H  1816  1  0.72704100  0.13805900  0.92532200  1
  H  1817  1  0.73855800  0.18655500  0.91518500  1
  H  1820  1  0.49353700  0.18611800  0.85652900  1
  H  1821  1  0.46635500  0.15265900  0.85042000  1
  H  1823  1  0.68662300  0.09544100  0.90836700  1
  H  1824  1  0.65792600  0.10339100  0.94092600  1
  H  1830  1  0.20230700  0.22826200  0.44599000  1
  H  1832  1  0.19362100  0.27875700  0.35616500  1
  H  1844  1  0.70008700  0.27763300  0.56528900  1
  H  1846  1  0.69297700  0.22806100  0.65565900  1
  H  1858  1  0.45319300  0.80667600  0.98030800  1
  H  1860  1  0.44261200  0.89619800  0.03128400  1
  H  1872  1  0.95164200  0.69955100  0.03227600  1
  H  1874  1  0.94280800  0.61008900  0.98109300  1
  H  1886  1  0.69670100  0.77915000  0.56062200  1
  H  1888  1  0.70842600  0.72712900  0.64951200  1
  H  1900  1  0.19660800  0.72690300  0.45154600  1
  H  1902  1  0.20798500  0.77851300  0.36239200  1
  H  1914  1  0.44065300  0.18985200  0.03121600  1
  H  1916  1  0.46395700  0.10103700  0.98060900  1
  H  1928  1  0.93821300  0.31609000  0.98137900  1
  H  1930  1  0.96433900  0.40476600  0.03172600  1
  H  1942  1  0.70453000  0.72853900  0.93905900  1
  H  1944  1  0.69057000  0.77867100  0.84930400  1
  H  1956  1  0.20487400  0.77803900  0.07302000  1
  H  1958  1  0.19027000  0.72758000  0.16257400  1
  H  1970  1  0.95286600  0.31452000  0.48037000  1
  H  1972  1  0.94266400  0.40407400  0.53127500  1
  H  1984  1  0.45093600  0.19104300  0.53119700  1
  H  1986  1  0.44415200  0.10142300  0.48024700  1
  H  1998  1  0.19173700  0.27856200  0.06869400  1
  H  2000  1  0.21272500  0.22699700  0.15716100  1
  H  2012  1  0.69332100  0.22776800  0.94323700  1
  H  2014  1  0.71339200  0.27843400  0.85419600  1
  H  2026  1  0.94600500  0.68670300  0.53093300  1
  H  2028  1  0.95920700  0.59754000  0.47963300  1
  H  2040  1  0.44541300  0.81848800  0.48032600  1
  H  2042  1  0.45897700  0.90716900  0.53238900  1
  H  2054  1  0.22129700  0.17182300  0.27805800  1
  H  2056  1  0.28639100  0.08812800  0.23382800  1
  H  2068  1  0.72008900  0.33805400  0.73224100  1
  H  2070  1  0.79214500  0.41901300  0.77683200  1
  H  2082  1  0.46408800  0.98133300  0.91386300  1
  H  2084  1  0.55503400  0.02340200  0.83874400  1
  H  2096  1  0.96390200  0.52725500  0.10102600  1
  H  2098  1  0.05685770  0.48077600  0.17239500  1
  H  2110  1  0.18076200  0.34084000  0.27940800  1
  H  2112  1  0.10881500  0.42167700  0.23402500  1
  H  2124  1  0.68155100  0.16332200  0.73134000  1
  H  2126  1  0.60455500  0.08522900  0.77834900  1
  H  2138  1  0.93582700  0.52819900  0.90853500  1
  H  2140  1  0.84221200  0.48175600  0.83757300  1
  H  2152  1  0.43640100  0.97793000  0.10404300  1
  H  2154  1  0.34042100  0.02443500  0.17372600  1
  H  2166  1  0.68116600  0.85039400  0.73438300  1
  H  2168  1  0.58974300  0.92496000  0.77667800  1
  H  2180  1  0.18209600  0.65918500  0.27575100  1
  H  2182  1  0.09180370  0.58233200  0.23639800  1
  H  2194  1  0.71817500  0.65512000  0.73236300  1
  H  2196  1  0.81466600  0.58450600  0.77688700  1
  H  2208  1  0.21715900  0.85142800  0.27955300  1
  H  2210  1  0.31401900  0.92204400  0.23535300  1
  H  2222  1  0.97657500  0.48259100  0.42233900  1
  H  2224  1  0.03696370  0.52505700  0.33647000  1
  H  2236  1  0.47481300  0.02336600  0.58887300  1
  H  2238  1  0.53953200  0.98121800  0.67371900  1
  H  2250  1  0.42597600  0.02591700  0.41673500  1
  H  2252  1  0.35375000  0.98073700  0.33598800  1
  H  2264  1  0.92607600  0.47998500  0.59659600  1
  H  2266  1  0.85126900  0.52497600  0.67653400  1
  C  1  1  0.91842800  0.14584400  0.40530800  1
  C  2  1  0.95542900  0.15907100  0.39051600  1
  C  3  1  0.90976300  0.16107700  0.34534400  1
  C  4  1  0.87548700  0.14268100  0.35673300  1
  C  5  1  0.83996000  0.13365700  0.33747500  1
  C  6  1  0.83673900  0.14403100  0.30886800  1
  C  7  1  0.86996700  0.16416300  0.29993100  1
  C  8  1  0.90630500  0.17209500  0.31748800  1
  C  9  1  0.99800600  0.16437800  0.40388900  1
  C  10  1  0.00491900  0.15706600  0.43238400  1
  C  11  1  0.96864500  0.14580900  0.44882400  1
  C  12  1  0.92573200  0.14036700  0.43513500  1
  C  13  1  0.83296500  0.15183000  0.40022400  1
  C  14  1  0.79722200  0.13617000  0.41378000  1
  C  15  1  0.84235600  0.09092800  0.41132700  1
  C  16  1  0.87564100  0.10349800  0.39299000  1
  C  17  1  0.84602600  0.06238800  0.42032400  1
  C  18  1  0.88184900  0.04541400  0.41057500  1
  C  19  1  0.91424100  0.05559900  0.39051400  1
  C  20  1  0.91070400  0.08484100  0.38211100  1
  C  21  1  0.82460900  0.18182200  0.39622600  1
  C  22  1  0.78218700  0.19513400  0.40395800  1
  C  23  1  0.74718300  0.17763700  0.41532600  1
  C  24  1  0.75503000  0.14894400  0.42109500  1
  C  37  1  0.87556200  0.13601100  0.38879700  1
  C  38  1  0.80165200  0.10606300  0.42192800  1
  C  41  1  0.95151800  0.16926200  0.36096900  1
  C  44  1  0.41750300  0.36009200  0.60593300  1
  C  45  1  0.45431200  0.34712200  0.62113700  1
  C  46  1  0.40900700  0.34719000  0.66653500  1
  C  47  1  0.37373100  0.36414100  0.65417200  1
  C  48  1  0.33746500  0.37330500  0.67280700  1
  C  49  1  0.33598400  0.36601900  0.70240500  1
  C  50  1  0.37050300  0.34728000  0.71244200  1
  C  51  1  0.40651500  0.33825500  0.69515100  1
  C  52  1  0.49687900  0.34130800  0.60795500  1
  C  53  1  0.50411100  0.34809100  0.57936100  1
  C  54  1  0.46822300  0.35940600  0.56263400  1
  C  55  1  0.42521600  0.36516700  0.57607100  1
  C  56  1  0.33197000  0.35441800  0.61035200  1
  C  57  1  0.29704000  0.37005400  0.59597700  1
  C  58  1  0.34232400  0.41526000  0.59889000  1
  C  59  1  0.37481700  0.40262800  0.61771100  1
  C  60  1  0.34635300  0.44388100  0.59018200  1
  C  61  1  0.38148100  0.46088700  0.60086600  1
  C  62  1  0.41283200  0.45057900  0.62149300  1
  C  63  1  0.40931300  0.42121800  0.62936000  1
  C  64  1  0.32305900  0.32456800  0.61482900  1
  C  65  1  0.28075900  0.31131400  0.60674000  1
  C  66  1  0.24650000  0.32880100  0.59449000  1
  C  67  1  0.25498700  0.35734000  0.58826000  1
  C  80  1  0.37440100  0.37016100  0.62201900  1
  C  81  1  0.30218600  0.40006500  0.58751800  1
  C  84  1  0.45064100  0.33832600  0.65114900  1
  C  87  1  0.16373600  0.85246100  0.89592500  1
  C  88  1  0.19934400  0.86713400  0.91070600  1
  C  89  1  0.15149600  0.91125900  0.91487300  1
  C  90  1  0.11907200  0.90034200  0.89498300  1
  C  91  1  0.08545100  0.92002100  0.88435200  1
  C  92  1  0.08349400  0.94894700  0.89360500  1
  C  93  1  0.11352400  0.95737800  0.91579000  1
  C  94  1  0.14722700  0.93899900  0.92611700  1
  C  95  1  0.24273300  0.85453100  0.91523000  1
  C  96  1  0.25155700  0.82679700  0.90604300  1
  C  97  1  0.21618600  0.81003600  0.89412200  1
  C  98  1  0.17271400  0.82316800  0.88883700  1
  C  99  1  0.07833200  0.85600100  0.90304800  1
  C  100  1  0.04174400  0.84328100  0.88741900  1
  C  101  1  0.08060700  0.85292100  0.84089100  1
  C  102  1  0.11814200  0.86677500  0.85456100  1
  C  103  1  0.07713600  0.85165400  0.81096100  1
  C  104  1  0.11038600  0.86442700  0.79398900  1
  C  105  1  0.14913700  0.87795000  0.80608000  1
  C  106  1  0.15271400  0.87883900  0.83637300  1
  C  107  1  0.07175500  0.85822200  0.93336900  1
  C  108  1  0.03044300  0.84928300  0.94719300  1
  C  109  1  0.99515000  0.83772300  0.93006900  1
  C  110  1  0.00118900  0.83389700  0.90089600  1
  C  123  1  0.11993900  0.86858200  0.88720100  1
  C  124  1  0.04200600  0.83995700  0.85628700  1
  C  127  1  0.19286900  0.89550800  0.92355400  1
  C  130  1  0.66360700  0.65405500  0.11603600  1
  C  131  1  0.69907900  0.63933800  0.10116900  1
  C  132  1  0.65182800  0.59492600  0.09808300  1
  C  133  1  0.61903700  0.60615000  0.11757400  1
  C  134  1  0.58545500  0.58660600  0.12854300  1
  C  135  1  0.58550700  0.55712700  0.12112300  1
  C  136  1  0.61563100  0.54834400  0.09915100  1
  C  137  1  0.64829400  0.56679900  0.08777200  1
  C  138  1  0.74237800  0.65195300  0.09634700  1
  C  139  1  0.75128700  0.67970400  0.10541700  1
  C  140  1  0.71612100  0.69643900  0.11760100  1
  C  141  1  0.67268500  0.68335000  0.12305300  1
  C  142  1  0.57812400  0.65044700  0.10934000  1
  C  143  1  0.54174100  0.66321600  0.12511300  1
  C  144  1  0.58132700  0.65388600  0.17152100  1
  C  145  1  0.61857300  0.63992700  0.15767400  1
  C  146  1  0.57857400  0.65547300  0.20148000  1
  C  147  1  0.61217600  0.64283000  0.21832100  1
  C  148  1  0.65029800  0.62882000  0.20597700  1
  C  149  1  0.65337100  0.62786100  0.17567300  1
  C  150  1  0.57122900  0.64810800  0.07905700  1
  C  151  1  0.52980700  0.65705400  0.06534900  1
  C  152  1  0.49472400  0.66867800  0.08260700  1
  C  153  1  0.50103400  0.67252900  0.11176400  1
  C  166  1  0.61992000  0.63797500  0.12503600  1
  C  167  1  0.54247700  0.66673400  0.15624600  1
  C  170  1  0.69267600  0.61079600  0.08871200  1
  C  173  1  0.58390200  0.35979900  0.40447800  1
  C  174  1  0.54829200  0.34613900  0.38878200  1
  C  175  1  0.59493900  0.34679700  0.34405500  1
  C  176  1  0.62777100  0.36558100  0.35640900  1
  C  177  1  0.66331500  0.37594100  0.33783900  1
  C  178  1  0.66795500  0.36642700  0.30902400  1
  C  179  1  0.63638800  0.34570600  0.29917900  1
  C  180  1  0.59983700  0.33664000  0.31596800  1
  C  181  1  0.50568500  0.33940700  0.40134400  1
  C  182  1  0.49747300  0.34558000  0.42992000  1
  C  183  1  0.53246800  0.35679600  0.44752700  1
  C  184  1  0.57514000  0.36426300  0.43435400  1
  C  185  1  0.66940900  0.35416800  0.39933200  1
  C  186  1  0.70645500  0.36909500  0.41235900  1
  C  187  1  0.66212600  0.41482400  0.41206900  1
  C  188  1  0.62725500  0.40293100  0.39443400  1
  C  189  1  0.65998400  0.44332900  0.42140100  1
  C  190  1  0.62418900  0.46092200  0.41269300  1
  C  191  1  0.58987900  0.45128800  0.39359300  1
  C  192  1  0.59196900  0.42209800  0.38480700  1
  C  193  1  0.67645200  0.32419200  0.39455600  1
  C  194  1  0.71914200  0.31044700  0.40049600  1
  C  195  1  0.75532900  0.32691700  0.41181000  1
  C  196  1  0.74866100  0.35559300  0.41843000  1
  C  209  1  0.62696000  0.37066300  0.38877200  1
  C  210  1  0.70327900  0.39909900  0.42117000  1
  C  213  1  0.55349600  0.33701800  0.35898100  1
  C  216  1  0.08361500  0.14622500  0.60705300  1
  C  217  1  0.04793200  0.15968100  0.62285000  1
  C  218  1  0.09459900  0.15873500  0.66755900  1
  C  219  1  0.12738600  0.14000600  0.65507800  1
  C  220  1  0.16273300  0.12931600  0.67361000  1
  C  221  1  0.16734600  0.13855300  0.70251200  1
  C  222  1  0.13603500  0.15939800  0.71241900  1
  C  223  1  0.09956400  0.16870300  0.69570100  1
  C  224  1  0.00524000  0.16633200  0.61035700  1
  C  225  1  0.99700900  0.16022300  0.58176500  1
  C  226  1  0.03202100  0.14914300  0.56408500  1
  C  227  1  0.07482800  0.14185400  0.57716800  1
  C  228  1  0.16911800  0.15195500  0.61236900  1
  C  229  1  0.20643500  0.13716900  0.59948400  1
  C  230  1  0.16178500  0.09154800  0.59861500  1
  C  231  1  0.12709400  0.10314500  0.61657700  1
  C  232  1  0.15912200  0.06332900  0.58847100  1
  C  233  1  0.12310800  0.04569000  0.59679500  1
  C  234  1  0.08940600  0.05497200  0.61646400  1
  C  235  1  0.09183300  0.08389200  0.62598200  1
  C  236  1  0.17585600  0.18192600  0.61730700  1
  C  237  1  0.21856100  0.19579700  0.61173900  1
  C  238  1  0.25514000  0.17943000  0.60075300  1
  C  239  1  0.24873300  0.15077300  0.59390100  1
  C  252  1  0.12670200  0.13530200  0.62267100  1
  C  253  1  0.20324400  0.10731700  0.59010500  1
  C  256  1  0.05316200  0.16864000  0.65270100  1
  C  259  1  0.33848400  0.65370900  0.89689000  1
  C  260  1  0.30368900  0.63812200  0.91148900  1
  C  261  1  0.35179400  0.59402000  0.91290100  1
  C  262  1  0.38433800  0.60621500  0.89384600  1
  C  263  1  0.41850700  0.58732600  0.88239900  1
  C  264  1  0.41934200  0.55763100  0.88896300  1
  C  265  1  0.38925300  0.54789500  0.91054300  1
  C  266  1  0.35596000  0.56562400  0.92233000  1
  C  267  1  0.26007500  0.64999400  0.91683800  1
  C  268  1  0.25022000  0.67785400  0.90865700  1
  C  269  1  0.28455900  0.69569200  0.89701800  1
  C  270  1  0.32814700  0.68307000  0.89059700  1
  C  271  1  0.42387600  0.65030400  0.90455600  1
  C  272  1  0.46105300  0.66362000  0.88998200  1
  C  273  1  0.42320600  0.65639400  0.84264200  1
  C  274  1  0.38552000  0.64169400  0.85522900  1
  C  275  1  0.42765000  0.65878600  0.81282700  1
  C  276  1  0.39570500  0.64594800  0.79493200  1
  C  277  1  0.35701500  0.63150300  0.80595600  1
  C  278  1  0.35208000  0.62979600  0.83613600  1
  C  279  1  0.42928300  0.64684300  0.93482900  1
  C  280  1  0.47037100  0.65480000  0.94938400  1
  C  281  1  0.50641400  0.66704800  0.93348100  1
  C  282  1  0.50132600  0.67215700  0.90439800  1
  C  295  1  0.38284900  0.63835700  0.88770900  1
  C  296  1  0.46133800  0.66869900  0.85906700  1
  C  299  1  0.31075000  0.60922000  0.92291500  1
  C  302  1  0.83858500  0.85259600  0.11524700  1
  C  303  1  0.80379700  0.86818900  0.10064400  1
  C  304  1  0.85206900  0.91219700  0.09905300  1
  C  305  1  0.88444400  0.90005200  0.11824900  1
  C  306  1  0.91851700  0.91895300  0.12976500  1
  C  307  1  0.91940700  0.94862200  0.12312300  1
  C  308  1  0.88964800  0.95828500  0.10133600  1
  C  309  1  0.85639000  0.94054800  0.08952100  1
  C  310  1  0.76011700  0.85636400  0.09540300  1
  C  311  1  0.75018300  0.82854900  0.10370400  1
  C  312  1  0.78457600  0.81069200  0.11524900  1
  C  313  1  0.82823200  0.82325400  0.12157000  1
  C  314  1  0.92403700  0.85594700  0.10774100  1
  C  315  1  0.96113800  0.84267400  0.12243100  1
  C  316  1  0.92309500  0.85007800  0.16967400  1
  C  317  1  0.88542000  0.86468200  0.15696300  1
  C  318  1  0.92744000  0.84782800  0.19950700  1
  C  319  1  0.89544300  0.86077000  0.21729100  1
  C  320  1  0.85673300  0.87509500  0.20614200  1
  C  321  1  0.85185200  0.87660700  0.17594900  1
  C  322  1  0.92961200  0.85934600  0.07747500  1
  C  323  1  0.97083500  0.85143600  0.06305000  1
  C  324  1  0.00679000  0.83921800  0.07905600  1
  C  325  1  0.00151900  0.83413700  0.10812900  1
  C  338  1  0.88292100  0.86793500  0.12447000  1
  C  339  1  0.96130300  0.83771900  0.15336200  1
  C  342  1  0.81099100  0.89701600  0.08906400  1
  C  345  1  0.09194100  0.86124300  0.60533100  1
  C  346  1  0.05688500  0.84589100  0.61996000  1
  C  347  1  0.10249900  0.84508400  0.66512800  1
  C  348  1  0.13505500  0.86457500  0.65364900  1
  C  349  1  0.16790600  0.87635700  0.67320400  1
  C  350  1  0.16715900  0.86999800  0.70292200  1
  C  351  1  0.13675900  0.84837300  0.71221200  1
  C  352  1  0.10514400  0.83595200  0.69371000  1
  C  353  1  0.01416600  0.84002800  0.60703100  1
  C  354  1  0.00527300  0.84882000  0.57919900  1
  C  355  1  0.04001300  0.86173400  0.56267300  1
  C  356  1  0.08298100  0.86801800  0.57597400  1
  C  357  1  0.17751600  0.85556700  0.61015600  1
  C  358  1  0.21539500  0.87147000  0.59936900  1
  C  359  1  0.17515100  0.91781200  0.60791500  1
  C  360  1  0.13561900  0.90381300  0.61901600  1
  C  361  1  0.17832800  0.94777600  0.60708900  1
  C  362  1  0.14213600  0.96447100  0.61678000  1
  C  363  1  0.10097800  0.95201800  0.62679300  1
  C  364  1  0.09839300  0.92170600  0.62812200  1
  C  365  1  0.18383300  0.82520000  0.61194800  1
  C  366  1  0.22570100  0.81150600  0.60381000  1
  C  367  1  0.26199800  0.82879900  0.59383200  1
  C  368  1  0.25665300  0.85814300  0.59100200  1
  C  381  1  0.13489300  0.87118800  0.62162800  1
  C  382  1  0.21594000  0.90272400  0.59741700  1
  C  385  1  0.06285900  0.83437200  0.64893300  1
  C  388  1  0.59194800  0.64418400  0.40626800  1
  C  389  1  0.55661700  0.65941800  0.39177900  1
  C  390  1  0.60330500  0.66227000  0.34709200  1
  C  391  1  0.63530200  0.64210600  0.35799600  1
  C  392  1  0.66826800  0.63090500  0.33820600  1
  C  393  1  0.66972500  0.63961900  0.30912700  1
  C  394  1  0.63991500  0.66184200  0.30051600  1
  C  395  1  0.60713700  0.67295600  0.31909500  1
  C  396  1  0.51358400  0.66450800  0.40462700  1
  C  397  1  0.50481500  0.65530400  0.43235100  1
  C  398  1  0.53991300  0.64272500  0.44885300  1
  C  399  1  0.58309100  0.63703100  0.43554400  1
  C  400  1  0.67750000  0.65025500  0.40164300  1
  C  401  1  0.71554000  0.63429900  0.41213300  1
  C  402  1  0.67602200  0.58797300  0.40222800  1
  C  403  1  0.63610300  0.60204300  0.39177100  1
  C  404  1  0.67970700  0.55802000  0.40207900  1
  C  405  1  0.64347900  0.54139100  0.39230900  1
  C  406  1  0.60173700  0.55387200  0.38332900  1
  C  407  1  0.59882600  0.58419500  0.38266300  1
  C  408  1  0.68362200  0.68065900  0.40027200  1
  C  409  1  0.72541200  0.69435000  0.40853600  1
  C  410  1  0.76172600  0.67704900  0.41846800  1
  C  411  1  0.75661400  0.64764200  0.42083100  1
  C  424  1  0.63503000  0.63470700  0.38984200  1
  C  425  1  0.71660500  0.60300200  0.41313200  1
  C  428  1  0.56289700  0.67192200  0.36322900  1
  C  431  1  0.83743700  0.15198400  0.11311000  1
  C  432  1  0.80023900  0.13755300  0.09959500  1
  C  433  1  0.83959200  0.09042700  0.10368300  1
  C  434  1  0.87655200  0.10254200  0.11943100  1
  C  435  1  0.91013000  0.08304500  0.13055200  1
  C  436  1  0.90616700  0.05299700  0.12690400  1
  C  437  1  0.86849200  0.04250400  0.11111700  1
  C  438  1  0.83627200  0.06080300  0.09917000  1
  C  439  1  0.75889300  0.15162000  0.09268900  1
  C  440  1  0.75284400  0.18024900  0.09942100  1
  C  441  1  0.78909300  0.19628500  0.11127800  1
  C  442  1  0.83108500  0.18199100  0.11803800  1
  C  443  1  0.92294400  0.14411000  0.10752600  1
  C  444  1  0.96151000  0.15463300  0.12300500  1
  C  445  1  0.91960700  0.15158200  0.16944200  1
  C  446  1  0.88023000  0.13941500  0.15619600  1
  C  447  1  0.92203700  0.15549000  0.19919000  1
  C  448  1  0.88569200  0.14716800  0.21647900  1
  C  449  1  0.84516000  0.13541100  0.20480800  1
  C  450  1  0.84298500  0.13153800  0.17469100  1
  C  451  1  0.92956800  0.14047200  0.07731000  1
  C  452  1  0.97243300  0.14638100  0.06353100  1
  C  453  1  0.00960500  0.15536000  0.08063000  1
  C  454  1  0.00397100  0.16018300  0.10966700  1
  C  467  1  0.87930200  0.13492000  0.12374600  1
  C  468  1  0.96127200  0.15974700  0.15389400  1
  C  471  1  0.80105100  0.10708900  0.09235600  1
  C  474  1  0.33846500  0.35402700  0.89786600  1
  C  475  1  0.30093900  0.36844100  0.91104900  1
  C  476  1  0.34022900  0.41562300  0.90726400  1
  C  477  1  0.37766600  0.40353600  0.89193800  1
  C  478  1  0.41142000  0.42309700  0.88110900  1
  C  479  1  0.40714700  0.45315700  0.88458400  1
  C  480  1  0.36903200  0.46359400  0.89999600  1
  C  481  1  0.33667200  0.44524800  0.91171800  1
  C  482  1  0.25953000  0.35433100  0.91772200  1
  C  483  1  0.25377700  0.32563800  0.91117300  1
  C  484  1  0.29029100  0.30959900  0.89963900  1
  C  485  1  0.33233400  0.32396700  0.89307100  1
  C  486  1  0.42379700  0.36198400  0.90437200  1
  C  487  1  0.46281300  0.35144900  0.88933700  1
  C  488  1  0.42254900  0.35488600  0.84240500  1
  C  489  1  0.38254400  0.36674500  0.85520100  1
  C  490  1  0.42649900  0.35177200  0.81263700  1
  C  491  1  0.39112300  0.36064900  0.79488300  1
  C  492  1  0.34977300  0.37172200  0.80602900  1
  C  493  1  0.34601000  0.37475100  0.83620200  1
  C  494  1  0.42962000  0.36564100  0.93465400  1
  C  495  1  0.47211700  0.35974300  0.94887800  1
  C  496  1  0.50975400  0.35074000  0.93219100  1
  C  497  1  0.50489100  0.34586400  0.90312000  1
  C  510  1  0.38059100  0.37113900  0.88766000  1
  C  511  1  0.46357900  0.34647700  0.85844600  1
  C  514  1  0.30147200  0.39892000  0.91823300  1
  C  517  1  0.41939700  0.64429100  0.60562500  1
  C  518  1  0.45437400  0.65892000  0.62103000  1
  C  519  1  0.40700600  0.66022800  0.66545000  1
  C  520  1  0.37435600  0.64116000  0.65340500  1
  C  521  1  0.34056200  0.62959500  0.67247300  1
  C  522  1  0.34029300  0.63589400  0.70221500  1
  C  523  1  0.37064100  0.65736500  0.71191200  1
  C  524  1  0.40344900  0.66938900  0.69397400  1
  C  525  1  0.49786900  0.66417900  0.60895500  1
  C  526  1  0.50743100  0.65583200  0.58110400  1
  C  527  1  0.47277700  0.64432500  0.56340500  1
  C  528  1  0.42932000  0.63796000  0.57622500  1
  C  529  1  0.33390400  0.65138000  0.60949800  1
  C  530  1  0.29637500  0.63638600  0.59704900  1
  C  531  1  0.33417500  0.58924000  0.60577000  1
  C  532  1  0.37329100  0.60235700  0.61840700  1
  C  533  1  0.32919100  0.55936300  0.60520000  1
  C  534  1  0.36263900  0.54196600  0.61723200  1
  C  535  1  0.40349300  0.55346800  0.62871900  1
  C  536  1  0.40831900  0.58370300  0.62921300  1
  C  537  1  0.32828800  0.68169700  0.61245600  1
  C  538  1  0.28695200  0.69599300  0.60448500  1
  C  539  1  0.25096900  0.67977800  0.59258100  1
  C  540  1  0.25600000  0.65056000  0.58828700  1
  C  553  1  0.37544600  0.63490300  0.62128600  1
  C  554  1  0.29534800  0.60523400  0.59373000  1
  C  557  1  0.44770600  0.67036300  0.64997300  1
  C  560  1  0.91876100  0.86148600  0.40609600  1
  C  561  1  0.95375900  0.84702300  0.39054800  1
  C  562  1  0.90620500  0.84586800  0.34620900  1
  C  563  1  0.87362400  0.86489700  0.35838400  1
  C  564  1  0.83977400  0.87655600  0.33941300  1
  C  565  1  0.83936200  0.87035700  0.30965400  1
  C  566  1  0.86957500  0.84886400  0.29983900  1
  C  567  1  0.90242800  0.83674500  0.31768300  1
  C  568  1  0.99731800  0.84176900  0.40252900  1
  C  569  1  0.00685900  0.84986000  0.43045500  1
  C  570  1  0.97218600  0.86115500  0.44827100  1
  C  571  1  0.92870500  0.86759900  0.43553700  1
  C  572  1  0.83322300  0.85452900  0.40224100  1
  C  573  1  0.79543100  0.86953200  0.41436900  1
  C  574  1  0.83341900  0.91667000  0.40590600  1
  C  575  1  0.87276800  0.90353100  0.39357100  1
  C  576  1  0.82859000  0.94655200  0.40659800  1
  C  577  1  0.86251500  0.96394600  0.39508500  1
  C  578  1  0.90360300  0.95239600  0.38398200  1
  C  579  1  0.90815000  0.92215900  0.38318500  1
  C  580  1  0.82776100  0.82419400  0.39939100  1
  C  581  1  0.78637400  0.80988200  0.40722200  1
  C  582  1  0.75013200  0.82609500  0.41881400  1
  C  583  1  0.75497800  0.85534700  0.42297500  1
  C  596  1  0.87480600  0.87100200  0.39052700  1
  C  597  1  0.79424200  0.90069900  0.41752400  1
  C  600  1  0.94701800  0.83572200  0.36155800  1
  C  603  1  0.67354400  0.35458300  0.11395700  1
  C  604  1  0.71096800  0.36971900  0.10151300  1
  C  605  1  0.66886600  0.41605500  0.10378100  1
  C  606  1  0.63190200  0.40346300  0.11912800  1
  C  607  1  0.59700100  0.42247600  0.12949300  1
  C  608  1  0.59934900  0.45249100  0.12510500  1
  C  609  1  0.63667700  0.46341200  0.10928500  1
  C  610  1  0.67048500  0.44558300  0.09837000  1
  C  611  1  0.75340800  0.35644500  0.09581000  1
  C  612  1  0.75994200  0.32777200  0.10208700  1
  C  613  1  0.72340400  0.31076500  0.11222900  1
  C  614  1  0.68070000  0.32455300  0.11855200  1
  C  615  1  0.58784400  0.36099500  0.10724100  1
  C  616  1  0.54988000  0.34905700  0.12226400  1
  C  617  1  0.58993100  0.35396100  0.16919200  1
  C  618  1  0.62880900  0.36707000  0.15628400  1
  C  619  1  0.58630400  0.35112200  0.19901400  1
  C  620  1  0.62074500  0.36160000  0.21664700  1
  C  621  1  0.66099800  0.37402900  0.20531500  1
  C  622  1  0.66457300  0.37660500  0.17512000  1
  C  623  1  0.58138200  0.36516000  0.07709300  1
  C  624  1  0.53894300  0.35881600  0.06307000  1
  C  625  1  0.50237800  0.34804000  0.07958600  1
  C  626  1  0.50816000  0.34241800  0.10848700  1
  C  639  1  0.63058300  0.37108300  0.12382100  1
  C  640  1  0.54992200  0.34374000  0.15313600  1
  C  643  1  0.70918100  0.40009700  0.09397200  1
  C  646  1  0.17377300  0.15137600  0.89816100  1
  C  647  1  0.21100900  0.13610600  0.91065900  1
  C  648  1  0.16923200  0.08966200  0.90733300  1
  C  649  1  0.13209600  0.10252300  0.89237000  1
  C  650  1  0.09716700  0.08365500  0.88177800  1
  C  651  1  0.09985600  0.05353000  0.88532800  1
  C  652  1  0.13737900  0.04227800  0.90076900  1
  C  653  1  0.17115500  0.05998700  0.91196200  1
  C  654  1  0.25332500  0.14935000  0.91678500  1
  C  655  1  0.26010000  0.17803000  0.91060300  1
  C  656  1  0.22391000  0.19513400  0.90014500  1
  C  657  1  0.18119700  0.18141200  0.89364100  1
  C  658  1  0.08814600  0.14493500  0.90504800  1
  C  659  1  0.05010700  0.15714500  0.89031200  1
  C  660  1  0.08988400  0.15305500  0.84325500  1
  C  661  1  0.12865800  0.13949600  0.85581700  1
  C  662  1  0.08613200  0.15653700  0.81351400  1
  C  663  1  0.12016500  0.14604000  0.79560600  1
  C  664  1  0.16014900  0.13298800  0.80658200  1
  C  665  1  0.16400400  0.12992200  0.83670800  1
  C  666  1  0.08197800  0.14052100  0.93517800  1
  C  667  1  0.03970300  0.14682400  0.94941700  1
  C  668  1  0.00297900  0.15776200  0.93314700  1
  C  669  1  0.00850000  0.16364600  0.90428500  1
  C  682  1  0.13071900  0.13499800  0.88820300  1
  C  683  1  0.04998400  0.16301500  0.85955300  1
  C  686  1  0.20926400  0.10558200  0.91767100  1
  C  689  1  0.72772800  0.28038900  0.39968800  1
  C  690  1  0.73166000  0.26549200  0.42597000  1
  C  691  1  0.75359300  0.23858300  0.42672600  1
  C  692  1  0.77100600  0.22501900  0.40189900  1
  C  693  1  0.76738000  0.23995200  0.37559600  1
  C  695  1  0.74707300  0.26764800  0.37499600  1
  C  703  1  0.22661700  0.22592300  0.61223600  1
  C  704  1  0.22995000  0.24058200  0.58580500  1
  C  705  1  0.25154500  0.26758300  0.58470100  1
  C  706  1  0.26917800  0.28149900  0.60928900  1
  C  707  1  0.26598900  0.26678700  0.63574900  1
  C  709  1  0.24605000  0.23899500  0.63672300  1
  C  717  1  0.97858200  0.85237200  0.03293900  1
  C  718  1  0.98289600  0.82621200  0.01786900  1
  C  719  1  0.00421600  0.82584900  0.99078000  1
  C  720  1  0.02045800  0.85096600  0.97721500  1
  C  721  1  0.01610800  0.87718400  0.99223100  1
  C  723  1  0.99651800  0.87740800  0.02010900  1
  C  731  1  0.47794300  0.65377700  0.97951600  1
  C  732  1  0.48179300  0.67993900  0.99464300  1
  C  733  1  0.50295600  0.68037900  0.02178500  1
  C  734  1  0.51954000  0.65533800  0.03534200  1
  C  735  1  0.51579700  0.62913800  0.02023000  1
  C  737  1  0.49629100  0.62885000  0.99232600  1
  C  745  1  0.27862000  0.72605700  0.60563800  1
  C  746  1  0.27375800  0.74136600  0.57964700  1
  C  747  1  0.25206900  0.76836700  0.57962200  1
  C  748  1  0.23555800  0.78145600  0.60491000  1
  C  749  1  0.24030200  0.76619300  0.63095000  1
  C  751  1  0.26052100  0.73848900  0.63083700  1
  C  759  1  0.77823800  0.77979500  0.40625700  1
  C  760  1  0.77350100  0.76462900  0.43232900  1
  C  761  1  0.75190900  0.73759600  0.43249300  1
  C  762  1  0.73522800  0.72438900  0.40729900  1
  C  763  1  0.73996100  0.73953500  0.38118200  1
  C  765  1  0.76013100  0.76725000  0.38112700  1
  C  773  1  0.03048000  0.14536400  0.97945100  1
  C  774  1  0.02224700  0.17128500  0.99440700  1
  C  775  1  0.99808100  0.17088200  0.02061400  1
  C  776  1  0.98250100  0.14524000  0.03348900  1
  C  777  1  0.99144100  0.11927300  0.01883400  1
  C  779  1  0.01352300  0.11977100  0.99166500  1
  C  787  1  0.52933300  0.36027100  0.03307900  1
  C  788  1  0.52025500  0.33442500  0.01817900  1
  C  789  1  0.49607100  0.33501900  0.99198400  1
  C  790  1  0.48147300  0.36082000  0.97900600  1
  C  791  1  0.49124900  0.38673200  0.99355600  1
  C  793  1  0.51323300  0.38603500  0.02075500  1
  C  801  1  0.22603500  0.78009200  0.89302400  1
  C  802  1  0.23131200  0.76518200  0.91923500  1
  C  803  1  0.25479600  0.73877500  0.91979200  1
  C  804  1  0.27205200  0.72541000  0.89481000  1
  C  805  1  0.26656400  0.74020600  0.86855000  1
  C  807  1  0.24522800  0.76763400  0.86815700  1
  C  815  1  0.72607800  0.72636300  0.11878400  1
  C  816  1  0.73147100  0.74134700  0.09263600  1
  C  817  1  0.75503300  0.76772200  0.09223600  1
  C  818  1  0.77218800  0.78096300  0.11731100  1
  C  819  1  0.76646900  0.76609400  0.14351300  1
  C  821  1  0.74508300  0.73868500  0.14376600  1
  C  829  1  0.47739700  0.36044200  0.53262700  1
  C  830  1  0.48174100  0.33423100  0.51764500  1
  C  831  1  0.50392500  0.33371600  0.49080200  1
  C  832  1  0.52118000  0.35869000  0.47741400  1
  C  833  1  0.51704500  0.38490300  0.49244900  1
  C  835  1  0.49651400  0.38529200  0.52008900  1
  C  843  1  0.97725900  0.14476700  0.47887800  1
  C  844  1  0.98066200  0.17102200  0.49388300  1
  C  845  1  0.00261200  0.17181100  0.52079000  1
  C  846  1  0.02060700  0.14707500  0.53423400  1
  C  847  1  0.01751800  0.12082700  0.51915600  1
  C  849  1  0.99719500  0.12019000  0.49146500  1
  C  857  1  0.78009400  0.22627300  0.11292700  1
  C  858  1  0.77266600  0.24154300  0.08712000  1
  C  859  1  0.74887000  0.26784400  0.08762400  1
  C  860  1  0.73353400  0.28072200  0.11331600  1
  C  861  1  0.74147000  0.26567400  0.13918700  1
  C  863  1  0.76285600  0.23829500  0.13853000  1
  C  871  1  0.28145000  0.27954300  0.89833800  1
  C  872  1  0.27425400  0.26453700  0.92431800  1
  C  873  1  0.25034500  0.23825800  0.92417100  1
  C  874  1  0.23448400  0.22514300  0.89870600  1
  C  875  1  0.24218000  0.23997600  0.87267200  1
  C  877  1  0.26376400  0.26731200  0.87294500  1
  C  885  1  0.53020200  0.64124700  0.47878700  1
  C  886  1  0.52520800  0.66730200  0.49399300  1
  C  887  1  0.50187000  0.66756100  0.52044800  1
  C  888  1  0.48473200  0.64241300  0.53357800  1
  C  889  1  0.48999700  0.61632900  0.51844000  1
  C  891  1  0.51103000  0.61624500  0.49092600  1
  C  899  1  0.03000000  0.86346800  0.53280300  1
  C  900  1  0.02483000  0.83755000  0.51737900  1
  C  901  1  0.00132300  0.83753300  0.49098700  1
  C  902  1  0.98418800  0.86280000  0.47809200  1
  C  903  1  0.98951900  0.88873900  0.49347100  1
  C  905  1  0.01072700  0.88856600  0.52092900  1
  C  913  1  0.81042400  0.12842600  0.22532700  1
  C  914  1  0.78699200  0.15154900  0.23882200  1
  C  915  1  0.78430500  0.15283800  0.26901000  1
  C  916  1  0.80794600  0.13282000  0.28639500  1
  C  917  1  0.82296300  0.10729700  0.27296600  1
  C  919  1  0.82136500  0.10462700  0.24273500  1
  C  927  1  0.31595500  0.37873200  0.78492500  1
  C  928  1  0.29078800  0.35630200  0.77159200  1
  C  929  1  0.28370100  0.35675100  0.74163700  1
  C  930  1  0.30541100  0.37747000  0.72396200  1
  C  931  1  0.31940800  0.40322400  0.73785800  1
  C  933  1  0.32639800  0.40282400  0.76789100  1
  C  941  1  0.06801800  0.03268000  0.87495600  1
  C  942  1  0.03778400  0.01996600  0.89528200  1
  C  943  1  0.03279000  0.98990000  0.89616600  1
  C  944  1  0.06064700  0.97188100  0.87899900  1
  C  945  1  0.08370000  0.98470100  0.85537700  1
  C  947  1  0.08514600  0.01481400  0.85293200  1
  C  955  1  0.56873300  0.47364400  0.13623800  1
  C  956  1  0.53818000  0.48757000  0.11696000  1
  C  957  1  0.53285600  0.51761300  0.11807100  1
  C  958  1  0.56153300  0.53459400  0.13582500  1
  C  959  1  0.58475100  0.52051200  0.15876500  1
  C  961  1  0.58681700  0.49023600  0.15886700  1
  C  969  1  0.69460700  0.38227800  0.22613000  1
  C  970  1  0.71988100  0.36014100  0.23993100  1
  C  971  1  0.72272400  0.35942300  0.27013000  1
  C  972  1  0.69697600  0.37864900  0.28726700  1
  C  973  1  0.68015000  0.40353100  0.27342100  1
  C  975  1  0.68146000  0.40589000  0.24316300  1
  C  983  1  0.19260900  0.12394800  0.78545300  1
  C  984  1  0.21892400  0.14534600  0.77119500  1
  C  985  1  0.22251800  0.14518600  0.74101300  1
  C  986  1  0.19610000  0.12599000  0.72425900  1
  C  987  1  0.17753800  0.10183100  0.73851700  1
  C  989  1  0.17802400  0.10037900  0.76881400  1
  C  997  1  0.43717400  0.47472900  0.87348800  1
  C  998  1  0.46780700  0.48860400  0.89271600  1
  C  999  1  0.47314500  0.51865800  0.89144700  1
  C  1000  1  0.44423500  0.53573500  0.87389300  1
  C  1001  1  0.42132600  0.52156500  0.85084600  1
  C  1003  1  0.41861700  0.49129800  0.85102100  1
  C  1011  1  0.93619800  0.03152800  0.13811300  1
  C  1012  1  0.96745300  0.01761500  0.11932000  1
  C  1013  1  0.97337500  0.98762600  0.12090800  1
  C  1014  1  0.94413100  0.97055700  0.13823400  1
  C  1015  1  0.92041800  0.98475900  0.16096000  1
  C  1017  1  0.91732800  0.01501200  0.16054000  1
  C  1025  1  0.18196000  0.88830800  0.78580100  1
  C  1026  1  0.21246100  0.86816500  0.77312800  1
  C  1027  1  0.21867100  0.86797100  0.74314300  1
  C  1028  1  0.19111600  0.88529200  0.72507500  1
  C  1029  1  0.16858100  0.90925300  0.73785200  1
  C  1031  1  0.16588300  0.91072900  0.76809400  1
  C  1039  1  0.68393800  0.61874000  0.22589500  1
  C  1040  1  0.71424400  0.63950800  0.23771600  1
  C  1041  1  0.71966800  0.64126400  0.26769200  1
  C  1042  1  0.69229100  0.62455200  0.28641400  1
  C  1043  1  0.66954700  0.60036000  0.27443200  1
  C  1045  1  0.66793800  0.59689500  0.24441700  1
  C  1053  1  0.32631300  0.62033600  0.78481800  1
  C  1054  1  0.29477300  0.63944400  0.77153000  1
  C  1055  1  0.28761200  0.63803000  0.74162600  1
  C  1056  1  0.31574700  0.62048500  0.72406400  1
  C  1057  1  0.33924500  0.59739500  0.73772200  1
  C  1059  1  0.34389600  0.59782600  0.76789000  1
  C  1067  1  0.82578800  0.88616500  0.22716800  1
  C  1068  1  0.79412100  0.86709100  0.24038600  1
  C  1069  1  0.78658700  0.86849000  0.27024900  1
  C  1070  1  0.81481700  0.88590500  0.28789700  1
  C  1071  1  0.83846500  0.90899700  0.27434600  1
  C  1073  1  0.84310500  0.90871300  0.24417300  1
  C  1081  1  0.56544400  0.53400500  0.37755600  1
  C  1082  1  0.54303000  0.52134500  0.40146800  1
  C  1083  1  0.53835900  0.49127600  0.40295500  1
  C  1084  1  0.55991400  0.47330400  0.38252600  1
  C  1085  1  0.57270700  0.48594100  0.35604000  1
  C  1087  1  0.57343600  0.51624800  0.35357900  1
  C  1095  1  0.06500200  0.97188100  0.63327600  1
  C  1096  1  0.04173100  0.98463100  0.60969900  1
  C  1097  1  0.03760100  0.01474000  0.60809900  1
  C  1098  1  0.06040600  0.03276800  0.62794100  1
  C  1099  1  0.07516300  0.01993300  0.65386100  1
  C  1101  1  0.07466700  0.98974900  0.65694900  1
  C  1109  1  0.93736300  0.97309000  0.37577800  1
  C  1110  1  0.96293900  0.98664300  0.39794700  1
  C  1111  1  0.96818100  0.01673100  0.39805400  1
  C  1112  1  0.94375000  0.03402600  0.37828500  1
  C  1113  1  0.92763300  0.02042800  0.35304400  1
  C  1115  1  0.92577600  0.99010500  0.35186700  1
  C  1123  1  0.43698200  0.53271700  0.63740200  1
  C  1124  1  0.46309400  0.51930300  0.61542900  1
  C  1125  1  0.46788600  0.48920000  0.61516200  1
  C  1126  1  0.44208600  0.47194800  0.63427300  1
  C  1127  1  0.42501400  0.48531700  0.65947800  1
  C  1129  1  0.42414400  0.51566900  0.66103300  1
  C  1137  1  0.36526500  0.14584400  0.40530800  1
  C  1138  1  0.40226600  0.15907100  0.39051600  1
  C  1139  1  0.35660000  0.16107700  0.34534400  1
  C  1140  1  0.32232400  0.14268100  0.35673300  1
  C  1141  1  0.28679700  0.13365700  0.33747500  1
  C  1142  1  0.28357600  0.14403100  0.30886800  1
  C  1143  1  0.31680400  0.16416300  0.29993100  1
  C  1144  1  0.35314200  0.17209500  0.31748800  1
  C  1145  1  0.44484300  0.16437800  0.40388900  1
  C  1146  1  0.45175600  0.15706600  0.43238400  1
  C  1147  1  0.41548200  0.14580900  0.44882400  1
  C  1148  1  0.37256900  0.14036700  0.43513500  1
  C  1149  1  0.27980200  0.15183000  0.40022400  1
  C  1150  1  0.24405900  0.13617000  0.41378000  1
  C  1151  1  0.28919300  0.09092800  0.41132700  1
  C  1152  1  0.32247800  0.10349800  0.39299000  1
  C  1153  1  0.29286300  0.06238800  0.42032400  1
  C  1154  1  0.32868600  0.04541400  0.41057500  1
  C  1155  1  0.36107800  0.05559900  0.39051400  1
  C  1156  1  0.35754100  0.08484100  0.38211100  1
  C  1157  1  0.27144600  0.18182200  0.39622600  1
  C  1158  1  0.22902400  0.19513400  0.40395800  1
  C  1159  1  0.19402000  0.17763700  0.41532600  1
  C  1160  1  0.20186700  0.14894400  0.42109500  1
  C  1173  1  0.32239900  0.13601100  0.38879700  1
  C  1174  1  0.24848900  0.10606300  0.42192800  1
  C  1177  1  0.39835500  0.16926200  0.36096900  1
  C  1180  1  0.86434000  0.36009200  0.60593300  1
  C  1181  1  0.90114900  0.34712200  0.62113700  1
  C  1182  1  0.85584400  0.34719000  0.66653500  1
  C  1183  1  0.82056800  0.36414100  0.65417200  1
  C  1184  1  0.78430200  0.37330500  0.67280700  1
  C  1185  1  0.78282100  0.36601900  0.70240500  1
  C  1186  1  0.81734000  0.34728000  0.71244200  1
  C  1187  1  0.85335200  0.33825500  0.69515100  1
  C  1188  1  0.94371600  0.34130800  0.60795500  1
  C  1189  1  0.95094800  0.34809100  0.57936100  1
  C  1190  1  0.91506000  0.35940600  0.56263400  1
  C  1191  1  0.87205300  0.36516700  0.57607100  1
  C  1192  1  0.77880700  0.35441800  0.61035200  1
  C  1193  1  0.74387700  0.37005400  0.59597700  1
  C  1194  1  0.78916100  0.41526000  0.59889000  1
  C  1195  1  0.82165400  0.40262800  0.61771100  1
  C  1196  1  0.79319000  0.44388100  0.59018200  1
  C  1197  1  0.82831800  0.46088700  0.60086600  1
  C  1198  1  0.85966900  0.45057900  0.62149300  1
  C  1199  1  0.85615000  0.42121800  0.62936000  1
  C  1200  1  0.76989600  0.32456800  0.61482900  1
  C  1201  1  0.72759600  0.31131400  0.60674000  1
  C  1202  1  0.69333700  0.32880100  0.59449000  1
  C  1203  1  0.70182400  0.35734000  0.58826000  1
  C  1216  1  0.82123800  0.37016100  0.62201900  1
  C  1217  1  0.74902300  0.40006500  0.58751800  1
  C  1220  1  0.89747800  0.33832600  0.65114900  1
  C  1223  1  0.61057300  0.85246100  0.89592500  1
  C  1224  1  0.64618100  0.86713400  0.91070600  1
  C  1225  1  0.59833300  0.91125900  0.91487300  1
  C  1226  1  0.56590900  0.90034200  0.89498300  1
  C  1227  1  0.53228800  0.92002100  0.88435200  1
  C  1228  1  0.53033100  0.94894700  0.89360500  1
  C  1229  1  0.56036100  0.95737800  0.91579000  1
  C  1230  1  0.59406400  0.93899900  0.92611700  1
  C  1231  1  0.68957000  0.85453100  0.91523000  1
  C  1232  1  0.69839400  0.82679700  0.90604300  1
  C  1233  1  0.66302300  0.81003600  0.89412200  1
  C  1234  1  0.61955100  0.82316800  0.88883700  1
  C  1235  1  0.52516900  0.85600100  0.90304800  1
  C  1236  1  0.48858100  0.84328100  0.88741900  1
  C  1237  1  0.52744400  0.85292100  0.84089100  1
  C  1238  1  0.56497900  0.86677500  0.85456100  1
  C  1239  1  0.52397300  0.85165400  0.81096100  1
  C  1240  1  0.55722300  0.86442700  0.79398900  1
  C  1241  1  0.59597400  0.87795000  0.80608000  1
  C  1242  1  0.59955100  0.87883900  0.83637300  1
  C  1243  1  0.51859200  0.85822200  0.93336900  1
  C  1244  1  0.47728000  0.84928300  0.94719300  1
  C  1245  1  0.44198700  0.83772300  0.93006900  1
  C  1246  1  0.44802600  0.83389700  0.90089600  1
  C  1259  1  0.56677600  0.86858200  0.88720100  1
  C  1260  1  0.48884300  0.83995700  0.85628700  1
  C  1263  1  0.63970600  0.89550800  0.92355400  1
  C  1266  1  0.11044400  0.65405500  0.11603600  1
  C  1267  1  0.14591600  0.63933800  0.10116900  1
  C  1268  1  0.09866470  0.59492600  0.09808300  1
  C  1269  1  0.06587370  0.60615000  0.11757400  1
  C  1270  1  0.03229170  0.58660600  0.12854300  1
  C  1271  1  0.03234370  0.55712700  0.12112300  1
  C  1272  1  0.06246770  0.54834400  0.09915100  1
  C  1273  1  0.09513070  0.56679900  0.08777200  1
  C  1274  1  0.18921500  0.65195300  0.09634700  1
  C  1275  1  0.19812400  0.67970400  0.10541700  1
  C  1276  1  0.16295800  0.69643900  0.11760100  1
  C  1277  1  0.11952200  0.68335000  0.12305300  1
  C  1278  1  0.02496070  0.65044700  0.10934000  1
  C  1279  1  0.98857800  0.66321600  0.12511300  1
  C  1280  1  0.02816370  0.65388600  0.17152100  1
  C  1281  1  0.06540970  0.63992700  0.15767400  1
  C  1282  1  0.02541070  0.65547300  0.20148000  1
  C  1283  1  0.05901270  0.64283000  0.21832100  1
  C  1284  1  0.09713470  0.62882000  0.20597700  1
  C  1285  1  0.10020800  0.62786100  0.17567300  1
  C  1286  1  0.01806570  0.64810800  0.07905700  1
  C  1287  1  0.97664400  0.65705400  0.06534900  1
  C  1288  1  0.94156100  0.66867800  0.08260700  1
  C  1289  1  0.94787100  0.67252900  0.11176400  1
  C  1302  1  0.06675670  0.63797500  0.12503600  1
  C  1303  1  0.98931400  0.66673400  0.15624600  1
  C  1306  1  0.13951300  0.61079600  0.08871200  1
  C  1309  1  0.03073870  0.35979900  0.40447800  1
  C  1310  1  0.99512900  0.34613900  0.38878200  1
  C  1311  1  0.04177570  0.34679700  0.34405500  1
  C  1312  1  0.07460770  0.36558100  0.35640900  1
  C  1313  1  0.11015200  0.37594100  0.33783900  1
  C  1314  1  0.11479200  0.36642700  0.30902400  1
  C  1315  1  0.08322470  0.34570600  0.29917900  1
  C  1316  1  0.04667370  0.33664000  0.31596800  1
  C  1317  1  0.95252200  0.33940700  0.40134400  1
  C  1318  1  0.94431000  0.34558000  0.42992000  1
  C  1319  1  0.97930500  0.35679600  0.44752700  1
  C  1320  1  0.02197670  0.36426300  0.43435400  1
  C  1321  1  0.11624600  0.35416800  0.39933200  1
  C  1322  1  0.15329200  0.36909500  0.41235900  1
  C  1323  1  0.10896300  0.41482400  0.41206900  1
  C  1324  1  0.07409170  0.40293100  0.39443400  1
  C  1325  1  0.10682100  0.44332900  0.42140100  1
  C  1326  1  0.07102570  0.46092200  0.41269300  1
  C  1327  1  0.03671570  0.45128800  0.39359300  1
  C  1328  1  0.03880570  0.42209800  0.38480700  1
  C  1329  1  0.12328900  0.32419200  0.39455600  1
  C  1330  1  0.16597900  0.31044700  0.40049600  1
  C  1331  1  0.20216600  0.32691700  0.41181000  1
  C  1332  1  0.19549800  0.35559300  0.41843000  1
  C  1345  1  0.07379670  0.37066300  0.38877200  1
  C  1346  1  0.15011600  0.39909900  0.42117000  1
  C  1349  1  0.00033274  0.33701800  0.35898100  1
  C  1352  1  0.53045200  0.14622500  0.60705300  1
  C  1353  1  0.49476900  0.15968100  0.62285000  1
  C  1354  1  0.54143600  0.15873500  0.66755900  1
  C  1355  1  0.57422300  0.14000600  0.65507800  1
  C  1356  1  0.60957000  0.12931600  0.67361000  1
  C  1357  1  0.61418300  0.13855300  0.70251200  1
  C  1358  1  0.58287200  0.15939800  0.71241900  1
  C  1359  1  0.54640100  0.16870300  0.69570100  1
  C  1360  1  0.45207700  0.16633200  0.61035700  1
  C  1361  1  0.44384600  0.16022300  0.58176500  1
  C  1362  1  0.47885800  0.14914300  0.56408500  1
  C  1363  1  0.52166500  0.14185400  0.57716800  1
  C  1364  1  0.61595500  0.15195500  0.61236900  1
  C  1365  1  0.65327200  0.13716900  0.59948400  1
  C  1366  1  0.60862200  0.09154800  0.59861500  1
  C  1367  1  0.57393100  0.10314500  0.61657700  1
  C  1368  1  0.60595900  0.06332900  0.58847100  1
  C  1369  1  0.56994500  0.04569000  0.59679500  1
  C  1370  1  0.53624300  0.05497200  0.61646400  1
  C  1371  1  0.53867000  0.08389200  0.62598200  1
  C  1372  1  0.62269300  0.18192600  0.61730700  1
  C  1373  1  0.66539800  0.19579700  0.61173900  1
  C  1374  1  0.70197700  0.17943000  0.60075300  1
  C  1375  1  0.69557000  0.15077300  0.59390100  1
  C  1388  1  0.57353900  0.13530200  0.62267100  1
  C  1389  1  0.65008100  0.10731700  0.59010500  1
  C  1392  1  0.49999900  0.16864000  0.65270100  1
  C  1395  1  0.78532100  0.65370900  0.89689000  1
  C  1396  1  0.75052600  0.63812200  0.91148900  1
  C  1397  1  0.79863100  0.59402000  0.91290100  1
  C  1398  1  0.83117500  0.60621500  0.89384600  1
  C  1399  1  0.86534400  0.58732600  0.88239900  1
  C  1400  1  0.86617900  0.55763100  0.88896300  1
  C  1401  1  0.83609000  0.54789500  0.91054300  1
  C  1402  1  0.80279700  0.56562400  0.92233000  1
  C  1403  1  0.70691200  0.64999400  0.91683800  1
  C  1404  1  0.69705700  0.67785400  0.90865700  1
  C  1405  1  0.73139600  0.69569200  0.89701800  1
  C  1406  1  0.77498400  0.68307000  0.89059700  1
  C  1407  1  0.87071300  0.65030400  0.90455600  1
  C  1408  1  0.90789000  0.66362000  0.88998200  1
  C  1409  1  0.87004300  0.65639400  0.84264200  1
  C  1410  1  0.83235700  0.64169400  0.85522900  1
  C  1411  1  0.87448700  0.65878600  0.81282700  1
  C  1412  1  0.84254200  0.64594800  0.79493200  1
  C  1413  1  0.80385200  0.63150300  0.80595600  1
  C  1414  1  0.79891700  0.62979600  0.83613600  1
  C  1415  1  0.87612000  0.64684300  0.93482900  1
  C  1416  1  0.91720800  0.65480000  0.94938400  1
  C  1417  1  0.95325100  0.66704800  0.93348100  1
  C  1418  1  0.94816300  0.67215700  0.90439800  1
  C  1431  1  0.82968600  0.63835700  0.88770900  1
  C  1432  1  0.90817500  0.66869900  0.85906700  1
  C  1435  1  0.75758700  0.60922000  0.92291500  1
  C  1438  1  0.28542200  0.85259600  0.11524700  1
  C  1439  1  0.25063400  0.86818900  0.10064400  1
  C  1440  1  0.29890600  0.91219700  0.09905300  1
  C  1441  1  0.33128100  0.90005200  0.11824900  1
  C  1442  1  0.36535400  0.91895300  0.12976500  1
  C  1443  1  0.36624400  0.94862200  0.12312300  1
  C  1444  1  0.33648500  0.95828500  0.10133600  1
  C  1445  1  0.30322700  0.94054800  0.08952100  1
  C  1446  1  0.20695400  0.85636400  0.09540300  1
  C  1447  1  0.19702000  0.82854900  0.10370400  1
  C  1448  1  0.23141300  0.81069200  0.11524900  1
  C  1449  1  0.27506900  0.82325400  0.12157000  1
  C  1450  1  0.37087400  0.85594700  0.10774100  1
  C  1451  1  0.40797500  0.84267400  0.12243100  1
  C  1452  1  0.36993200  0.85007800  0.16967400  1
  C  1453  1  0.33225700  0.86468200  0.15696300  1
  C  1454  1  0.37427700  0.84782800  0.19950700  1
  C  1455  1  0.34228000  0.86077000  0.21729100  1
  C  1456  1  0.30357000  0.87509500  0.20614200  1
  C  1457  1  0.29868900  0.87660700  0.17594900  1
  C  1458  1  0.37644900  0.85934600  0.07747500  1
  C  1459  1  0.41767200  0.85143600  0.06305000  1
  C  1460  1  0.45362700  0.83921800  0.07905600  1
  C  1461  1  0.44835600  0.83413700  0.10812900  1
  C  1474  1  0.32975800  0.86793500  0.12447000  1
  C  1475  1  0.40814000  0.83771900  0.15336200  1
  C  1478  1  0.25782800  0.89701600  0.08906400  1
  C  1481  1  0.53877800  0.86124300  0.60533100  1
  C  1482  1  0.50372200  0.84589100  0.61996000  1
  C  1483  1  0.54933600  0.84508400  0.66512800  1
  C  1484  1  0.58189200  0.86457500  0.65364900  1
  C  1485  1  0.61474300  0.87635700  0.67320400  1
  C  1486  1  0.61399600  0.86999800  0.70292200  1
  C  1487  1  0.58359600  0.84837300  0.71221200  1
  C  1488  1  0.55198100  0.83595200  0.69371000  1
  C  1489  1  0.46100300  0.84002800  0.60703100  1
  C  1490  1  0.45211000  0.84882000  0.57919900  1
  C  1491  1  0.48685000  0.86173400  0.56267300  1
  C  1492  1  0.52981800  0.86801800  0.57597400  1
  C  1493  1  0.62435300  0.85556700  0.61015600  1
  C  1494  1  0.66223200  0.87147000  0.59936900  1
  C  1495  1  0.62198800  0.91781200  0.60791500  1
  C  1496  1  0.58245600  0.90381300  0.61901600  1
  C  1497  1  0.62516500  0.94777600  0.60708900  1
  C  1498  1  0.58897300  0.96447100  0.61678000  1
  C  1499  1  0.54781500  0.95201800  0.62679300  1
  C  1500  1  0.54523000  0.92170600  0.62812200  1
  C  1501  1  0.63067000  0.82520000  0.61194800  1
  C  1502  1  0.67253800  0.81150600  0.60381000  1
  C  1503  1  0.70883500  0.82879900  0.59383200  1
  C  1504  1  0.70349000  0.85814300  0.59100200  1
  C  1517  1  0.58173000  0.87118800  0.62162800  1
  C  1518  1  0.66277700  0.90272400  0.59741700  1
  C  1521  1  0.50969600  0.83437200  0.64893300  1
  C  1524  1  0.03878470  0.64418400  0.40626800  1
  C  1525  1  0.00345374  0.65941800  0.39177900  1
  C  1526  1  0.05014170  0.66227000  0.34709200  1
  C  1527  1  0.08213870  0.64210600  0.35799600  1
  C  1528  1  0.11510500  0.63090500  0.33820600  1
  C  1529  1  0.11656200  0.63961900  0.30912700  1
  C  1530  1  0.08675170  0.66184200  0.30051600  1
  C  1531  1  0.05397370  0.67295600  0.31909500  1
  C  1532  1  0.96042100  0.66450800  0.40462700  1
  C  1533  1  0.95165200  0.65530400  0.43235100  1
  C  1534  1  0.98675000  0.64272500  0.44885300  1
  C  1535  1  0.02992770  0.63703100  0.43554400  1
  C  1536  1  0.12433700  0.65025500  0.40164300  1
  C  1537  1  0.16237700  0.63429900  0.41213300  1
  C  1538  1  0.12285900  0.58797300  0.40222800  1
  C  1539  1  0.08293970  0.60204300  0.39177100  1
  C  1540  1  0.12654400  0.55802000  0.40207900  1
  C  1541  1  0.09031570  0.54139100  0.39230900  1
  C  1542  1  0.04857370  0.55387200  0.38332900  1
  C  1543  1  0.04566270  0.58419500  0.38266300  1
  C  1544  1  0.13045900  0.68065900  0.40027200  1
  C  1545  1  0.17224900  0.69435000  0.40853600  1
  C  1546  1  0.20856300  0.67704900  0.41846800  1
  C  1547  1  0.20345100  0.64764200  0.42083100  1
  C  1560  1  0.08186670  0.63470700  0.38984200  1
  C  1561  1  0.16344200  0.60300200  0.41313200  1
  C  1564  1  0.00973374  0.67192200  0.36322900  1
  C  1567  1  0.28427400  0.15198400  0.11311000  1
  C  1568  1  0.24707600  0.13755300  0.09959500  1
  C  1569  1  0.28642900  0.09042700  0.10368300  1
  C  1570  1  0.32338900  0.10254200  0.11943100  1
  C  1571  1  0.35696700  0.08304500  0.13055200  1
  C  1572  1  0.35300400  0.05299700  0.12690400  1
  C  1573  1  0.31532900  0.04250400  0.11111700  1
  C  1574  1  0.28310900  0.06080300  0.09917000  1
  C  1575  1  0.20573000  0.15162000  0.09268900  1
  C  1576  1  0.19968100  0.18024900  0.09942100  1
  C  1577  1  0.23593000  0.19628500  0.11127800  1
  C  1578  1  0.27792200  0.18199100  0.11803800  1
  C  1579  1  0.36978100  0.14411000  0.10752600  1
  C  1580  1  0.40834700  0.15463300  0.12300500  1
  C  1581  1  0.36644400  0.15158200  0.16944200  1
  C  1582  1  0.32706700  0.13941500  0.15619600  1
  C  1583  1  0.36887400  0.15549000  0.19919000  1
  C  1584  1  0.33252900  0.14716800  0.21647900  1
  C  1585  1  0.29199700  0.13541100  0.20480800  1
  C  1586  1  0.28982200  0.13153800  0.17469100  1
  C  1587  1  0.37640500  0.14047200  0.07731000  1
  C  1588  1  0.41927000  0.14638100  0.06353100  1
  C  1589  1  0.45644200  0.15536000  0.08063000  1
  C  1590  1  0.45080800  0.16018300  0.10966700  1
  C  1603  1  0.32613900  0.13492000  0.12374600  1
  C  1604  1  0.40810900  0.15974700  0.15389400  1
  C  1607  1  0.24788800  0.10708900  0.09235600  1
  C  1610  1  0.78530200  0.35402700  0.89786600  1
  C  1611  1  0.74777600  0.36844100  0.91104900  1
  C  1612  1  0.78706600  0.41562300  0.90726400  1
  C  1613  1  0.82450300  0.40353600  0.89193800  1
  C  1614  1  0.85825700  0.42309700  0.88110900  1
  C  1615  1  0.85398400  0.45315700  0.88458400  1
  C  1616  1  0.81586900  0.46359400  0.89999600  1
  C  1617  1  0.78350900  0.44524800  0.91171800  1
  C  1618  1  0.70636700  0.35433100  0.91772200  1
  C  1619  1  0.70061400  0.32563800  0.91117300  1
  C  1620  1  0.73712800  0.30959900  0.89963900  1
  C  1621  1  0.77917100  0.32396700  0.89307100  1
  C  1622  1  0.87063400  0.36198400  0.90437200  1
  C  1623  1  0.90965000  0.35144900  0.88933700  1
  C  1624  1  0.86938600  0.35488600  0.84240500  1
  C  1625  1  0.82938100  0.36674500  0.85520100  1
  C  1626  1  0.87333600  0.35177200  0.81263700  1
  C  1627  1  0.83796000  0.36064900  0.79488300  1
  C  1628  1  0.79661000  0.37172200  0.80602900  1
  C  1629  1  0.79284700  0.37475100  0.83620200  1
  C  1630  1  0.87645700  0.36564100  0.93465400  1
  C  1631  1  0.91895400  0.35974300  0.94887800  1
  C  1632  1  0.95659100  0.35074000  0.93219100  1
  C  1633  1  0.95172800  0.34586400  0.90312000  1
  C  1646  1  0.82742800  0.37113900  0.88766000  1
  C  1647  1  0.91041600  0.34647700  0.85844600  1
  C  1650  1  0.74830900  0.39892000  0.91823300  1
  C  1653  1  0.86623400  0.64429100  0.60562500  1
  C  1654  1  0.90121100  0.65892000  0.62103000  1
  C  1655  1  0.85384300  0.66022800  0.66545000  1
  C  1656  1  0.82119300  0.64116000  0.65340500  1
  C  1657  1  0.78739900  0.62959500  0.67247300  1
  C  1658  1  0.78713000  0.63589400  0.70221500  1
  C  1659  1  0.81747800  0.65736500  0.71191200  1
  C  1660  1  0.85028600  0.66938900  0.69397400  1
  C  1661  1  0.94470600  0.66417900  0.60895500  1
  C  1662  1  0.95426800  0.65583200  0.58110400  1
  C  1663  1  0.91961400  0.64432500  0.56340500  1
  C  1664  1  0.87615700  0.63796000  0.57622500  1
  C  1665  1  0.78074100  0.65138000  0.60949800  1
  C  1666  1  0.74321200  0.63638600  0.59704900  1
  C  1667  1  0.78101200  0.58924000  0.60577000  1
  C  1668  1  0.82012800  0.60235700  0.61840700  1
  C  1669  1  0.77602800  0.55936300  0.60520000  1
  C  1670  1  0.80947600  0.54196600  0.61723200  1
  C  1671  1  0.85033000  0.55346800  0.62871900  1
  C  1672  1  0.85515600  0.58370300  0.62921300  1
  C  1673  1  0.77512500  0.68169700  0.61245600  1
  C  1674  1  0.73378900  0.69599300  0.60448500  1
  C  1675  1  0.69780600  0.67977800  0.59258100  1
  C  1676  1  0.70283700  0.65056000  0.58828700  1
  C  1689  1  0.82228300  0.63490300  0.62128600  1
  C  1690  1  0.74218500  0.60523400  0.59373000  1
  C  1693  1  0.89454300  0.67036300  0.64997300  1
  C  1696  1  0.36559800  0.86148600  0.40609600  1
  C  1697  1  0.40059600  0.84702300  0.39054800  1
  C  1698  1  0.35304200  0.84586800  0.34620900  1
  C  1699  1  0.32046100  0.86489700  0.35838400  1
  C  1700  1  0.28661100  0.87655600  0.33941300  1
  C  1701  1  0.28619900  0.87035700  0.30965400  1
  C  1702  1  0.31641200  0.84886400  0.29983900  1
  C  1703  1  0.34926500  0.83674500  0.31768300  1
  C  1704  1  0.44415500  0.84176900  0.40252900  1
  C  1705  1  0.45369600  0.84986000  0.43045500  1
  C  1706  1  0.41902300  0.86115500  0.44827100  1
  C  1707  1  0.37554200  0.86759900  0.43553700  1
  C  1708  1  0.28006000  0.85452900  0.40224100  1
  C  1709  1  0.24226800  0.86953200  0.41436900  1
  C  1710  1  0.28025600  0.91667000  0.40590600  1
  C  1711  1  0.31960500  0.90353100  0.39357100  1
  C  1712  1  0.27542700  0.94655200  0.40659800  1
  C  1713  1  0.30935200  0.96394600  0.39508500  1
  C  1714  1  0.35044000  0.95239600  0.38398200  1
  C  1715  1  0.35498700  0.92215900  0.38318500  1
  C  1716  1  0.27459800  0.82419400  0.39939100  1
  C  1717  1  0.23321100  0.80988200  0.40722200  1
  C  1718  1  0.19696900  0.82609500  0.41881400  1
  C  1719  1  0.20181500  0.85534700  0.42297500  1
  C  1732  1  0.32164300  0.87100200  0.39052700  1
  C  1733  1  0.24107900  0.90069900  0.41752400  1
  C  1736  1  0.39385500  0.83572200  0.36155800  1
  C  1739  1  0.12038100  0.35458300  0.11395700  1
  C  1740  1  0.15780500  0.36971900  0.10151300  1
  C  1741  1  0.11570300  0.41605500  0.10378100  1
  C  1742  1  0.07873870  0.40346300  0.11912800  1
  C  1743  1  0.04383770  0.42247600  0.12949300  1
  C  1744  1  0.04618570  0.45249100  0.12510500  1
  C  1745  1  0.08351370  0.46341200  0.10928500  1
  C  1746  1  0.11732200  0.44558300  0.09837000  1
  C  1747  1  0.20024500  0.35644500  0.09581000  1
  C  1748  1  0.20677900  0.32777200  0.10208700  1
  C  1749  1  0.17024100  0.31076500  0.11222900  1
  C  1750  1  0.12753700  0.32455300  0.11855200  1
  C  1751  1  0.03468070  0.36099500  0.10724100  1
  C  1752  1  0.99671700  0.34905700  0.12226400  1
  C  1753  1  0.03676770  0.35396100  0.16919200  1
  C  1754  1  0.07564570  0.36707000  0.15628400  1
  C  1755  1  0.03314070  0.35112200  0.19901400  1
  C  1756  1  0.06758170  0.36160000  0.21664700  1
  C  1757  1  0.10783500  0.37402900  0.20531500  1
  C  1758  1  0.11141000  0.37660500  0.17512000  1
  C  1759  1  0.02821870  0.36516000  0.07709300  1
  C  1760  1  0.98578000  0.35881600  0.06307000  1
  C  1761  1  0.94921500  0.34804000  0.07958600  1
  C  1762  1  0.95499700  0.34241800  0.10848700  1
  C  1775  1  0.07741970  0.37108300  0.12382100  1
  C  1776  1  0.99675900  0.34374000  0.15313600  1
  C  1779  1  0.15601800  0.40009700  0.09397200  1
  C  1782  1  0.62061000  0.15137600  0.89816100  1
  C  1783  1  0.65784600  0.13610600  0.91065900  1
  C  1784  1  0.61606900  0.08966200  0.90733300  1
  C  1785  1  0.57893300  0.10252300  0.89237000  1
  C  1786  1  0.54400400  0.08365500  0.88177800  1
  C  1787  1  0.54669300  0.05353000  0.88532800  1
  C  1788  1  0.58421600  0.04227800  0.90076900  1
  C  1789  1  0.61799200  0.05998700  0.91196200  1
  C  1790  1  0.70016200  0.14935000  0.91678500  1
  C  1791  1  0.70693700  0.17803000  0.91060300  1
  C  1792  1  0.67074700  0.19513400  0.90014500  1
  C  1793  1  0.62803400  0.18141200  0.89364100  1
  C  1794  1  0.53498300  0.14493500  0.90504800  1
  C  1795  1  0.49694400  0.15714500  0.89031200  1
  C  1796  1  0.53672100  0.15305500  0.84325500  1
  C  1797  1  0.57549500  0.13949600  0.85581700  1
  C  1798  1  0.53296900  0.15653700  0.81351400  1
  C  1799  1  0.56700200  0.14604000  0.79560600  1
  C  1800  1  0.60698600  0.13298800  0.80658200  1
  C  1801  1  0.61084100  0.12992200  0.83670800  1
  C  1802  1  0.52881500  0.14052100  0.93517800  1
  C  1803  1  0.48654000  0.14682400  0.94941700  1
  C  1804  1  0.44981600  0.15776200  0.93314700  1
  C  1805  1  0.45533700  0.16364600  0.90428500  1
  C  1818  1  0.57755600  0.13499800  0.88820300  1
  C  1819  1  0.49682100  0.16301500  0.85955300  1
  C  1822  1  0.65610100  0.10558200  0.91767100  1
  C  1825  1  0.17456500  0.28038900  0.39968800  1
  C  1826  1  0.17849700  0.26549200  0.42597000  1
  C  1827  1  0.20043000  0.23858300  0.42672600  1
  C  1828  1  0.21784300  0.22501900  0.40189900  1
  C  1829  1  0.21421700  0.23995200  0.37559600  1
  C  1831  1  0.19391000  0.26764800  0.37499600  1
  C  1839  1  0.67345400  0.22592300  0.61223600  1
  C  1840  1  0.67678700  0.24058200  0.58580500  1
  C  1841  1  0.69838200  0.26758300  0.58470100  1
  C  1842  1  0.71601500  0.28149900  0.60928900  1
  C  1843  1  0.71282600  0.26678700  0.63574900  1
  C  1845  1  0.69288700  0.23899500  0.63672300  1
  C  1853  1  0.42541900  0.85237200  0.03293900  1
  C  1854  1  0.42973300  0.82621200  0.01786900  1
  C  1855  1  0.45105300  0.82584900  0.99078000  1
  C  1856  1  0.46729500  0.85096600  0.97721500  1
  C  1857  1  0.46294500  0.87718400  0.99223100  1
  C  1859  1  0.44335500  0.87740800  0.02010900  1
  C  1867  1  0.92478000  0.65377700  0.97951600  1
  C  1868  1  0.92863000  0.67993900  0.99464300  1
  C  1869  1  0.94979300  0.68037900  0.02178500  1
  C  1870  1  0.96637700  0.65533800  0.03534200  1
  C  1871  1  0.96263400  0.62913800  0.02023000  1
  C  1873  1  0.94312800  0.62885000  0.99232600  1
  C  1881  1  0.72545700  0.72605700  0.60563800  1
  C  1882  1  0.72059500  0.74136600  0.57964700  1
  C  1883  1  0.69890600  0.76836700  0.57962200  1
  C  1884  1  0.68239500  0.78145600  0.60491000  1
  C  1885  1  0.68713900  0.76619300  0.63095000  1
  C  1887  1  0.70735800  0.73848900  0.63083700  1
  C  1895  1  0.22507500  0.77979500  0.40625700  1
  C  1896  1  0.22033800  0.76462900  0.43232900  1
  C  1897  1  0.19874600  0.73759600  0.43249300  1
  C  1898  1  0.18206500  0.72438900  0.40729900  1
  C  1899  1  0.18679800  0.73953500  0.38118200  1
  C  1901  1  0.20696800  0.76725000  0.38112700  1
  C  1909  1  0.47731700  0.14536400  0.97945100  1
  C  1910  1  0.46908400  0.17128500  0.99440700  1
  C  1911  1  0.44491800  0.17088200  0.02061400  1
  C  1912  1  0.42933800  0.14524000  0.03348900  1
  C  1913  1  0.43827800  0.11927300  0.01883400  1
  C  1915  1  0.46036000  0.11977100  0.99166500  1
  C  1923  1  0.97617000  0.36027100  0.03307900  1
  C  1924  1  0.96709200  0.33442500  0.01817900  1
  C  1925  1  0.94290800  0.33501900  0.99198400  1
  C  1926  1  0.92831000  0.36082000  0.97900600  1
  C  1927  1  0.93808600  0.38673200  0.99355600  1
  C  1929  1  0.96007000  0.38603500  0.02075500  1
  C  1937  1  0.67287200  0.78009200  0.89302400  1
  C  1938  1  0.67814900  0.76518200  0.91923500  1
  C  1939  1  0.70163300  0.73877500  0.91979200  1
  C  1940  1  0.71888900  0.72541000  0.89481000  1
  C  1941  1  0.71340100  0.74020600  0.86855000  1
  C  1943  1  0.69206500  0.76763400  0.86815700  1
  C  1951  1  0.17291500  0.72636300  0.11878400  1
  C  1952  1  0.17830800  0.74134700  0.09263600  1
  C  1953  1  0.20187000  0.76772200  0.09223600  1
  C  1954  1  0.21902500  0.78096300  0.11731100  1
  C  1955  1  0.21330600  0.76609400  0.14351300  1
  C  1957  1  0.19192000  0.73868500  0.14376600  1
  C  1965  1  0.92423400  0.36044200  0.53262700  1
  C  1966  1  0.92857800  0.33423100  0.51764500  1
  C  1967  1  0.95076200  0.33371600  0.49080200  1
  C  1968  1  0.96801700  0.35869000  0.47741400  1
  C  1969  1  0.96388200  0.38490300  0.49244900  1
  C  1971  1  0.94335100  0.38529200  0.52008900  1
  C  1979  1  0.42409600  0.14476700  0.47887800  1
  C  1980  1  0.42749900  0.17102200  0.49388300  1
  C  1981  1  0.44944900  0.17181100  0.52079000  1
  C  1982  1  0.46744400  0.14707500  0.53423400  1
  C  1983  1  0.46435500  0.12082700  0.51915600  1
  C  1985  1  0.44403200  0.12019000  0.49146500  1
  C  1993  1  0.22693100  0.22627300  0.11292700  1
  C  1994  1  0.21950300  0.24154300  0.08712000  1
  C  1995  1  0.19570700  0.26784400  0.08762400  1
  C  1996  1  0.18037100  0.28072200  0.11331600  1
  C  1997  1  0.18830700  0.26567400  0.13918700  1
  C  1999  1  0.20969300  0.23829500  0.13853000  1
  C  2007  1  0.72828700  0.27954300  0.89833800  1
  C  2008  1  0.72109100  0.26453700  0.92431800  1
  C  2009  1  0.69718200  0.23825800  0.92417100  1
  C  2010  1  0.68132100  0.22514300  0.89870600  1
  C  2011  1  0.68901700  0.23997600  0.87267200  1
  C  2013  1  0.71060100  0.26731200  0.87294500  1
  C  2021  1  0.97703900  0.64124700  0.47878700  1
  C  2022  1  0.97204500  0.66730200  0.49399300  1
  C  2023  1  0.94870700  0.66756100  0.52044800  1
  C  2024  1  0.93156900  0.64241300  0.53357800  1
  C  2025  1  0.93683400  0.61632900  0.51844000  1
  C  2027  1  0.95786700  0.61624500  0.49092600  1
  C  2035  1  0.47683700  0.86346800  0.53280300  1
  C  2036  1  0.47166700  0.83755000  0.51737900  1
  C  2037  1  0.44816000  0.83753300  0.49098700  1
  C  2038  1  0.43102500  0.86280000  0.47809200  1
  C  2039  1  0.43635600  0.88873900  0.49347100  1
  C  2041  1  0.45756400  0.88856600  0.52092900  1
  C  2049  1  0.25726100  0.12842600  0.22532700  1
  C  2050  1  0.23382900  0.15154900  0.23882200  1
  C  2051  1  0.23114200  0.15283800  0.26901000  1
  C  2052  1  0.25478300  0.13282000  0.28639500  1
  C  2053  1  0.26980000  0.10729700  0.27296600  1
  C  2055  1  0.26820200  0.10462700  0.24273500  1
  C  2063  1  0.76279200  0.37873200  0.78492500  1
  C  2064  1  0.73762500  0.35630200  0.77159200  1
  C  2065  1  0.73053800  0.35675100  0.74163700  1
  C  2066  1  0.75224800  0.37747000  0.72396200  1
  C  2067  1  0.76624500  0.40322400  0.73785800  1
  C  2069  1  0.77323500  0.40282400  0.76789100  1
  C  2077  1  0.51485500  0.03268000  0.87495600  1
  C  2078  1  0.48462100  0.01996600  0.89528200  1
  C  2079  1  0.47962700  0.98990000  0.89616600  1
  C  2080  1  0.50748400  0.97188100  0.87899900  1
  C  2081  1  0.53053700  0.98470100  0.85537700  1
  C  2083  1  0.53198300  0.01481400  0.85293200  1
  C  2091  1  0.01556970  0.47364400  0.13623800  1
  C  2092  1  0.98501700  0.48757000  0.11696000  1
  C  2093  1  0.97969300  0.51761300  0.11807100  1
  C  2094  1  0.00836974  0.53459400  0.13582500  1
  C  2095  1  0.03158770  0.52051200  0.15876500  1
  C  2097  1  0.03365370  0.49023600  0.15886700  1
  C  2105  1  0.14144400  0.38227800  0.22613000  1
  C  2106  1  0.16671800  0.36014100  0.23993100  1
  C  2107  1  0.16956100  0.35942300  0.27013000  1
  C  2108  1  0.14381300  0.37864900  0.28726700  1
  C  2109  1  0.12698700  0.40353100  0.27342100  1
  C  2111  1  0.12829700  0.40589000  0.24316300  1
  C  2119  1  0.63944600  0.12394800  0.78545300  1
  C  2120  1  0.66576100  0.14534600  0.77119500  1
  C  2121  1  0.66935500  0.14518600  0.74101300  1
  C  2122  1  0.64293700  0.12599000  0.72425900  1
  C  2123  1  0.62437500  0.10183100  0.73851700  1
  C  2125  1  0.62486100  0.10037900  0.76881400  1
  C  2133  1  0.88401100  0.47472900  0.87348800  1
  C  2134  1  0.91464400  0.48860400  0.89271600  1
  C  2135  1  0.91998200  0.51865800  0.89144700  1
  C  2136  1  0.89107200  0.53573500  0.87389300  1
  C  2137  1  0.86816300  0.52156500  0.85084600  1
  C  2139  1  0.86545400  0.49129800  0.85102100  1
  C  2147  1  0.38303500  0.03152800  0.13811300  1
  C  2148  1  0.41429000  0.01761500  0.11932000  1
  C  2149  1  0.42021200  0.98762600  0.12090800  1
  C  2150  1  0.39096800  0.97055700  0.13823400  1
  C  2151  1  0.36725500  0.98475900  0.16096000  1
  C  2153  1  0.36416500  0.01501200  0.16054000  1
  C  2161  1  0.62879700  0.88830800  0.78580100  1
  C  2162  1  0.65929800  0.86816500  0.77312800  1
  C  2163  1  0.66550800  0.86797100  0.74314300  1
  C  2164  1  0.63795300  0.88529200  0.72507500  1
  C  2165  1  0.61541800  0.90925300  0.73785200  1
  C  2167  1  0.61272000  0.91072900  0.76809400  1
  C  2175  1  0.13077500  0.61874000  0.22589500  1
  C  2176  1  0.16108100  0.63950800  0.23771600  1
  C  2177  1  0.16650500  0.64126400  0.26769200  1
  C  2178  1  0.13912800  0.62455200  0.28641400  1
  C  2179  1  0.11638400  0.60036000  0.27443200  1
  C  2181  1  0.11477500  0.59689500  0.24441700  1
  C  2189  1  0.77315000  0.62033600  0.78481800  1
  C  2190  1  0.74161000  0.63944400  0.77153000  1
  C  2191  1  0.73444900  0.63803000  0.74162600  1
  C  2192  1  0.76258400  0.62048500  0.72406400  1
  C  2193  1  0.78608200  0.59739500  0.73772200  1
  C  2195  1  0.79073300  0.59782600  0.76789000  1
  C  2203  1  0.27262500  0.88616500  0.22716800  1
  C  2204  1  0.24095800  0.86709100  0.24038600  1
  C  2205  1  0.23342400  0.86849000  0.27024900  1
  C  2206  1  0.26165400  0.88590500  0.28789700  1
  C  2207  1  0.28530200  0.90899700  0.27434600  1
  C  2209  1  0.28994200  0.90871300  0.24417300  1
  C  2217  1  0.01228070  0.53400500  0.37755600  1
  C  2218  1  0.98986700  0.52134500  0.40146800  1
  C  2219  1  0.98519600  0.49127600  0.40295500  1
  C  2220  1  0.00675074  0.47330400  0.38252600  1
  C  2221  1  0.01954370  0.48594100  0.35604000  1
  C  2223  1  0.02027270  0.51624800  0.35357900  1
  C  2231  1  0.51183900  0.97188100  0.63327600  1
  C  2232  1  0.48856800  0.98463100  0.60969900  1
  C  2233  1  0.48443800  0.01474000  0.60809900  1
  C  2234  1  0.50724300  0.03276800  0.62794100  1
  C  2235  1  0.52200000  0.01993300  0.65386100  1
  C  2237  1  0.52150400  0.98974900  0.65694900  1
  C  2245  1  0.38420000  0.97309000  0.37577800  1
  C  2246  1  0.40977600  0.98664300  0.39794700  1
  C  2247  1  0.41501800  0.01673100  0.39805400  1
  C  2248  1  0.39058700  0.03402600  0.37828500  1
  C  2249  1  0.37447000  0.02042800  0.35304400  1
  C  2251  1  0.37261300  0.99010500  0.35186700  1
  C  2259  1  0.88381900  0.53271700  0.63740200  1
  C  2260  1  0.90993100  0.51930300  0.61542900  1
  C  2261  1  0.91472300  0.48920000  0.61516200  1
  C  2262  1  0.88892300  0.47194800  0.63427300  1
  C  2263  1  0.87185100  0.48531700  0.65947800  1
  C  2265  1  0.87098100  0.51566900  0.66103300  1
  N  697  1  0.78386500  0.22669400  0.35044100  1
  N  698  1  0.71409300  0.27800900  0.45132200  1
  N  711  1  0.28258000  0.28034600  0.66071700  1
  N  712  1  0.21230900  0.22770400  0.56065800  1
  N  725  1  0.03115400  0.90265300  0.97889600  1
  N  726  1  0.96618400  0.80062300  0.03034700  1
  N  739  1  0.53131300  0.60373900  0.03348800  1
  N  740  1  0.46481300  0.70546200  0.98216500  1
  N  753  1  0.22505700  0.77913500  0.65657300  1
  N  754  1  0.29047400  0.72922700  0.55390400  1
  N  767  1  0.72471400  0.72645900  0.35562100  1
  N  768  1  0.79017500  0.77694900  0.45799300  1
  N  781  1  0.97834200  0.09329100  0.03191700  1
  N  782  1  0.03803700  0.19744000  0.98265500  1
  N  795  1  0.47906700  0.41282500  0.98034300  1
  N  796  1  0.53543700  0.30813800  0.02994200  1
  N  809  1  0.28191000  0.72697300  0.84314800  1
  N  810  1  0.21355300  0.77722100  0.94477700  1
  N  823  1  0.78170900  0.77922900  0.16899000  1
  N  824  1  0.71378300  0.72942300  0.06702100  1
  N  837  1  0.53329200  0.41018500  0.47932500  1
  N  838  1  0.46424600  0.30875500  0.52994900  1
  N  851  1  0.03457800  0.09574900  0.53227800  1
  N  852  1  0.96262700  0.19631500  0.48149900  1
  N  865  1  0.72837800  0.27852600  0.16525500  1
  N  866  1  0.78880400  0.22997900  0.06096100  1
  N  879  1  0.22860100  0.22693500  0.84679000  1
  N  880  1  0.29059500  0.27638600  0.95029800  1
  N  893  1  0.47468500  0.59076900  0.53135400  1
  N  894  1  0.54310600  0.69294700  0.48225400  1
  N  907  1  0.97410000  0.91442000  0.48085800  1
  N  908  1  0.04280500  0.81179200  0.52882200  1
  N  921  1  0.84507100  0.08628700  0.28966900  1
  N  922  1  0.77203400  0.17630300  0.22405200  1
  N  935  1  0.33545900  0.42802300  0.72322900  1
  N  936  1  0.27726400  0.33095400  0.78586300  1
  N  949  1  0.11170600  0.96968100  0.83565600  1
  N  950  1  0.01710000  0.03517600  0.91811400  1
  N  963  1  0.61271900  0.53363500  0.18007400  1
  N  964  1  0.51677700  0.47368200  0.09355900  1
  N  977  1  0.65664700  0.42411000  0.28990900  1
  N  978  1  0.73602900  0.33543400  0.22567100  1
  N  991  1  0.15256500  0.08147400  0.72254200  1
  N  992  1  0.23611600  0.17006200  0.78497900  1
  N  1005  1  0.39318500  0.53490200  0.82969800  1
  N  1006  1  0.48881800  0.47485900  0.91632900  1
  N  1019  1  0.89232200  0.97133000  0.18208800  1
  N  1020  1  0.98856700  0.03124900  0.09568500  1
  N  1033  1  0.14139500  0.93024400  0.72359000  1
  N  1034  1  0.23204400  0.84481000  0.78809700  1
  N  1047  1  0.64175300  0.58104000  0.29012100  1
  N  1048  1  0.73418700  0.66205200  0.22171500  1
  N  1061  1  0.36647800  0.57622900  0.72366000  1
  N  1062  1  0.27497700  0.66333100  0.78547400  1
  N  1075  1  0.86544300  0.93018600  0.28857100  1
  N  1076  1  0.77450500  0.84318300  0.22638200  1
  N  1089  1  0.59006500  0.46789300  0.33412000  1
  N  1090  1  0.53144000  0.53652700  0.42667100  1
  N  1103  1  0.09701800  0.03710200  0.67462900  1
  N  1104  1  0.02847700  0.96934800  0.58487200  1
  N  1117  1  0.90826000  0.03788500  0.33135500  1
  N  1118  1  0.97776800  0.97241500  0.42299800  1
  N  1131  1  0.40286100  0.46798100  0.68034400  1
  N  1132  1  0.47878200  0.53360500  0.59061300  1
  N  1833  1  0.23070200  0.22669400  0.35044100  1
  N  1834  1  0.16093000  0.27800900  0.45132200  1
  N  1847  1  0.72941700  0.28034600  0.66071700  1
  N  1848  1  0.65914600  0.22770400  0.56065800  1
  N  1861  1  0.47799100  0.90265300  0.97889600  1
  N  1862  1  0.41302100  0.80062300  0.03034700  1
  N  1875  1  0.97815000  0.60373900  0.03348800  1
  N  1876  1  0.91165000  0.70546200  0.98216500  1
  N  1889  1  0.67189400  0.77913500  0.65657300  1
  N  1890  1  0.73731100  0.72922700  0.55390400  1
  N  1903  1  0.17155100  0.72645900  0.35562100  1
  N  1904  1  0.23701200  0.77694900  0.45799300  1
  N  1917  1  0.42517900  0.09329100  0.03191700  1
  N  1918  1  0.48487400  0.19744000  0.98265500  1
  N  1931  1  0.92590400  0.41282500  0.98034300  1
  N  1932  1  0.98227400  0.30813800  0.02994200  1
  N  1945  1  0.72874700  0.72697300  0.84314800  1
  N  1946  1  0.66039000  0.77722100  0.94477700  1
  N  1959  1  0.22854600  0.77922900  0.16899000  1
  N  1960  1  0.16062000  0.72942300  0.06702100  1
  N  1973  1  0.98012900  0.41018500  0.47932500  1
  N  1974  1  0.91108300  0.30875500  0.52994900  1
  N  1987  1  0.48141500  0.09574900  0.53227800  1
  N  1988  1  0.40946400  0.19631500  0.48149900  1
  N  2001  1  0.17521500  0.27852600  0.16525500  1
  N  2002  1  0.23564100  0.22997900  0.06096100  1
  N  2015  1  0.67543800  0.22693500  0.84679000  1
  N  2016  1  0.73743200  0.27638600  0.95029800  1
  N  2029  1  0.92152200  0.59076900  0.53135400  1
  N  2030  1  0.98994300  0.69294700  0.48225400  1
  N  2043  1  0.42093700  0.91442000  0.48085800  1
  N  2044  1  0.48964200  0.81179200  0.52882200  1
  N  2057  1  0.29190800  0.08628700  0.28966900  1
  N  2058  1  0.21887100  0.17630300  0.22405200  1
  N  2071  1  0.78229600  0.42802300  0.72322900  1
  N  2072  1  0.72410100  0.33095400  0.78586300  1
  N  2085  1  0.55854300  0.96968100  0.83565600  1
  N  2086  1  0.46393700  0.03517600  0.91811400  1
  N  2099  1  0.05955570  0.53363500  0.18007400  1
  N  2100  1  0.96361400  0.47368200  0.09355900  1
  N  2113  1  0.10348400  0.42411000  0.28990900  1
  N  2114  1  0.18286600  0.33543400  0.22567100  1
  N  2127  1  0.59940200  0.08147400  0.72254200  1
  N  2128  1  0.68295300  0.17006200  0.78497900  1
  N  2141  1  0.84002200  0.53490200  0.82969800  1
  N  2142  1  0.93565500  0.47485900  0.91632900  1
  N  2155  1  0.33915900  0.97133000  0.18208800  1
  N  2156  1  0.43540400  0.03124900  0.09568500  1
  N  2169  1  0.58823200  0.93024400  0.72359000  1
  N  2170  1  0.67888100  0.84481000  0.78809700  1
  N  2183  1  0.08858970  0.58104000  0.29012100  1
  N  2184  1  0.18102400  0.66205200  0.22171500  1
  N  2197  1  0.81331500  0.57622900  0.72366000  1
  N  2198  1  0.72181400  0.66333100  0.78547400  1
  N  2211  1  0.31228000  0.93018600  0.28857100  1
  N  2212  1  0.22134200  0.84318300  0.22638200  1
  N  2225  1  0.03690170  0.46789300  0.33412000  1
  N  2226  1  0.97827700  0.53652700  0.42667100  1
  N  2239  1  0.54385500  0.03710200  0.67462900  1
  N  2240  1  0.47531400  0.96934800  0.58487200  1
  N  2253  1  0.35509700  0.03788500  0.33135500  1
  N  2254  1  0.42460500  0.97241500  0.42299800  1
  N  2267  1  0.84969800  0.46798100  0.68034400  1
  N  2268  1  0.92561900  0.53360500  0.59061300  1
  O  699  1  0.81553800  0.24102200  0.33915400  1
  O  700  1  0.68311700  0.26283300  0.46225600  1
  O  701  1  0.74515100  0.28194600  0.46956500  1
  O  702  1  0.75230100  0.22334700  0.33243400  1
  O  713  1  0.31451700  0.26625700  0.67202500  1
  O  714  1  0.18102600  0.24260900  0.54968800  1
  O  715  1  0.24324100  0.22373800  0.54233800  1
  O  716  1  0.25115600  0.28374000  0.67880900  1
  O  727  1  0.06274400  0.91441600  0.99291400  1
  O  728  1  0.93503600  0.78958800  0.01538100  1
  O  729  1  0.99770000  0.78258200  0.03379400  1
  O  730  1  0.99875900  0.92015100  0.97594000  1
  O  741  1  0.56316900  0.59227300  0.01945400  1
  O  742  1  0.43345500  0.71632800  0.99707900  1
  O  743  1  0.49611900  0.72365800  0.97878800  1
  O  744  1  0.49925700  0.58598400  0.03634200  1
  O  755  1  0.19383200  0.76471400  0.66822500  1
  O  756  1  0.32128000  0.74448700  0.54290400  1
  O  757  1  0.25885100  0.72575400  0.53594300  1
  O  758  1  0.25746000  0.78217800  0.67405000  1
  O  769  1  0.69345600  0.74079300  0.34389600  1
  O  770  1  0.82102800  0.76179500  0.46908700  1
  O  771  1  0.75853200  0.78048700  0.47592600  1
  O  772  1  0.75710600  0.72333200  0.33815000  1
  O  783  1  0.94962700  0.07998600  0.01692700  1
  O  784  1  0.06663100  0.20939200  0.99883300  1
  O  785  1  0.00548000  0.21447000  0.97800100  1
  O  786  1  0.01261800  0.07747800  0.03597600  1
  O  797  1  0.45076500  0.42656400  0.99524600  1
  O  798  1  0.56376300  0.29593000  0.01377000  1
  O  799  1  0.50249900  0.29140200  0.03460900  1
  O  800  1  0.51385500  0.42818500  0.97622900  1
  O  811  1  0.31248200  0.74160300  0.83110100  1
  O  812  1  0.18361300  0.76136100  0.95585700  1
  O  813  1  0.24468800  0.78174500  0.96283700  1
  O  814  1  0.24918600  0.72350500  0.82597900  1
  O  825  1  0.81218400  0.76453100  0.18105300  1
  O  826  1  0.68392100  0.74535400  0.05596500  1
  O  827  1  0.74497600  0.72494900  0.04898600  1
  O  828  1  0.74890800  0.78267600  0.18610700  1
  O  839  1  0.56468100  0.42158700  0.49380500  1
  O  840  1  0.43348600  0.29782700  0.51459900  1
  O  841  1  0.49540100  0.29058000  0.53389200  1
  O  842  1  0.50149800  0.42802700  0.47594800  1
  O  853  1  0.06645100  0.08479100  0.51786200  1
  O  854  1  0.93149600  0.20697200  0.49675000  1
  O  855  1  0.99336600  0.21478100  0.47762200  1
  O  856  1  0.00340600  0.07747200  0.53556500  1
  O  867  1  0.69867000  0.26376200  0.17796200  1
  O  868  1  0.81792400  0.24610400  0.04943600  1
  O  869  1  0.75654900  0.22571800  0.04360800  1
  O  870  1  0.76253000  0.28142300  0.18142800  1
  O  881  1  0.19883900  0.24167800  0.83410700  1
  O  882  1  0.31971200  0.26034900  0.96194800  1
  O  883  1  0.25845600  0.28089500  0.96767100  1
  O  884  1  0.26249500  0.22376800  0.83046000  1
  O  895  1  0.44367800  0.57913900  0.51673800  1
  O  896  1  0.57324300  0.70370800  0.49818600  1
  O  897  1  0.51209900  0.71116900  0.47805000  1
  O  898  1  0.50731100  0.57339700  0.53411600  1
  O  909  1  0.94304800  0.92581600  0.49562400  1
  O  910  1  0.07283700  0.80118700  0.51271000  1
  O  911  1  0.01182800  0.79352700  0.53292700  1
  O  912  1  0.00664600  0.93188700  0.47834400  1
  O  923  1  0.82424500  0.06292100  0.28724700  1
  O  924  1  0.74562200  0.16992500  0.20381500  1
  O  925  1  0.80440500  0.19128300  0.21449500  1
  O  926  1  0.88621800  0.08320200  0.28209300  1
  O  937  1  0.32468400  0.42915700  0.69732600  1
  O  938  1  0.25301500  0.33644000  0.80737200  1
  O  939  1  0.31059500  0.31566100  0.79342900  1
  O  940  1  0.31556000  0.44978400  0.73309100  1
  O  951  1  0.14743600  0.95928700  0.84657500  1
  O  952  1  0.99413200  0.05603700  0.90913200  1
  O  953  1  0.04539700  0.04388000  0.93643200  1
  O  954  1  0.08960500  0.95037200  0.82309400  1
  O  965  1  0.62330600  0.55940200  0.17739400  1
  O  966  1  0.49368200  0.45251900  0.10167300  1
  O  967  1  0.54461100  0.46572500  0.07464400  1
  O  968  1  0.59260800  0.53191800  0.20377000  1
  O  979  1  0.67605000  0.44792800  0.28724100  1
  O  980  1  0.76070800  0.34192700  0.20463600  1
  O  981  1  0.70402200  0.31937700  0.21752000  1
  O  982  1  0.61530800  0.42612600  0.28233300  1
  O  993  1  0.16809200  0.05687300  0.72726400  1
  O  994  1  0.26043700  0.16361400  0.80618700  1
  O  995  1  0.20480800  0.18683400  0.79273500  1
  O  996  1  0.11061700  0.08205000  0.72898200  1
  O  1007  1  0.38824600  0.56143100  0.83084900  1
  O  1008  1  0.51135300  0.45330900  0.90863100  1
  O  1009  1  0.46052700  0.46759400  0.93525400  1
  O  1010  1  0.41038100  0.53057900  0.80543100  1
  O  1021  1  0.88893300  0.94469000  0.18146600  1
  O  1022  1  0.01056700  0.05305500  0.10326500  1
  O  1023  1  0.96038200  0.03809200  0.07654200  1
  O  1024  1  0.90854900  0.97644400  0.20646400  1
  O  1035  1  0.13199600  0.92685600  0.69773200  1
  O  1036  1  0.25449200  0.85310700  0.80945700  1
  O  1037  1  0.20293300  0.82662400  0.79601300  1
  O  1038  1  0.16162900  0.95393000  0.72488500  1
  O  1049  1  0.60597200  0.59218300  0.30020900  1
  O  1050  1  0.75683800  0.65266000  0.20090100  1
  O  1051  1  0.70539000  0.67996000  0.21278600  1
  O  1052  1  0.66393700  0.56905900  0.30976100  1
  O  1063  1  0.36693200  0.57649200  0.69692400  1
  O  1064  1  0.25386300  0.65608400  0.80772700  1
  O  1065  1  0.30409500  0.68217300  0.79160000  1
  O  1066  1  0.35118300  0.55180800  0.72962800  1
  O  1077  1  0.86561500  0.92988700  0.31531000  1
  O  1078  1  0.75352400  0.85040700  0.20407200  1
  O  1079  1  0.80372500  0.82437700  0.22032200  1
  O  1080  1  0.85014800  0.95459900  0.28257800  1
  O  1091  1  0.55688500  0.45413300  0.32385500  1
  O  1092  1  0.50622100  0.55760600  0.42121300  1
  O  1093  1  0.56583900  0.54494100  0.44055500  1
  O  1094  1  0.60844000  0.48035100  0.31325600  1
  O  1105  1  0.07800700  0.03384000  0.69850500  1
  O  1106  1  0.00300000  0.94857900  0.59099900  1
  O  1107  1  0.06191900  0.96045300  0.57039200  1
  O  1108  1  0.13889900  0.03080500  0.67664300  1
  O  1119  1  0.94096900  0.04988500  0.31861600  1
  O  1120  1  0.00161100  0.95086300  0.41700400  1
  O  1121  1  0.94500800  0.96508200  0.43886900  1
  O  1122  1  0.88567800  0.02508900  0.31235800  1
  O  1133  1  0.43257900  0.45288800  0.69263900  1
  O  1134  1  0.50247800  0.55513200  0.59691200  1
  O  1135  1  0.44655500  0.54098300  0.57435000  1
  O  1136  1  0.38239600  0.48104300  0.70008500  1
  O  1835  1  0.26237500  0.24102200  0.33915400  1
  O  1836  1  0.12995400  0.26283300  0.46225600  1
  O  1837  1  0.19198800  0.28194600  0.46956500  1
  O  1838  1  0.19913800  0.22334700  0.33243400  1
  O  1849  1  0.76135400  0.26625700  0.67202500  1
  O  1850  1  0.62786300  0.24260900  0.54968800  1
  O  1851  1  0.69007800  0.22373800  0.54233800  1
  O  1852  1  0.69799300  0.28374000  0.67880900  1
  O  1863  1  0.50958100  0.91441600  0.99291400  1
  O  1864  1  0.38187300  0.78958800  0.01538100  1
  O  1865  1  0.44453700  0.78258200  0.03379400  1
  O  1866  1  0.44559600  0.92015100  0.97594000  1
  O  1877  1  0.01000570  0.59227300  0.01945400  1
  O  1878  1  0.88029200  0.71632800  0.99707900  1
  O  1879  1  0.94295600  0.72365800  0.97878800  1
  O  1880  1  0.94609400  0.58598400  0.03634200  1
  O  1891  1  0.64066900  0.76471400  0.66822500  1
  O  1892  1  0.76811700  0.74448700  0.54290400  1
  O  1893  1  0.70568800  0.72575400  0.53594300  1
  O  1894  1  0.70429700  0.78217800  0.67405000  1
  O  1905  1  0.14029300  0.74079300  0.34389600  1
  O  1906  1  0.26786500  0.76179500  0.46908700  1
  O  1907  1  0.20536900  0.78048700  0.47592600  1
  O  1908  1  0.20394300  0.72333200  0.33815000  1
  O  1919  1  0.39646400  0.07998600  0.01692700  1
  O  1920  1  0.51346800  0.20939200  0.99883300  1
  O  1921  1  0.45231700  0.21447000  0.97800100  1
  O  1922  1  0.45945500  0.07747800  0.03597600  1
  O  1933  1  0.89760200  0.42656400  0.99524600  1
  O  1934  1  0.01059970  0.29593000  0.01377000  1
  O  1935  1  0.94933600  0.29140200  0.03460900  1
  O  1936  1  0.96069200  0.42818500  0.97622900  1
  O  1947  1  0.75931900  0.74160300  0.83110100  1
  O  1948  1  0.63045000  0.76136100  0.95585700  1
  O  1949  1  0.69152500  0.78174500  0.96283700  1
  O  1950  1  0.69602300  0.72350500  0.82597900  1
  O  1961  1  0.25902100  0.76453100  0.18105300  1
  O  1962  1  0.13075800  0.74535400  0.05596500  1
  O  1963  1  0.19181300  0.72494900  0.04898600  1
  O  1964  1  0.19574500  0.78267600  0.18610700  1
  O  1975  1  0.01151770  0.42158700  0.49380500  1
  O  1976  1  0.88032300  0.29782700  0.51459900  1
  O  1977  1  0.94223800  0.29058000  0.53389200  1
  O  1978  1  0.94833500  0.42802700  0.47594800  1
  O  1989  1  0.51328800  0.08479100  0.51786200  1
  O  1990  1  0.37833300  0.20697200  0.49675000  1
  O  1991  1  0.44020300  0.21478100  0.47762200  1
  O  1992  1  0.45024300  0.07747200  0.53556500  1
  O  2003  1  0.14550700  0.26376200  0.17796200  1
  O  2004  1  0.26476100  0.24610400  0.04943600  1
  O  2005  1  0.20338600  0.22571800  0.04360800  1
  O  2006  1  0.20936700  0.28142300  0.18142800  1
  O  2017  1  0.64567600  0.24167800  0.83410700  1
  O  2018  1  0.76654900  0.26034900  0.96194800  1
  O  2019  1  0.70529300  0.28089500  0.96767100  1
  O  2020  1  0.70933200  0.22376800  0.83046000  1
  O  2031  1  0.89051500  0.57913900  0.51673800  1
  O  2032  1  0.02007970  0.70370800  0.49818600  1
  O  2033  1  0.95893600  0.71116900  0.47805000  1
  O  2034  1  0.95414800  0.57339700  0.53411600  1
  O  2045  1  0.38988500  0.92581600  0.49562400  1
  O  2046  1  0.51967400  0.80118700  0.51271000  1
  O  2047  1  0.45866500  0.79352700  0.53292700  1
  O  2048  1  0.45348300  0.93188700  0.47834400  1
  O  2059  1  0.27108200  0.06292100  0.28724700  1
  O  2060  1  0.19245900  0.16992500  0.20381500  1
  O  2061  1  0.25124200  0.19128300  0.21449500  1
  O  2062  1  0.33305500  0.08320200  0.28209300  1
  O  2073  1  0.77152100  0.42915700  0.69732600  1
  O  2074  1  0.69985200  0.33644000  0.80737200  1
  O  2075  1  0.75743200  0.31566100  0.79342900  1
  O  2076  1  0.76239700  0.44978400  0.73309100  1
  O  2087  1  0.59427300  0.95928700  0.84657500  1
  O  2088  1  0.44096900  0.05603700  0.90913200  1
  O  2089  1  0.49223400  0.04388000  0.93643200  1
  O  2090  1  0.53644200  0.95037200  0.82309400  1
  O  2101  1  0.07014270  0.55940200  0.17739400  1
  O  2102  1  0.94051900  0.45251900  0.10167300  1
  O  2103  1  0.99144800  0.46572500  0.07464400  1
  O  2104  1  0.03944470  0.53191800  0.20377000  1
  O  2115  1  0.12288700  0.44792800  0.28724100  1
  O  2116  1  0.20754500  0.34192700  0.20463600  1
  O  2117  1  0.15085900  0.31937700  0.21752000  1
  O  2118  1  0.06214470  0.42612600  0.28233300  1
  O  2129  1  0.61492900  0.05687300  0.72726400  1
  O  2130  1  0.70727400  0.16361400  0.80618700  1
  O  2131  1  0.65164500  0.18683400  0.79273500  1
  O  2132  1  0.55745400  0.08205000  0.72898200  1
  O  2143  1  0.83508300  0.56143100  0.83084900  1
  O  2144  1  0.95819000  0.45330900  0.90863100  1
  O  2145  1  0.90736400  0.46759400  0.93525400  1
  O  2146  1  0.85721800  0.53057900  0.80543100  1
  O  2157  1  0.33577000  0.94469000  0.18146600  1
  O  2158  1  0.45740400  0.05305500  0.10326500  1
  O  2159  1  0.40721900  0.03809200  0.07654200  1
  O  2160  1  0.35538600  0.97644400  0.20646400  1
  O  2171  1  0.57883300  0.92685600  0.69773200  1
  O  2172  1  0.70132900  0.85310700  0.80945700  1
  O  2173  1  0.64977000  0.82662400  0.79601300  1
  O  2174  1  0.60846600  0.95393000  0.72488500  1
  O  2185  1  0.05280870  0.59218300  0.30020900  1
  O  2186  1  0.20367500  0.65266000  0.20090100  1
  O  2187  1  0.15222700  0.67996000  0.21278600  1
  O  2188  1  0.11077400  0.56905900  0.30976100  1
  O  2199  1  0.81376900  0.57649200  0.69692400  1
  O  2200  1  0.70070000  0.65608400  0.80772700  1
  O  2201  1  0.75093200  0.68217300  0.79160000  1
  O  2202  1  0.79802000  0.55180800  0.72962800  1
  O  2213  1  0.31245200  0.92988700  0.31531000  1
  O  2214  1  0.20036100  0.85040700  0.20407200  1
  O  2215  1  0.25056200  0.82437700  0.22032200  1
  O  2216  1  0.29698500  0.95459900  0.28257800  1
  O  2227  1  0.00372174  0.45413300  0.32385500  1
  O  2228  1  0.95305800  0.55760600  0.42121300  1
  O  2229  1  0.01267570  0.54494100  0.44055500  1
  O  2230  1  0.05527670  0.48035100  0.31325600  1
  O  2241  1  0.52484400  0.03384000  0.69850500  1
  O  2242  1  0.44983700  0.94857900  0.59099900  1
  O  2243  1  0.50875600  0.96045300  0.57039200  1
  O  2244  1  0.58573600  0.03080500  0.67664300  1
  O  2255  1  0.38780600  0.04988500  0.31861600  1
  O  2256  1  0.44844800  0.95086300  0.41700400  1
  O  2257  1  0.39184500  0.96508200  0.43886900  1
  O  2258  1  0.33251500  0.02508900  0.31235800  1
  O  2269  1  0.87941600  0.45288800  0.69263900  1
  O  2270  1  0.94931500  0.55513200  0.59691200  1
  O  2271  1  0.89339200  0.54098300  0.57435000  1
  O  2272  1  0.82923300  0.48104300  0.70008500  1
