# generated using pymatgen
data_H30C53(N3O2)2
_symmetry_space_group_name_H-M   'P 1'
_cell_length_a   82.30480000
_cell_length_b   82.31040000
_cell_length_c   82.30480000
_cell_angle_alpha   89.99760000
_cell_angle_beta   89.99850000
_cell_angle_gamma   89.99850000
_symmetry_Int_Tables_number   1
_chemical_formula_structural   H30C53(N3O2)2
_chemical_formula_sum   'H720 C1272 N144 O96'
_cell_volume   557577.24204196
_cell_formula_units_Z   24
loop_
 _symmetry_equiv_pos_site_id
 _symmetry_equiv_pos_as_xyz
  1  'x, y, z'
loop_
 _atom_site_type_symbol
 _atom_site_label
 _atom_site_symmetry_multiplicity
 _atom_site_fract_x
 _atom_site_fract_y
 _atom_site_fract_z
 _atom_site_occupancy
  H  25  1  0.65377300  0.03778800  0.13348500  1
  H  26  1  0.65486000  0.00922000  0.12891100  1
  H  27  1  0.65445400  0.97814500  0.12974800  1
  H  28  1  0.65273300  0.94995700  0.13623000  1
  H  29  1  0.63635900  0.96130500  0.18364300  1
  H  30  1  0.63751000  0.02981700  0.18190200  1
  H  31  1  0.67213700  0.99494200  0.18643000  1
  H  32  1  0.66420400  0.99577600  0.23748700  1
  H  33  1  0.63557300  0.99583500  0.23325200  1
  H  34  1  0.60612800  0.99579600  0.16433400  1
  H  35  1  0.60698900  0.99546200  0.22369400  1
  H  36  1  0.58153700  0.99548400  0.20975800  1
  H  42  1  0.63662100  0.05788500  0.16925400  1
  H  43  1  0.64074300  0.93324400  0.17635400  1
  H  44  1  0.57563100  0.99006300  0.16670000  1
  H  45  1  0.69522100  0.00093200  0.20734900  1
  H  70  1  0.35540700  0.95305200  0.13347100  1
  H  71  1  0.35428400  0.98162100  0.12891000  1
  H  72  1  0.35469800  0.01269300  0.12974300  1
  H  73  1  0.35643000  0.04087800  0.13622500  1
  H  74  1  0.37277900  0.02952400  0.18364400  1
  H  75  1  0.37168700  0.96101800  0.18188400  1
  H  76  1  0.33699500  0.99586800  0.18641400  1
  H  77  1  0.34491400  0.99503600  0.23747700  1
  H  78  1  0.37353900  0.99501800  0.23325100  1
  H  79  1  0.40312600  0.99499300  0.16440200  1
  H  80  1  0.40203700  0.99557500  0.22376800  1
  H  81  1  0.42752600  0.99557300  0.20993300  1
  H  87  1  0.37230100  0.93292800  0.16943500  1
  H  88  1  0.36842500  0.05758600  0.17635400  1
  H  89  1  0.43389600  0.00057400  0.16705100  1
  H  90  1  0.31390700  0.98986900  0.20734900  1
  H  115  1  0.65378500  0.95307000  0.86733200  1
  H  116  1  0.65488400  0.98163800  0.87190100  1
  H  117  1  0.65446900  0.01270900  0.87106400  1
  H  118  1  0.65274700  0.04089400  0.86457700  1
  H  119  1  0.63636500  0.02954300  0.81717100  1
  H  120  1  0.63751400  0.96103900  0.81891700  1
  H  121  1  0.67215000  0.99590500  0.81438000  1
  H  122  1  0.66420800  0.99507800  0.76332400  1
  H  123  1  0.63558000  0.99502300  0.76756400  1
  H  124  1  0.60614100  0.99505500  0.83648400  1
  H  125  1  0.60699900  0.99538500  0.77712300  1
  H  126  1  0.58154700  0.99536000  0.79106200  1
  H  132  1  0.63677100  0.93295700  0.83145500  1
  H  133  1  0.64076100  0.05760400  0.82445100  1
  H  134  1  0.57564100  0.00078200  0.83411900  1
  H  135  1  0.69526300  0.99002800  0.79350600  1
  H  160  1  0.35542500  0.03780300  0.86733400  1
  H  161  1  0.35432500  0.00923500  0.87191100  1
  H  162  1  0.35472500  0.97815400  0.87107600  1
  H  163  1  0.35644900  0.94996900  0.86459100  1
  H  164  1  0.37278300  0.96132500  0.81716700  1
  H  165  1  0.37167200  0.02982200  0.81891300  1
  H  166  1  0.33700600  0.99497400  0.81440200  1
  H  167  1  0.34492600  0.99580700  0.76334000  1
  H  168  1  0.37354900  0.99583000  0.76756400  1
  H  169  1  0.40314000  0.99585000  0.83641100  1
  H  170  1  0.40204800  0.99527800  0.77704400  1
  H  171  1  0.42753800  0.99527400  0.79087700  1
  H  177  1  0.37256900  0.05789300  0.83155900  1
  H  178  1  0.36843000  0.93326600  0.82445500  1
  H  179  1  0.43390000  0.99028600  0.83377100  1
  H  180  1  0.31391600  0.00096700  0.79346600  1
  H  205  1  0.96226400  0.12852400  0.35123100  1
  H  206  1  0.99083500  0.12396000  0.35012900  1
  H  207  1  0.02190700  0.12479800  0.35054200  1
  H  208  1  0.05009500  0.13128400  0.35226200  1
  H  209  1  0.03873900  0.17868800  0.36864400  1
  H  210  1  0.97022500  0.17693600  0.36750300  1
  H  211  1  0.00510400  0.18147500  0.33286700  1
  H  212  1  0.00427200  0.23252700  0.34080000  1
  H  213  1  0.00421600  0.22829100  0.36943100  1
  H  214  1  0.00425000  0.15937200  0.39887300  1
  H  215  1  0.00458600  0.21872900  0.39801900  1
  H  216  1  0.00456500  0.20478900  0.42347100  1
  H  222  1  0.94213900  0.16440300  0.36823000  1
  H  223  1  0.06680500  0.17140200  0.36425700  1
  H  224  1  0.01004100  0.16176500  0.42937500  1
  H  225  1  0.99911700  0.20239200  0.30978100  1
  H  250  1  0.04700400  0.12851500  0.64959800  1
  H  251  1  0.01843400  0.12394800  0.65071300  1
  H  252  1  0.98735600  0.12477100  0.65028300  1
  H  253  1  0.95916600  0.13125100  0.64854800  1
  H  254  1  0.97051700  0.17867700  0.63222600  1
  H  255  1  0.03902700  0.17692800  0.63332800  1
  H  256  1  0.00418200  0.18145000  0.66801300  1
  H  257  1  0.00501000  0.23250800  0.66009000  1
  H  258  1  0.00502700  0.22828300  0.63146600  1
  H  259  1  0.00505100  0.15944100  0.60188000  1
  H  260  1  0.00448000  0.21880200  0.60296900  1
  H  261  1  0.00448100  0.20497200  0.57748000  1
  H  267  1  0.06708800  0.16438100  0.63255700  1
  H  268  1  0.94245500  0.17138300  0.63657100  1
  H  269  1  0.99948700  0.16208300  0.57111700  1
  H  270  1  0.01017100  0.20238200  0.69110200  1
  H  295  1  0.04697200  0.86232600  0.35123500  1
  H  296  1  0.01840100  0.86690000  0.35014300  1
  H  297  1  0.98732400  0.86605900  0.35054200  1
  H  298  1  0.95913600  0.85957300  0.35225600  1
  H  299  1  0.97049000  0.81216900  0.36864400  1
  H  300  1  0.03900000  0.81391000  0.36749600  1
  H  301  1  0.00412200  0.80938500  0.33286900  1
  H  302  1  0.00494900  0.75833100  0.34080100  1
  H  303  1  0.00500900  0.76256500  0.36943100  1
  H  304  1  0.00497200  0.83147900  0.39887700  1
  H  305  1  0.00464800  0.77212200  0.39801500  1
  H  306  1  0.00466300  0.78605700  0.42346800  1
  H  312  1  0.06707000  0.82655400  0.36838200  1
  H  313  1  0.94242600  0.81945200  0.36425100  1
  H  314  1  0.99924900  0.82911400  0.42937500  1
  H  315  1  0.01010700  0.78847000  0.30978100  1
  H  340  1  0.96223100  0.86232800  0.64960300  1
  H  341  1  0.99080200  0.86689400  0.65071800  1
  H  342  1  0.02188000  0.86606900  0.65028400  1
  H  343  1  0.05006800  0.85958600  0.64855000  1
  H  344  1  0.03871400  0.81216200  0.63222600  1
  H  345  1  0.97020700  0.81391600  0.63333100  1
  H  346  1  0.00506000  0.80939500  0.66801100  1
  H  347  1  0.00422700  0.75833700  0.66009600  1
  H  348  1  0.00420400  0.76256000  0.63147100  1
  H  349  1  0.00418500  0.83140400  0.60187800  1
  H  350  1  0.00475800  0.77204200  0.60297100  1
  H  351  1  0.00475900  0.78587600  0.57748100  1
  H  357  1  0.94211700  0.82644500  0.63260300  1
  H  358  1  0.06677600  0.81945300  0.63657400  1
  H  359  1  0.00974800  0.82876300  0.57111600  1
  H  360  1  0.99901600  0.78842900  0.69110300  1
  H  385  1  0.87151600  0.34624900  0.04274100  1
  H  386  1  0.87609000  0.34516400  0.01417000  1
  H  387  1  0.87525000  0.34556700  0.98309300  1
  H  388  1  0.86876400  0.34728600  0.95490500  1
  H  389  1  0.82135500  0.36366400  0.96626000  1
  H  390  1  0.82309700  0.36250600  0.03477300  1
  H  391  1  0.81856800  0.32788700  0.99989300  1
  H  392  1  0.76751300  0.33582000  0.00072400  1
  H  393  1  0.77174700  0.36444800  0.00078500  1
  H  394  1  0.84066500  0.39389100  0.00074900  1
  H  395  1  0.78130600  0.39303100  0.00041300  1
  H  396  1  0.79524300  0.41848200  0.00043500  1
  H  402  1  0.83574800  0.36339900  0.06284200  1
  H  403  1  0.82863700  0.35927300  0.93819600  1
  H  404  1  0.83829900  0.42438800  0.99501300  1
  H  405  1  0.79765000  0.30480200  0.00587900  1
  H  430  1  0.87152600  0.64459400  0.95800300  1
  H  431  1  0.87609000  0.64571900  0.98657400  1
  H  432  1  0.87525600  0.64530500  0.01764700  1
  H  433  1  0.86877600  0.64357100  0.04583500  1
  H  434  1  0.82135600  0.62722500  0.03448500  1
  H  435  1  0.82311100  0.62832400  0.96597800  1
  H  436  1  0.81858400  0.66300800  0.00082700  1
  H  437  1  0.76752300  0.65509000  0.99999200  1
  H  438  1  0.77174900  0.62646700  0.99997400  1
  H  439  1  0.84059700  0.59688100  0.99995000  1
  H  440  1  0.78123200  0.59797000  0.00053000  1
  H  441  1  0.79506700  0.57248300  0.00052600  1
  H  447  1  0.83556300  0.62769000  0.93789900  1
  H  448  1  0.82864800  0.63157600  0.06254700  1
  H  449  1  0.83794900  0.56611200  0.00552700  1
  H  450  1  0.79765000  0.68609700  0.99482800  1
  H  475  1  0.13767000  0.34623900  0.95803400  1
  H  476  1  0.13310000  0.34513800  0.98660500  1
  H  477  1  0.13393600  0.34555400  0.01767700  1
  H  478  1  0.14042200  0.34727300  0.04586400  1
  H  479  1  0.18783100  0.36365700  0.03450900  1
  H  480  1  0.18608500  0.36251100  0.96600200  1
  H  481  1  0.19062000  0.32787800  0.00086700  1
  H  482  1  0.24167500  0.33581700  0.00003800  1
  H  483  1  0.23743600  0.36444400  0.99998600  1
  H  484  1  0.16851700  0.39388100  0.00001600  1
  H  485  1  0.22787700  0.39302100  0.00034400  1
  H  486  1  0.21393800  0.41847200  0.00032000  1
  H  492  1  0.17354800  0.36325300  0.93791900  1
  H  493  1  0.18055000  0.35925800  0.06257300  1
  H  494  1  0.17088100  0.42437700  0.00574700  1
  H  495  1  0.21149300  0.30476700  0.99498600  1
  H  520  1  0.13766700  0.64457800  0.04277700  1
  H  521  1  0.13308900  0.64567800  0.01420800  1
  H  522  1  0.13392400  0.64527900  0.98312400  1
  H  523  1  0.14041100  0.64355600  0.95493700  1
  H  524  1  0.18783400  0.62722200  0.96629100  1
  H  525  1  0.18608800  0.62833200  0.03479200  1
  H  526  1  0.19059800  0.66299600  0.99994200  1
  H  527  1  0.24165900  0.65507700  0.00077700  1
  H  528  1  0.23743600  0.62645500  0.00079800  1
  H  529  1  0.16859000  0.59686700  0.00081800  1
  H  530  1  0.22795500  0.59795800  0.00024300  1
  H  531  1  0.21412300  0.57247100  0.00024000  1
  H  537  1  0.17344200  0.62743400  0.06286500  1
  H  538  1  0.18055000  0.63157900  0.93823200  1
  H  539  1  0.17122900  0.56610900  0.99525400  1
  H  540  1  0.21153300  0.68608300  0.00593800  1
  H  565  1  0.96226000  0.34628700  0.86732100  1
  H  566  1  0.99083000  0.34516500  0.87188900  1
  H  567  1  0.02190600  0.34556900  0.87105300  1
  H  568  1  0.05009200  0.34730600  0.86457000  1
  H  569  1  0.03873900  0.36362700  0.81714100  1
  H  570  1  0.97023900  0.36246500  0.81887500  1
  H  571  1  0.00513600  0.32785100  0.81448100  1
  H  572  1  0.00463400  0.33552400  0.76339600  1
  H  573  1  0.00446700  0.36420200  0.76751100  1
  H  574  1  0.00424500  0.39382500  0.83641900  1
  H  575  1  0.00462900  0.39293600  0.77706500  1
  H  576  1  0.00457800  0.41840300  0.79100000  1
  H  582  1  0.94215800  0.36327700  0.83143700  1
  H  583  1  0.06679500  0.35925500  0.82442100  1
  H  584  1  0.01003800  0.42431300  0.83404200  1
  H  585  1  0.99864800  0.30488100  0.79372100  1
  H  610  1  0.04700800  0.64455300  0.86731700  1
  H  611  1  0.01844000  0.64566400  0.87189900  1
  H  612  1  0.98734600  0.64524200  0.87107800  1
  H  613  1  0.95915700  0.64348400  0.86459900  1
  H  614  1  0.97052300  0.62724100  0.81714800  1
  H  615  1  0.03901100  0.62839100  0.81886900  1
  H  616  1  0.00416100  0.66303100  0.81449900  1
  H  617  1  0.00470300  0.65537000  0.76341100  1
  H  618  1  0.00482800  0.62670000  0.76751700  1
  H  619  1  0.00507500  0.59692500  0.83635100  1
  H  620  1  0.00449800  0.59805800  0.77699000  1
  H  621  1  0.00454100  0.57255200  0.79081500  1
  H  627  1  0.06705900  0.62739700  0.83154500  1
  H  628  1  0.94247000  0.63155000  0.82443100  1
  H  629  1  0.99954300  0.56617500  0.83372600  1
  H  630  1  0.01066600  0.68599200  0.79372900  1
  H  655  1  0.04697200  0.34629000  0.13350600  1
  H  656  1  0.01840400  0.34519300  0.12893500  1
  H  657  1  0.98733900  0.34557700  0.12977000  1
  H  658  1  0.95914800  0.34731100  0.13623700  1
  H  659  1  0.97047800  0.36364200  0.18366700  1
  H  660  1  0.03899700  0.36245900  0.18195600  1
  H  661  1  0.00410600  0.32786100  0.18635000  1
  H  662  1  0.00464000  0.33553300  0.23743400  1
  H  663  1  0.00480200  0.36421100  0.23331700  1
  H  664  1  0.00499100  0.39384400  0.16441300  1
  H  665  1  0.00464900  0.39293800  0.22376800  1
  H  666  1  0.00469900  0.41840800  0.20984100  1
  H  672  1  0.06706500  0.36341200  0.16927700  1
  H  673  1  0.94242000  0.35928200  0.17636100  1
  H  674  1  0.99928900  0.42433200  0.16676500  1
  H  675  1  0.01061800  0.30489000  0.20711500  1
  H  700  1  0.96224300  0.64458000  0.13349300  1
  H  701  1  0.99081300  0.64570400  0.12893400  1
  H  702  1  0.02188300  0.64528200  0.12976200  1
  H  703  1  0.05006900  0.64353100  0.13623600  1
  H  704  1  0.03872000  0.62725200  0.18367900  1
  H  705  1  0.97021000  0.62839200  0.18193900  1
  H  706  1  0.00508000  0.66304600  0.18633500  1
  H  707  1  0.00457500  0.65538100  0.23742600  1
  H  708  1  0.00444300  0.62671000  0.23331800  1
  H  709  1  0.00416800  0.59694100  0.16448500  1
  H  710  1  0.00477900  0.59807100  0.22384500  1
  H  711  1  0.00474400  0.57256600  0.21002000  1
  H  717  1  0.94212500  0.62760900  0.16938400  1
  H  718  1  0.06677900  0.63157900  0.17638100  1
  H  719  1  0.00972300  0.56619100  0.16711200  1
  H  720  1  0.99858200  0.68601800  0.20711800  1
  H  745  1  0.87151500  0.03778800  0.64956700  1
  H  746  1  0.87608100  0.00922000  0.65066300  1
  H  747  1  0.87524400  0.97814900  0.65026400  1
  H  748  1  0.86877100  0.94996100  0.64851800  1
  H  749  1  0.82133900  0.96131300  0.63220300  1
  H  750  1  0.82306900  0.02982700  0.63338800  1
  H  751  1  0.81866600  0.99493100  0.66799100  1
  H  752  1  0.76758300  0.99545500  0.66031700  1
  H  753  1  0.77169900  0.99562400  0.63163800  1
  H  754  1  0.84060100  0.99582500  0.60200200  1
  H  755  1  0.78124700  0.99546100  0.60291000  1
  H  756  1  0.79517400  0.99551700  0.57743900  1
  H  762  1  0.83574500  0.05789100  0.63244400  1
  H  763  1  0.82863100  0.93325600  0.63655800  1
  H  764  1  0.83824700  0.99010400  0.57151400  1
  H  765  1  0.79789800  0.00143900  0.69096100  1
  H  790  1  0.87151500  0.95307700  0.35127000  1
  H  791  1  0.87607300  0.98164300  0.35012800  1
  H  792  1  0.87524600  0.01271200  0.35052900  1
  H  793  1  0.86878100  0.04090100  0.35228500  1
  H  794  1  0.82133900  0.02956200  0.36858000  1
  H  795  1  0.82307100  0.96105300  0.36745600  1
  H  796  1  0.81867300  0.99591900  0.33278100  1
  H  797  1  0.76758300  0.99539000  0.34044800  1
  H  798  1  0.77169100  0.99526300  0.36912000  1
  H  799  1  0.84052500  0.99500200  0.39889000  1
  H  800  1  0.78116500  0.99560600  0.39776300  1
  H  801  1  0.79499100  0.99556300  0.42326900  1
  H  807  1  0.83554700  0.93297900  0.36815100  1
  H  808  1  0.82864700  0.05761700  0.36426200  1
  H  809  1  0.83789100  0.00055800  0.42965200  1
  H  810  1  0.79789000  0.98940300  0.30980900  1
  H  835  1  0.13768100  0.95303500  0.64955800  1
  H  836  1  0.13311400  0.98160400  0.65067100  1
  H  837  1  0.13394900  0.01268300  0.65025800  1
  H  838  1  0.14042700  0.04087000  0.64850400  1
  H  839  1  0.18785900  0.02950700  0.63219700  1
  H  840  1  0.18613000  0.96100700  0.63338300  1
  H  841  1  0.19053700  0.99588600  0.66799400  1
  H  842  1  0.24161800  0.99534900  0.66029900  1
  H  843  1  0.23749200  0.99518800  0.63162300  1
  H  844  1  0.16858800  0.99499600  0.60200700  1
  H  845  1  0.22794200  0.99534200  0.60290300  1
  H  846  1  0.21401300  0.99528100  0.57743500  1
  H  852  1  0.17356400  0.93292900  0.63257200  1
  H  853  1  0.18058000  0.05756300  0.63654900  1
  H  854  1  0.17093900  0.00070100  0.57151600  1
  H  855  1  0.21124500  0.98950700  0.69098200  1
  H  880  1  0.13767800  0.03777700  0.35127500  1
  H  881  1  0.13310400  0.00921000  0.35015600  1
  H  882  1  0.13393500  0.97812600  0.35054400  1
  H  883  1  0.14041100  0.94993700  0.35228900  1
  H  884  1  0.18785100  0.96128600  0.36857200  1
  H  885  1  0.18612600  0.02978400  0.36743500  1
  H  886  1  0.19050200  0.99491700  0.33278800  1
  H  887  1  0.24159200  0.99543000  0.34044500  1
  H  888  1  0.23748700  0.99556200  0.36911800  1
  H  889  1  0.16865700  0.99583000  0.39889800  1
  H  890  1  0.22801700  0.99521900  0.39776200  1
  H  891  1  0.21419300  0.99525000  0.42327000  1
  H  897  1  0.17345700  0.05785400  0.36839900  1
  H  898  1  0.18056100  0.93323200  0.36424100  1
  H  899  1  0.17128300  0.99027200  0.42964800  1
  H  900  1  0.21128700  0.00142700  0.30981500  1
  H  925  1  0.65374700  0.12853500  0.95803100  1
  H  926  1  0.65486000  0.12397000  0.98660100  1
  H  927  1  0.65446000  0.12480400  0.01766600  1
  H  928  1  0.65271900  0.13127400  0.04585500  1
  H  929  1  0.63638900  0.17870000  0.03451500  1
  H  930  1  0.63756700  0.17698100  0.96599900  1
  H  931  1  0.67217600  0.18138000  0.00088900  1
  H  932  1  0.66449800  0.23246100  0.00034500  1
  H  933  1  0.63581800  0.22834300  0.00018600  1
  H  934  1  0.60619300  0.15944100  0.99999600  1
  H  935  1  0.60708600  0.21879100  0.00034900  1
  H  936  1  0.58161800  0.20485900  0.00028900  1
  H  942  1  0.63677000  0.16441800  0.93791700  1
  H  943  1  0.64074400  0.17139700  0.06257400  1
  H  944  1  0.57570200  0.16181800  0.00576000  1
  H  945  1  0.69514600  0.20214400  0.99437500  1
  H  970  1  0.35543900  0.12852100  0.04276000  1
  H  971  1  0.35432700  0.12395700  0.01419100  1
  H  972  1  0.35474000  0.12478300  0.98312000  1
  H  973  1  0.35648600  0.13125500  0.95493200  1
  H  974  1  0.37276200  0.17869700  0.96627400  1
  H  975  1  0.37161600  0.17696600  0.03478600  1
  H  976  1  0.33697000  0.18135600  0.99992100  1
  H  977  1  0.34463600  0.23244200  0.00041800  1
  H  978  1  0.37330800  0.22833300  0.00054400  1
  H  979  1  0.40308100  0.15950700  0.00082700  1
  H  980  1  0.40194600  0.21886300  0.00021300  1
  H  981  1  0.42745400  0.20504000  0.00024900  1
  H  987  1  0.37258100  0.16428700  0.06283500  1
  H  988  1  0.36843400  0.17139900  0.93821600  1
  H  989  1  0.43383200  0.16213500  0.99526700  1
  H  990  1  0.31400300  0.20210300  0.00637300  1
  H  1015  1  0.65374700  0.86231400  0.04274200  1
  H  1016  1  0.65484900  0.86687900  0.01417200  1
  H  1017  1  0.65445800  0.86604300  0.98310700  1
  H  1018  1  0.65272700  0.85956900  0.95492100  1
  H  1019  1  0.63639200  0.81214400  0.96626000  1
  H  1020  1  0.63756500  0.81387100  0.03477700  1
  H  1021  1  0.67217200  0.80947200  0.99987000  1
  H  1022  1  0.66450100  0.75839000  0.00036300  1
  H  1023  1  0.63582100  0.76250600  0.00053500  1
  H  1024  1  0.60618600  0.83140400  0.00075600  1
  H  1025  1  0.60709100  0.77205300  0.00038200  1
  H  1026  1  0.58162000  0.78598100  0.00042300  1
  H  1032  1  0.63663000  0.82653800  0.06284400  1
  H  1033  1  0.64076400  0.81944100  0.93820000  1
  H  1034  1  0.57569900  0.82905300  0.99502500  1
  H  1035  1  0.69514500  0.78871000  0.00635700  1
  H  1060  1  0.35543600  0.86230900  0.95800800  1
  H  1061  1  0.35431300  0.86687700  0.98657600  1
  H  1062  1  0.35474100  0.86605800  0.01765000  1
  H  1063  1  0.35650300  0.85959400  0.04584100  1
  H  1064  1  0.37276000  0.81214300  0.03449800  1
  H  1065  1  0.37161700  0.81386600  0.96599200  1
  H  1066  1  0.33696500  0.80947900  0.00085600  1
  H  1067  1  0.34463000  0.75839300  0.00029900  1
  H  1068  1  0.37330400  0.76250200  0.00016900  1
  H  1069  1  0.40307500  0.83133100  0.99993300  1
  H  1070  1  0.40194500  0.77197400  0.00051100  1
  H  1071  1  0.42745200  0.78579800  0.00046800  1
  H  1077  1  0.37241200  0.82641600  0.93790500  1
  H  1078  1  0.36845800  0.81945100  0.06255300  1
  H  1079  1  0.43382700  0.82870600  0.00546000  1
  H  1080  1  0.31400100  0.78867400  0.99430100  1
  H  1087  1  0.46467500  0.96757500  0.19301300  1
  H  1094  1  0.51373100  0.01752600  0.19418800  1
  H  1095  1  0.54257300  0.02080100  0.19381500  1
  H  1096  1  0.54764800  0.97460200  0.17214500  1
  H  1097  1  0.46273900  0.01487800  0.17409800  1
  H  1098  1  0.51871200  0.97160200  0.17155900  1
  H  1099  1  0.49164500  0.01611300  0.17354500  1
  H  1111  1  0.46468600  0.02326700  0.80780200  1
  H  1118  1  0.51374600  0.97331700  0.80662800  1
  H  1119  1  0.54258800  0.97004200  0.80700200  1
  H  1120  1  0.54765900  0.01624100  0.82867200  1
  H  1121  1  0.46275400  0.97596400  0.82671800  1
  H  1122  1  0.51872200  0.01924100  0.82925900  1
  H  1123  1  0.49166000  0.97473000  0.82727200  1
  H  1135  1  0.03246900  0.18805100  0.54032800  1
  H  1142  1  0.98251700  0.18922700  0.49127600  1
  H  1143  1  0.97923300  0.18885400  0.46243600  1
  H  1144  1  0.02543800  0.16719200  0.45734900  1
  H  1145  1  0.98516600  0.16913500  0.54226300  1
  H  1146  1  0.02844500  0.16660200  0.48628500  1
  H  1147  1  0.98393200  0.16858200  0.51335700  1
  H  1159  1  0.97676200  0.80279900  0.54033000  1
  H  1166  1  0.02671500  0.80162500  0.49127100  1
  H  1167  1  0.02999000  0.80199800  0.46242800  1
  H  1168  1  0.98378700  0.82366700  0.45735700  1
  H  1169  1  0.02406600  0.82171400  0.54226200  1
  H  1170  1  0.98078700  0.82425400  0.48629500  1
  H  1171  1  0.02530100  0.82226700  0.51335600  1
  H  1183  1  0.81198700  0.53533700  0.97252700  1
  H  1190  1  0.81081200  0.48628100  0.02248000  1
  H  1191  1  0.81118500  0.45744200  0.02575600  1
  H  1192  1  0.83285400  0.45237000  0.97955200  1
  H  1193  1  0.83090200  0.53727100  0.01983100  1
  H  1194  1  0.83344200  0.48130500  0.97655300  1
  H  1195  1  0.83145700  0.50836600  0.02106700  1
  H  1207  1  0.19719800  0.53532300  0.02823400  1
  H  1214  1  0.19837300  0.48627100  0.97828300  1
  H  1215  1  0.19799900  0.45743000  0.97500600  1
  H  1216  1  0.17632900  0.45235600  0.02120900  1
  H  1217  1  0.17828100  0.53725900  0.98093000  1
  H  1218  1  0.17574300  0.48129000  0.02421000  1
  H  1219  1  0.17772700  0.50835500  0.97969600  1
  H  1231  1  0.03248200  0.53533600  0.80779200  1
  H  1238  1  0.98253500  0.48626600  0.80665900  1
  H  1239  1  0.97926700  0.45742600  0.80699600  1
  H  1240  1  0.02547200  0.45233300  0.82864500  1
  H  1241  1  0.98518000  0.53727600  0.82670500  1
  H  1242  1  0.02846900  0.48127000  0.82925600  1
  H  1243  1  0.98395300  0.50836900  0.82728100  1
  H  1255  1  0.97678300  0.53535000  0.19304500  1
  H  1262  1  0.02673000  0.48627300  0.19417800  1
  H  1263  1  0.02999100  0.45743200  0.19383900  1
  H  1264  1  0.98378800  0.45235600  0.17218500  1
  H  1265  1  0.02408400  0.53729200  0.17413300  1
  H  1266  1  0.98079700  0.48129300  0.17157600  1
  H  1267  1  0.02531400  0.50838500  0.17355700  1
  H  1279  1  0.81196500  0.96760600  0.46048700  1
  H  1286  1  0.81083300  0.01754800  0.50956500  1
  H  1287  1  0.81117300  0.02080800  0.53840800  1
  H  1288  1  0.83282500  0.97460600  0.54348700  1
  H  1289  1  0.83087500  0.01490300  0.45854300  1
  H  1290  1  0.83343500  0.97161600  0.51454800  1
  H  1291  1  0.83145300  0.01613200  0.48745100  1
  H  1303  1  0.19721700  0.02320600  0.46048700  1
  H  1310  1  0.19835300  0.97326200  0.50956700  1
  H  1311  1  0.19801400  0.97000000  0.53841100  1
  H  1312  1  0.17636000  0.01620100  0.54348900  1
  H  1313  1  0.17830600  0.97590800  0.45854800  1
  H  1314  1  0.17574900  0.01919300  0.51455100  1
  H  1315  1  0.17773200  0.97467800  0.48745600  1
  H  1327  1  0.46467200  0.18806600  0.02820700  1
  H  1334  1  0.51374800  0.18920300  0.97826000  1
  H  1335  1  0.54258900  0.18886600  0.97499200  1
  H  1336  1  0.54768000  0.16721700  0.02119800  1
  H  1337  1  0.46273400  0.16915700  0.98090600  1
  H  1338  1  0.51874100  0.16660400  0.02419500  1
  H  1339  1  0.49164200  0.16858200  0.97967900  1
  H  1351  1  0.46467100  0.80277400  0.97252200  1
  H  1358  1  0.51375000  0.80164100  0.02246900  1
  H  1359  1  0.54259200  0.80198100  0.02572900  1
  H  1360  1  0.54767000  0.82363300  0.97952400  1
  H  1361  1  0.46272900  0.82168300  0.01982300  1
  H  1362  1  0.51873200  0.82424300  0.97653300  1
  H  1363  1  0.49163700  0.82225900  0.02105200  1
  H  1375  1  0.69999500  0.96857600  0.24883200  1
  H  1382  1  0.73643300  0.01869300  0.28144400  1
  H  1383  1  0.75734800  0.02203300  0.30127300  1
  H  1384  1  0.77357400  0.97421200  0.29243800  1
  H  1385  1  0.71460900  0.01411300  0.23120400  1
  H  1386  1  0.75327600  0.97104600  0.27180400  1
  H  1387  1  0.73535200  0.01551800  0.25136400  1
  H  1399  1  0.30916400  0.02224900  0.24882700  1
  H  1406  1  0.27274100  0.97212600  0.28145200  1
  H  1407  1  0.25182200  0.96878200  0.30127900  1
  H  1408  1  0.23559300  0.01660300  0.29244100  1
  H  1409  1  0.29454500  0.97671100  0.23120400  1
  H  1410  1  0.25589400  0.01977300  0.27180900  1
  H  1411  1  0.27381300  0.97530300  0.25137500  1
  H  1423  1  0.70000600  0.02226500  0.75198600  1
  H  1430  1  0.73645400  0.97216100  0.71936600  1
  H  1431  1  0.75736000  0.96882400  0.69952800  1
  H  1432  1  0.77358500  0.01664500  0.70835700  1
  H  1433  1  0.71463600  0.97673000  0.76960400  1
  H  1434  1  0.75329300  0.01980900  0.72900000  1
  H  1435  1  0.73537700  0.97533400  0.74944200  1
  H  1447  1  0.30917200  0.96859100  0.75198600  1
  H  1454  1  0.27272600  0.01870900  0.71934800  1
  H  1455  1  0.25181400  0.02202300  0.69950900  1
  H  1456  1  0.23560800  0.97420400  0.70838700  1
  H  1457  1  0.29455500  0.01413000  0.76960400  1
  H  1458  1  0.25590600  0.97106000  0.72902300  1
  H  1459  1  0.27382300  0.01554000  0.74943200  1
  H  1471  1  0.03146700  0.24387200  0.30500600  1
  H  1478  1  0.98134600  0.27648500  0.26856100  1
  H  1479  1  0.97800900  0.29632300  0.24765500  1
  H  1480  1  0.02583400  0.28749600  0.23143100  1
  H  1481  1  0.98592700  0.22625000  0.29039200  1
  H  1482  1  0.02899800  0.26685400  0.25172400  1
  H  1483  1  0.98452300  0.24641000  0.26964900  1
  H  1495  1  0.97779500  0.24386000  0.69584600  1
  H  1502  1  0.02791800  0.27648300  0.73227500  1
  H  1503  1  0.03125600  0.29631700  0.75318300  1
  H  1504  1  0.98343100  0.28748700  0.76941000  1
  H  1505  1  0.02333700  0.22624200  0.71046400  1
  H  1506  1  0.98026600  0.26684800  0.74911800  1
  H  1507  1  0.02474300  0.24641000  0.73119600  1
  H  1519  1  0.97775400  0.74698900  0.30501200  1
  H  1526  1  0.02787500  0.71437900  0.26857100  1
  H  1527  1  0.03121600  0.69455200  0.24765600  1
  H  1528  1  0.98339100  0.70338800  0.23143200  1
  H  1529  1  0.02329300  0.76461500  0.29039600  1
  H  1530  1  0.98022400  0.72402000  0.25173200  1
  H  1531  1  0.02469800  0.74445600  0.26965400  1
  H  1543  1  0.03145100  0.74698400  0.69584200  1
  H  1550  1  0.98132200  0.71435600  0.73227200  1
  H  1551  1  0.97799200  0.69453100  0.75319400  1
  H  1552  1  0.02581400  0.70338900  0.76941000  1
  H  1553  1  0.98590700  0.76460700  0.71045300  1
  H  1554  1  0.02897100  0.72401700  0.74910700  1
  H  1555  1  0.98449400  0.74443700  0.73118500  1
  H  1567  1  0.75616600  0.30002800  0.97352600  1
  H  1574  1  0.72355100  0.26358300  0.02364600  1
  H  1575  1  0.70371200  0.24267900  0.02698100  1
  H  1576  1  0.71254200  0.22646000  0.97915600  1
  H  1577  1  0.77378900  0.28541500  0.01906600  1
  H  1578  1  0.73318600  0.24675000  0.97599200  1
  H  1579  1  0.75362900  0.26467200  0.02046900  1
  H  1591  1  0.75617000  0.69084000  0.02720700  1
  H  1598  1  0.72354200  0.72726900  0.97708300  1
  H  1599  1  0.70370600  0.74817600  0.97374600  1
  H  1600  1  0.71253900  0.76440100  0.02156900  1
  H  1601  1  0.77379000  0.70545900  0.98166500  1
  H  1602  1  0.73318000  0.74410900  0.02473400  1
  H  1603  1  0.75361800  0.72619100  0.98025800  1
  H  1615  1  0.25301000  0.30002400  0.02723000  1
  H  1622  1  0.28563200  0.26358700  0.97711900  1
  H  1623  1  0.30546000  0.24267000  0.97378100  1
  H  1624  1  0.29661400  0.22644600  0.02160400  1
  H  1625  1  0.23538900  0.28539700  0.98169400  1
  H  1626  1  0.27598400  0.24674600  0.02476900  1
  H  1627  1  0.25555200  0.26465900  0.98029500  1
  H  1639  1  0.25301200  0.69082700  0.97355500  1
  H  1646  1  0.28564000  0.72725400  0.02367800  1
  H  1647  1  0.30546800  0.74817000  0.02701400  1
  H  1648  1  0.29662100  0.76439200  0.97918900  1
  H  1649  1  0.23539200  0.70544400  0.01909700  1
  H  1650  1  0.27599000  0.74409300  0.97602800  1
  H  1651  1  0.25556200  0.72617500  0.02050500  1
  H  1663  1  0.63681100  0.15535400  0.10188700  1
  H  1670  1  0.67136400  0.09516000  0.11390500  1
  H  1671  1  0.67222500  0.07240200  0.13172100  1
  H  1672  1  0.62596100  0.08461800  0.15015900  1
  H  1673  1  0.65490800  0.12032700  0.06942200  1
  H  1674  1  0.62428600  0.10670200  0.13126800  1
  H  1675  1  0.65511900  0.10067200  0.08996900  1
  H  1687  1  0.37236500  0.83547000  0.10186700  1
  H  1694  1  0.33780300  0.89567100  0.11391800  1
  H  1695  1  0.33698200  0.91843600  0.13173100  1
  H  1696  1  0.38324000  0.90616500  0.15013900  1
  H  1697  1  0.35424400  0.87050400  0.06941900  1
  H  1698  1  0.38488200  0.88408800  0.13124700  1
  H  1699  1  0.35402800  0.89015000  0.08997400  1
  H  1711  1  0.63682500  0.83549300  0.89889700  1
  H  1718  1  0.67138100  0.89568900  0.88688300  1
  H  1719  1  0.67222400  0.91845500  0.86907200  1
  H  1720  1  0.62595800  0.90622300  0.85065200  1
  H  1721  1  0.65494200  0.87050900  0.93136200  1
  H  1722  1  0.62429700  0.88414100  0.86954300  1
  H  1723  1  0.65514600  0.89016900  0.91082200  1
  H  1735  1  0.37237500  0.15536000  0.89890600  1
  H  1742  1  0.33781900  0.09517200  0.88689400  1
  H  1743  1  0.33695800  0.07241200  0.86908100  1
  H  1744  1  0.38322500  0.08462100  0.85064700  1
  H  1745  1  0.35425400  0.12033800  0.93136600  1
  H  1746  1  0.38490200  0.10670500  0.86953600  1
  H  1747  1  0.35405900  0.10068000  0.91082700  1
  H  1759  1  0.84467900  0.09692500  0.36819200  1
  H  1766  1  0.90488200  0.10895800  0.33363900  1
  H  1767  1  0.92764600  0.12677100  0.33279900  1
  H  1768  1  0.91539800  0.14519200  0.37906000  1
  H  1769  1  0.87971400  0.06447100  0.35008500  1
  H  1770  1  0.89331700  0.12630100  0.38071900  1
  H  1771  1  0.89936600  0.08502000  0.34987600  1
  H  1783  1  0.16457800  0.09689700  0.63263800  1
  H  1790  1  0.10438500  0.10895800  0.66720500  1
  H  1791  1  0.08162200  0.12677100  0.66804300  1
  H  1792  1  0.09386600  0.14518800  0.62177900  1
  H  1793  1  0.12953400  0.06446000  0.65075600  1
  H  1794  1  0.11594800  0.12629700  0.62012300  1
  H  1795  1  0.10989200  0.08501800  0.65097000  1
  H  1807  1  0.16453500  0.89391300  0.36819200  1
  H  1814  1  0.10434600  0.88188900  0.33363500  1
  H  1815  1  0.08158600  0.86407800  0.33277500  1
  H  1816  1  0.09379500  0.84564600  0.37904300  1
  H  1817  1  0.12950500  0.92636200  0.35007100  1
  H  1818  1  0.11588000  0.86453400  0.38071900  1
  H  1819  1  0.10985000  0.90582100  0.34987600  1
  H  1831  1  0.84465200  0.89393200  0.63264100  1
  H  1838  1  0.90485300  0.88188700  0.66720000  1
  H  1839  1  0.92761700  0.86407200  0.66803700  1
  H  1840  1  0.91536900  0.84565600  0.62177600  1
  H  1841  1  0.87968800  0.92638000  0.65075200  1
  H  1842  1  0.89328800  0.86454800  0.62012100  1
  H  1843  1  0.89933700  0.90582700  0.65096700  1
  H  1855  1  0.90311000  0.36321100  0.16031400  1
  H  1862  1  0.89110000  0.32866100  0.10011600  1
  H  1863  1  0.87328400  0.32779900  0.07735700  1
  H  1864  1  0.85484500  0.37406000  0.08957400  1
  H  1865  1  0.93558000  0.34511300  0.12528900  1
  H  1866  1  0.87373600  0.37573400  0.11165800  1
  H  1867  1  0.91503500  0.34490100  0.10563200  1
  H  1879  1  0.90313800  0.62764100  0.84042400  1
  H  1886  1  0.89106400  0.66220900  0.90061500  1
  H  1887  1  0.87325400  0.66302800  0.92338400  1
  H  1888  1  0.85485200  0.61676800  0.91112300  1
  H  1889  1  0.93556600  0.64578000  0.87546600  1
  H  1890  1  0.87374400  0.61512600  0.88904100  1
  H  1891  1  0.91500700  0.64598600  0.89510800  1
  H  1903  1  0.10610600  0.36320200  0.84045700  1
  H  1910  1  0.11813000  0.32864100  0.90065100  1
  H  1911  1  0.13593900  0.32780000  0.92341800  1
  H  1912  1  0.15435200  0.37406700  0.91118600  1
  H  1913  1  0.07365200  0.34506700  0.87548200  1
  H  1914  1  0.13546300  0.37572800  0.88910300  1
  H  1915  1  0.09419100  0.34487300  0.89513900  1
  H  1927  1  0.10609100  0.62763000  0.16034300  1
  H  1934  1  0.11810800  0.66218200  0.10014900  1
  H  1935  1  0.13592100  0.66304400  0.07738800  1
  H  1936  1  0.15435500  0.61677700  0.08959800  1
  H  1937  1  0.07363400  0.64574400  0.12531300  1
  H  1938  1  0.13546600  0.61510200  0.11168400  1
  H  1939  1  0.09417400  0.64593800  0.10565500  1
  H  1951  1  0.84467000  0.36322100  0.89887200  1
  H  1958  1  0.90485900  0.32866500  0.88684300  1
  H  1959  1  0.92763000  0.32781500  0.86903800  1
  H  1960  1  0.91541100  0.37408000  0.85060900  1
  H  1961  1  0.87971000  0.34513700  0.93133200  1
  H  1962  1  0.89332000  0.37574500  0.86949000  1
  H  1963  1  0.89935900  0.34491800  0.91078000  1
  H  1975  1  0.16451900  0.62762700  0.89890700  1
  H  1982  1  0.10433900  0.66218100  0.88688300  1
  H  1983  1  0.08160100  0.66306200  0.86904100  1
  H  1984  1  0.09379900  0.61678900  0.85062100  1
  H  1985  1  0.12948100  0.64572000  0.93136800  1
  H  1986  1  0.11586200  0.61509400  0.86953600  1
  H  1987  1  0.10982700  0.64592300  0.91082200  1
  H  1999  1  0.16451300  0.36320000  0.10189300  1
  H  2006  1  0.10431800  0.32865400  0.11392000  1
  H  2007  1  0.08157200  0.32778700  0.13175400  1
  H  2008  1  0.09378900  0.37405000  0.15018000  1
  H  2009  1  0.12947700  0.34511200  0.06943200  1
  H  2010  1  0.11585900  0.37573200  0.13127200  1
  H  2011  1  0.10982400  0.34490200  0.08998000  1
  H  2023  1  0.84468000  0.62763700  0.10186200  1
  H  2030  1  0.90488800  0.66218000  0.11389500  1
  H  2031  1  0.92764200  0.66302100  0.13172300  1
  H  2032  1  0.91538700  0.61676400  0.15014200  1
  H  2033  1  0.87971700  0.64573600  0.06940400  1
  H  2034  1  0.89331700  0.61510400  0.13123800  1
  H  2035  1  0.89936800  0.64594700  0.08995400  1
  H  2047  1  0.90313300  0.15535100  0.63263500  1
  H  2054  1  0.89110800  0.09515300  0.66718400  1
  H  2055  1  0.87328900  0.07239800  0.66804300  1
  H  2056  1  0.85485500  0.08462400  0.62178100  1
  H  2057  1  0.93559200  0.12032000  0.65073800  1
  H  2058  1  0.87374900  0.10670400  0.62010800  1
  H  2059  1  0.91504500  0.10066800  0.65094500  1
  H  2071  1  0.90310500  0.83548300  0.36819700  1
  H  2078  1  0.89106100  0.89568600  0.33364600  1
  H  2079  1  0.87325000  0.91845300  0.33281900  1
  H  2080  1  0.85483500  0.90619500  0.37907900  1
  H  2081  1  0.93556200  0.87052400  0.35011200  1
  H  2082  1  0.87372300  0.88411400  0.38072600  1
  H  2083  1  0.91500500  0.89017000  0.34988800  1
  H  2095  1  0.10609400  0.83548000  0.63263600  1
  H  2102  1  0.11812900  0.89566900  0.66719200  1
  H  2103  1  0.13595400  0.91842300  0.66804000  1
  H  2104  1  0.15437000  0.90619000  0.62177300  1
  H  2105  1  0.07363800  0.87051600  0.65073700  1
  H  2106  1  0.13547000  0.88411900  0.62010700  1
  H  2107  1  0.09418800  0.89016400  0.65094800  1
  H  2119  1  0.10613000  0.15536500  0.36820100  1
  H  2126  1  0.11814900  0.09517900  0.33364300  1
  H  2127  1  0.13594900  0.07240900  0.33278000  1
  H  2128  1  0.15439300  0.08460500  0.37904500  1
  H  2129  1  0.07366700  0.12033200  0.35011700  1
  H  2130  1  0.13552000  0.10670400  0.38072000  1
  H  2131  1  0.09421700  0.10068200  0.34989900  1
  H  2143  1  0.63682100  0.09691900  0.84048500  1
  H  2150  1  0.67136900  0.10895100  0.90068500  1
  H  2151  1  0.67221600  0.12678500  0.92343300  1
  H  2152  1  0.62595200  0.14519900  0.91118600  1
  H  2153  1  0.65491100  0.06446000  0.87552400  1
  H  2154  1  0.62428600  0.12628800  0.88912400  1
  H  2155  1  0.65512700  0.08500900  0.89517500  1
  H  2167  1  0.37236700  0.09690300  0.16031900  1
  H  2174  1  0.33781800  0.10892900  0.10012100  1
  H  2175  1  0.33695600  0.12675300  0.07736700  1
  H  2176  1  0.38322000  0.14518400  0.08958700  1
  H  2177  1  0.35426800  0.06444700  0.12528500  1
  H  2178  1  0.38489600  0.12628600  0.11166500  1
  H  2179  1  0.35406200  0.08499400  0.10563100  1
  H  2191  1  0.63680300  0.89392200  0.16031900  1
  H  2198  1  0.67135100  0.88190400  0.10011500  1
  H  2199  1  0.67221000  0.86408900  0.07735400  1
  H  2200  1  0.62594900  0.84565100  0.08957800  1
  H  2201  1  0.65489200  0.92638300  0.12528300  1
  H  2202  1  0.62427700  0.86454000  0.11166400  1
  H  2203  1  0.65510600  0.90583600  0.10563000  1
  H  2215  1  0.37237700  0.89394700  0.84048200  1
  H  2222  1  0.33783300  0.88190800  0.90068200  1
  H  2223  1  0.33698300  0.86406200  0.92342400  1
  H  2224  1  0.38324900  0.84565500  0.91117400  1
  H  2225  1  0.35428000  0.92639900  0.87552200  1
  H  2226  1  0.38491800  0.86457700  0.88911900  1
  H  2227  1  0.35407300  0.90585000  0.89517300  1
  C  1  1  0.62107800  0.99580200  0.18520900  1
  C  2  1  0.62123800  0.99573800  0.20220300  1
  C  3  1  0.63719200  0.99545600  0.20752600  1
  C  4  1  0.64759300  0.99528700  0.19407900  1
  C  5  1  0.66463200  0.99503400  0.19635900  1
  C  6  1  0.67111000  0.99496200  0.21235900  1
  C  7  1  0.66009700  0.99537300  0.22574400  1
  C  8  1  0.64321400  0.99549800  0.22345500  1
  C  9  1  0.60680000  0.99574300  0.21127100  1
  C  10  1  0.59192800  0.99585000  0.20291600  1
  C  11  1  0.59125900  0.99608500  0.18561100  1
  C  12  1  0.60610500  0.99594700  0.17677900  1
  C  13  1  0.64197700  0.00887800  0.16776700  1
  C  14  1  0.64687700  0.00294000  0.15259100  1
  C  15  1  0.64645200  0.98608300  0.15292100  1
  C  16  1  0.64126600  0.98116200  0.16832400  1
  C  17  1  0.65051900  0.97458500  0.14099200  1
  C  18  1  0.64940700  0.95796100  0.14493300  1
  C  19  1  0.64423400  0.95252700  0.16051900  1
  C  20  1  0.64010000  0.96452000  0.17221100  1
  C  21  1  0.64135000  0.02574600  0.17078100  1
  C  22  1  0.64576000  0.03679100  0.15832200  1
  C  23  1  0.65075900  0.03033400  0.14297900  1
  C  24  1  0.65136300  0.01353800  0.14003200  1
  C  37  1  0.63795500  0.99533700  0.17884700  1
  C  38  1  0.64312800  0.93613900  0.16487200  1
  C  39  1  0.64391800  0.05345600  0.16070300  1
  C  40  1  0.57637600  0.99520700  0.17762300  1
  C  41  1  0.68778800  0.99542200  0.21512500  1
  C  46  1  0.38807900  0.99507300  0.18522500  1
  C  47  1  0.38787400  0.99516300  0.20222000  1
  C  48  1  0.37192200  0.99539000  0.20752200  1
  C  49  1  0.36153800  0.99553800  0.19406400  1
  C  50  1  0.34449800  0.99577700  0.19634300  1
  C  51  1  0.33801900  0.99584400  0.21234500  1
  C  52  1  0.34902300  0.99543800  0.22573400  1
  C  53  1  0.36590100  0.99532700  0.22345100  1
  C  54  1  0.40226900  0.99526200  0.21134600  1
  C  55  1  0.41716300  0.99518200  0.20305100  1
  C  56  1  0.41789200  0.99483400  0.18575200  1
  C  57  1  0.40308900  0.99494500  0.17684700  1
  C  58  1  0.36719300  0.98195800  0.16775900  1
  C  59  1  0.36227200  0.98789600  0.15259000  1
  C  60  1  0.36269300  0.00475200  0.15291800  1
  C  61  1  0.36787800  0.00967200  0.16832300  1
  C  62  1  0.35863800  0.01625200  0.14098700  1
  C  63  1  0.35975700  0.03287500  0.14492800  1
  C  64  1  0.36491900  0.03830500  0.16051800  1
  C  65  1  0.36904400  0.02631100  0.17221100  1
  C  66  1  0.36783200  0.96509000  0.17076900  1
  C  67  1  0.36342700  0.95404800  0.15830500  1
  C  68  1  0.35841700  0.96050500  0.14296700  1
  C  69  1  0.35779600  0.97730200  0.14002600  1
  C  82  1  0.37120200  0.99550000  0.17884500  1
  C  83  1  0.36603100  0.05469100  0.16487400  1
  C  84  1  0.36529800  0.93738600  0.16065000  1
  C  85  1  0.43285600  0.99534300  0.17790600  1
  C  86  1  0.32134300  0.99539400  0.21511300  1
  C  91  1  0.62109100  0.99504900  0.81560700  1
  C  92  1  0.62124800  0.99510700  0.79861400  1
  C  93  1  0.63720200  0.99539700  0.79328900  1
  C  94  1  0.64760500  0.99556600  0.80673500  1
  C  95  1  0.66464400  0.99581900  0.80445200  1
  C  96  1  0.67111800  0.99588500  0.78844900  1
  C  97  1  0.66010400  0.99548100  0.77506700  1
  C  98  1  0.64322300  0.99535300  0.77735900  1
  C  99  1  0.60681000  0.99510900  0.78954800  1
  C  100  1  0.59193900  0.99499600  0.79790200  1
  C  101  1  0.59127100  0.99476100  0.81520800  1
  C  102  1  0.60611700  0.99490200  0.82403900  1
  C  103  1  0.64199100  0.98197700  0.83304700  1
  C  104  1  0.64689600  0.98791500  0.84822100  1
  C  105  1  0.64646800  0.00477000  0.84789200  1
  C  106  1  0.64128500  0.00969000  0.83248700  1
  C  107  1  0.65053800  0.01626900  0.85981800  1
  C  108  1  0.64942100  0.03289100  0.85587600  1
  C  109  1  0.64424400  0.03832200  0.84029100  1
  C  110  1  0.64011000  0.02632900  0.82860100  1
  C  111  1  0.64135800  0.96511000  0.83003600  1
  C  112  1  0.64576900  0.95406800  0.84249700  1
  C  113  1  0.65077200  0.96052400  0.85783800  1
  C  114  1  0.65137800  0.97732000  0.86078400  1
  C  127  1  0.63796700  0.99551600  0.82196600  1
  C  128  1  0.64314200  0.05470800  0.83593400  1
  C  129  1  0.64390800  0.93740800  0.84013300  1
  C  130  1  0.57638700  0.99563700  0.82319700  1
  C  131  1  0.68779200  0.99541100  0.78567600  1
  C  136  1  0.38809100  0.99576100  0.81558900  1
  C  137  1  0.38788600  0.99567500  0.79859500  1
  C  138  1  0.37193400  0.99545300  0.79329200  1
  C  139  1  0.36155000  0.99530400  0.80675100  1
  C  140  1  0.34450800  0.99506300  0.80447300  1
  C  141  1  0.33802800  0.99499000  0.78847100  1
  C  142  1  0.34903400  0.99539800  0.77508200  1
  C  143  1  0.36591200  0.99550700  0.77736500  1
  C  144  1  0.40228100  0.99557900  0.78946800  1
  C  145  1  0.41717400  0.99565700  0.79776100  1
  C  146  1  0.41790500  0.99600200  0.81505900  1
  C  147  1  0.40310100  0.99589800  0.82396600  1
  C  148  1  0.36721000  0.00888700  0.83305400  1
  C  149  1  0.36229800  0.00295200  0.84822800  1
  C  150  1  0.36272900  0.98609600  0.84790500  1
  C  151  1  0.36789400  0.98117500  0.83249400  1
  C  152  1  0.35865300  0.97459500  0.85983000  1
  C  153  1  0.35976700  0.95797300  0.85588600  1
  C  154  1  0.36493000  0.95254200  0.84029600  1
  C  155  1  0.36905200  0.96453700  0.82860300  1
  C  156  1  0.36784200  0.02575400  0.83003900  1
  C  157  1  0.36343100  0.03680000  0.84249500  1
  C  158  1  0.35842500  0.03034700  0.85783800  1
  C  159  1  0.35782200  0.01355200  0.86079000  1
  C  172  1  0.37121500  0.99534400  0.82197000  1
  C  173  1  0.36604300  0.93615800  0.83593600  1
  C  174  1  0.36526900  0.05346400  0.84010900  1
  C  175  1  0.43287000  0.99549200  0.82290300  1
  C  176  1  0.32135200  0.99544400  0.78570100  1
  C  181  1  0.00423500  0.18024900  0.38392500  1
  C  182  1  0.00430100  0.19724200  0.38376700  1
  C  183  1  0.00458300  0.20256800  0.36781300  1
  C  184  1  0.00475400  0.18912100  0.35741200  1
  C  185  1  0.00501100  0.19140200  0.34037200  1
  C  186  1  0.00507800  0.20740300  0.33389500  1
  C  187  1  0.00467600  0.22078600  0.34490800  1
  C  188  1  0.00454400  0.21849500  0.36179000  1
  C  189  1  0.00431000  0.20630500  0.39820700  1
  C  190  1  0.00419200  0.19795000  0.41308000  1
  C  191  1  0.00396200  0.18064500  0.41374500  1
  C  192  1  0.00410000  0.17181700  0.39889800  1
  C  193  1  0.99116800  0.16281000  0.36302400  1
  C  194  1  0.99710900  0.14763800  0.35811500  1
  C  195  1  0.01396600  0.14796800  0.35854800  1
  C  196  1  0.01888500  0.16337000  0.36373700  1
  C  197  1  0.02546700  0.13604200  0.35447700  1
  C  198  1  0.04209100  0.13998000  0.35560100  1
  C  199  1  0.04752200  0.15556700  0.36077100  1
  C  200  1  0.03552600  0.16725500  0.36490800  1
  C  201  1  0.97429800  0.16581700  0.36366400  1
  C  202  1  0.96325800  0.15335400  0.35925700  1
  C  203  1  0.96971600  0.13801800  0.35424500  1
  C  204  1  0.98651400  0.13507500  0.35363700  1
  C  217  1  0.00470700  0.17389000  0.36704900  1
  C  218  1  0.06391100  0.15992100  0.36187400  1
  C  219  1  0.94659400  0.15571600  0.36110600  1
  C  220  1  0.00481900  0.17264800  0.42862700  1
  C  221  1  0.00462100  0.21016800  0.31721600  1
  C  226  1  0.00496000  0.18026100  0.61692700  1
  C  227  1  0.00487200  0.19725500  0.61713100  1
  C  228  1  0.00464900  0.20255600  0.63308400  1
  C  229  1  0.00450600  0.18909800  0.64346900  1
  C  230  1  0.00427000  0.19137800  0.66050900  1
  C  231  1  0.00420200  0.20737900  0.66698900  1
  C  232  1  0.00460600  0.22076700  0.65598200  1
  C  233  1  0.00471500  0.21848300  0.63910500  1
  C  234  1  0.00478200  0.20638100  0.60273700  1
  C  235  1  0.00486200  0.19808800  0.58784400  1
  C  236  1  0.00521100  0.18079100  0.58711200  1
  C  237  1  0.00509900  0.17188600  0.60191700  1
  C  238  1  0.01808800  0.16279600  0.63780700  1
  C  239  1  0.01215300  0.14762300  0.64272200  1
  C  240  1  0.99529500  0.14795300  0.64231000  1
  C  241  1  0.99037300  0.16336000  0.63713600  1
  C  242  1  0.98379500  0.13602300  0.64636800  1
  C  243  1  0.96717100  0.13996100  0.64524500  1
  C  244  1  0.96173700  0.15555100  0.64008400  1
  C  245  1  0.97373200  0.16724600  0.63596700  1
  C  246  1  0.03495700  0.16580700  0.63717400  1
  C  247  1  0.04600300  0.15334700  0.64157800  1
  C  248  1  0.03954900  0.13800900  0.64658700  1
  C  249  1  0.02275100  0.13506300  0.64720300  1
  C  262  1  0.00454400  0.17388000  0.63380500  1
  C  263  1  0.94535000  0.15990300  0.63896500  1
  C  264  1  0.06267100  0.15571300  0.63972500  1
  C  265  1  0.00469600  0.17294900  0.57214600  1
  C  266  1  0.00465100  0.21014700  0.68366500  1
  C  271  1  0.00498500  0.81060500  0.38392600  1
  C  272  1  0.00492800  0.79361200  0.38376700  1
  C  273  1  0.00464600  0.78828900  0.36781300  1
  C  274  1  0.00447100  0.80173600  0.35741200  1
  C  275  1  0.00421600  0.79945700  0.34037200  1
  C  276  1  0.00414800  0.78345700  0.33389700  1
  C  277  1  0.00455000  0.77007400  0.34490800  1
  C  278  1  0.00468600  0.77236100  0.36179000  1
  C  279  1  0.00492300  0.78454600  0.39820500  1
  C  280  1  0.00503700  0.79289700  0.41307800  1
  C  281  1  0.00526200  0.81020300  0.41374500  1
  C  282  1  0.00512900  0.81903400  0.39890000  1
  C  283  1  0.01806000  0.82804500  0.36302700  1
  C  284  1  0.01212200  0.84321900  0.35812200  1
  C  285  1  0.99526400  0.84289200  0.35855400  1
  C  286  1  0.99034400  0.82748900  0.36374000  1
  C  287  1  0.98376400  0.85481800  0.35448300  1
  C  288  1  0.96714000  0.85087700  0.35559900  1
  C  289  1  0.96170900  0.83529000  0.36077000  1
  C  290  1  0.97370300  0.82360200  0.36490700  1
  C  291  1  0.03492900  0.82503100  0.36365500  1
  C  292  1  0.04597300  0.83749200  0.35925200  1
  C  293  1  0.03951700  0.85283300  0.35424800  1
  C  294  1  0.02272000  0.85578000  0.35364100  1
  C  307  1  0.00452000  0.81696600  0.36705100  1
  C  308  1  0.94532100  0.83093500  0.36187100  1
  C  309  1  0.06263900  0.83510500  0.36108600  1
  C  310  1  0.00439000  0.81819100  0.42862800  1
  C  311  1  0.00460100  0.78069300  0.31721700  1
  C  316  1  0.00427300  0.81058300  0.61692700  1
  C  317  1  0.00435300  0.79358900  0.61713300  1
  C  318  1  0.00458200  0.78828700  0.63308400  1
  C  319  1  0.00472500  0.80174500  0.64346800  1
  C  320  1  0.00496800  0.79946700  0.66050800  1
  C  321  1  0.00503900  0.78346600  0.66699000  1
  C  322  1  0.00463100  0.77007700  0.65598600  1
  C  323  1  0.00451900  0.77236000  0.63910700  1
  C  324  1  0.00445400  0.78446300  0.60273900  1
  C  325  1  0.00437500  0.79275800  0.58784400  1
  C  326  1  0.00402400  0.81005500  0.58711200  1
  C  327  1  0.00413600  0.81896000  0.60191600  1
  C  328  1  0.99114600  0.82804700  0.63780700  1
  C  329  1  0.99708200  0.84321800  0.64272600  1
  C  330  1  0.01393900  0.84288900  0.64230900  1
  C  331  1  0.01886000  0.82748200  0.63713500  1
  C  332  1  0.02543900  0.85481700  0.64636800  1
  C  333  1  0.04206300  0.85087800  0.64524400  1
  C  334  1  0.04749500  0.83528900  0.64008100  1
  C  335  1  0.03550100  0.82359500  0.63596300  1
  C  336  1  0.97427700  0.82503700  0.63716800  1
  C  337  1  0.96323300  0.83749700  0.64157500  1
  C  338  1  0.96968600  0.85283500  0.64658800  1
  C  339  1  0.98648300  0.85578000  0.64720300  1
  C  352  1  0.00469000  0.81696300  0.63380400  1
  C  353  1  0.06388200  0.83093300  0.63896500  1
  C  354  1  0.94656900  0.83513100  0.63972700  1
  C  355  1  0.00453800  0.81789800  0.57214600  1
  C  356  1  0.00460000  0.78070900  0.68366700  1
  C  361  1  0.81979100  0.37894200  0.00075500  1
  C  362  1  0.80279700  0.37878300  0.00069100  1
  C  363  1  0.79747200  0.36282900  0.00040900  1
  C  364  1  0.81092100  0.35242900  0.00024000  1
  C  365  1  0.80864100  0.33539100  0.99998500  1
  C  366  1  0.79263900  0.32891400  0.99991200  1
  C  367  1  0.77925500  0.33992600  0.00032200  1
  C  368  1  0.78154400  0.35680700  0.00044900  1
  C  369  1  0.79373000  0.39322000  0.00069500  1
  C  370  1  0.80208300  0.40809200  0.00080200  1
  C  371  1  0.81939000  0.40876000  0.00103700  1
  C  372  1  0.82822000  0.39391400  0.00089900  1
  C  373  1  0.83723300  0.35804600  0.01383200  1
  C  374  1  0.85240800  0.35314600  0.00789200  1
  C  375  1  0.85208000  0.35357300  0.99103400  1
  C  376  1  0.83667400  0.35875700  0.98611500  1
  C  377  1  0.86400700  0.34950500  0.97953300  1
  C  378  1  0.86006200  0.35061500  0.96290900  1
  C  379  1  0.84447600  0.35578900  0.95747800  1
  C  380  1  0.83278600  0.35992300  0.96947400  1
  C  381  1  0.83422200  0.35867600  0.03070100  1
  C  382  1  0.84667900  0.35426000  0.04174600  1
  C  383  1  0.86202200  0.34926300  0.03528700  1
  C  384  1  0.86497000  0.34866100  0.01848900  1
  C  397  1  0.82615100  0.36206800  0.00029100  1
  C  398  1  0.84012000  0.35689300  0.94109000  1
  C  399  1  0.84429900  0.35610200  0.05841200  1
  C  400  1  0.82737800  0.42364200  0.00015800  1
  C  401  1  0.78987300  0.31223700  0.00037200  1
  C  406  1  0.81977500  0.61192800  0.00003300  1
  C  407  1  0.80278000  0.61213200  0.00012100  1
  C  408  1  0.79747700  0.62808400  0.00034800  1
  C  409  1  0.81093500  0.63846700  0.00049800  1
  C  410  1  0.80865500  0.65550600  0.00073600  1
  C  411  1  0.79265400  0.66198600  0.00080100  1
  C  412  1  0.77926400  0.65098200  0.00039500  1
  C  413  1  0.78154900  0.63410400  0.00028500  1
  C  414  1  0.79365400  0.59773900  0.00021900  1
  C  415  1  0.80194800  0.58284600  0.00013600  1
  C  416  1  0.81924800  0.58211600  0.99978900  1
  C  417  1  0.82815200  0.59691900  0.99990200  1
  C  418  1  0.83723900  0.63281200  0.98691600  1
  C  419  1  0.85240900  0.63773300  0.99285300  1
  C  420  1  0.85208100  0.63731000  0.00970900  1
  C  421  1  0.83667800  0.63212700  0.01463000  1
  C  422  1  0.86401400  0.64136600  0.02120800  1
  C  423  1  0.86007300  0.64024500  0.03783200  1
  C  424  1  0.84448300  0.63508500  0.04326400  1
  C  425  1  0.83278900  0.63096100  0.03127100  1
  C  426  1  0.83423000  0.63216800  0.97004700  1
  C  427  1  0.84669100  0.63657600  0.95900400  1
  C  428  1  0.86203000  0.64158500  0.96545800  1
  C  429  1  0.86497400  0.64220700  0.98225500  1
  C  442  1  0.82615500  0.62880300  0.00045900  1
  C  443  1  0.84012700  0.63397000  0.05965100  1
  C  444  1  0.84434500  0.63470400  0.94233900  1
  C  445  1  0.82709400  0.56715300  0.00029600  1
  C  446  1  0.78988600  0.67866100  0.00035100  1
  C  451  1  0.18939300  0.37893200  0.00001300  1
  C  452  1  0.20638600  0.37877500  0.00007600  1
  C  453  1  0.21171100  0.36282200  0.00035900  1
  C  454  1  0.19826500  0.35242000  0.00052800  1
  C  455  1  0.20054600  0.33538200  0.00078000  1
  C  456  1  0.21654900  0.32891000  0.00084500  1
  C  457  1  0.22993200  0.33992200  0.00044100  1
  C  458  1  0.22764100  0.35680100  0.00031400  1
  C  459  1  0.21545200  0.39321100  0.00007000  1
  C  460  1  0.20709800  0.40808200  0.99995800  1
  C  461  1  0.18979200  0.40875000  0.99972400  1
  C  462  1  0.18096100  0.39390400  0.99986500  1
  C  463  1  0.17195200  0.35803300  0.98694100  1
  C  464  1  0.15677800  0.35312800  0.99288100  1
  C  465  1  0.15710800  0.35355500  0.00973700  1
  C  466  1  0.17251400  0.35873900  0.01465500  1
  C  467  1  0.14518200  0.34948500  0.02123700  1
  C  468  1  0.14912400  0.35060100  0.03786000  1
  C  469  1  0.16471000  0.35577700  0.04329100  1
  C  470  1  0.17639900  0.35991300  0.03129600  1
  C  471  1  0.17496500  0.35866700  0.97007300  1
  C  472  1  0.16250300  0.35425900  0.95903200  1
  C  473  1  0.14716300  0.34925200  0.96548800  1
  C  474  1  0.14421700  0.34864600  0.98228500  1
  C  487  1  0.18303300  0.36205700  0.00047900  1
  C  488  1  0.16906700  0.35687800  0.05967800  1
  C  489  1  0.16487100  0.35611700  0.94237100  1
  C  490  1  0.18180300  0.42363100  0.00060200  1
  C  491  1  0.21932200  0.31223600  0.00037200  1
  C  496  1  0.18941100  0.61191500  0.00072900  1
  C  497  1  0.20640600  0.61211900  0.00064200  1
  C  498  1  0.21170700  0.62807100  0.00042000  1
  C  499  1  0.19824900  0.63845400  0.00027100  1
  C  500  1  0.20052700  0.65549300  0.00003100  1
  C  501  1  0.21652800  0.66197300  0.99995800  1
  C  502  1  0.22991800  0.65096800  0.00036600  1
  C  503  1  0.22763600  0.63409100  0.00047500  1
  C  504  1  0.21553300  0.59772600  0.00054600  1
  C  505  1  0.20724000  0.58283400  0.00062400  1
  C  506  1  0.18994100  0.58210300  0.00096900  1
  C  507  1  0.18103500  0.59690500  0.00086500  1
  C  508  1  0.17194600  0.63279300  0.01385700  1
  C  509  1  0.15677100  0.63770500  0.00792200  1
  C  510  1  0.15709500  0.63727500  0.99106400  1
  C  511  1  0.17250500  0.63211100  0.98614400  1
  C  512  1  0.14517000  0.64135100  0.97956500  1
  C  513  1  0.14911500  0.64023700  0.96294100  1
  C  514  1  0.16470600  0.63507500  0.95750900  1
  C  515  1  0.17639900  0.63095300  0.96950300  1
  C  516  1  0.17496300  0.63216100  0.03072400  1
  C  517  1  0.16250600  0.63657300  0.04177200  1
  C  518  1  0.14716300  0.64157900  0.03532000  1
  C  519  1  0.14421100  0.64218200  0.01852300  1
  C  532  1  0.18303000  0.62878900  0.00031200  1
  C  533  1  0.16906700  0.63396300  0.94112300  1
  C  534  1  0.16489300  0.63473400  0.05843700  1
  C  535  1  0.18209800  0.56713800  0.00046000  1
  C  536  1  0.21929700  0.67864800  0.00041300  1
  C  541  1  0.00423600  0.37887300  0.81554500  1
  C  542  1  0.00432800  0.37868800  0.79854800  1
  C  543  1  0.00467900  0.36271000  0.79324400  1
  C  544  1  0.00483000  0.35235000  0.80672300  1
  C  545  1  0.00514000  0.33530600  0.80451500  1
  C  546  1  0.00530200  0.32874600  0.78855000  1
  C  547  1  0.00499700  0.33969700  0.77511600  1
  C  548  1  0.00477300  0.35660100  0.77733900  1
  C  549  1  0.00433200  0.39313200  0.78948800  1
  C  550  1  0.00419900  0.40801300  0.79784000  1
  C  551  1  0.00396900  0.40869400  0.81514500  1
  C  552  1  0.00409600  0.39384900  0.82397300  1
  C  553  1  0.99117600  0.35798700  0.83300900  1
  C  554  1  0.99711100  0.35310100  0.84819200  1
  C  555  1  0.01396700  0.35354600  0.84787200  1
  C  556  1  0.01888800  0.35873300  0.83247000  1
  C  557  1  0.02546600  0.34949600  0.85980600  1
  C  558  1  0.04208900  0.35062500  0.85586600  1
  C  559  1  0.04751900  0.35577700  0.84027100  1
  C  560  1  0.03552600  0.35990500  0.82858100  1
  C  561  1  0.97430900  0.35863400  0.83000000  1
  C  562  1  0.96326500  0.35426000  0.84247200  1
  C  563  1  0.96971600  0.34927100  0.85782000  1
  C  564  1  0.98651300  0.34865000  0.86076300  1
  C  577  1  0.00471900  0.36201300  0.82193300  1
  C  578  1  0.06390200  0.35687300  0.83590300  1
  C  579  1  0.94660400  0.35613100  0.84011000  1
  C  580  1  0.00484100  0.42358200  0.82314500  1
  C  581  1  0.00450400  0.31204800  0.78594400  1
  C  586  1  0.00497300  0.61198100  0.81553300  1
  C  587  1  0.00487000  0.61221500  0.79853500  1
  C  588  1  0.00457800  0.62819000  0.79325200  1
  C  589  1  0.00444000  0.63853200  0.80674100  1
  C  590  1  0.00415400  0.65557700  0.80453300  1
  C  591  1  0.00400600  0.66214100  0.78856700  1
  C  592  1  0.00433100  0.65119600  0.77512900  1
  C  593  1  0.00452400  0.63429600  0.77734900  1
  C  594  1  0.00480300  0.59781800  0.78941200  1
  C  595  1  0.00491000  0.58291300  0.79770200  1
  C  596  1  0.00524900  0.58216400  0.81499800  1
  C  597  1  0.00512800  0.59696600  0.82390500  1
  C  598  1  0.01808000  0.63284500  0.83302000  1
  C  599  1  0.01214900  0.63772900  0.84820600  1
  C  600  1  0.99529200  0.63730300  0.84788600  1
  C  601  1  0.99037000  0.63213800  0.83247700  1
  C  602  1  0.98378900  0.64133900  0.85982200  1
  C  603  1  0.96716500  0.64020800  0.85588200  1
  C  604  1  0.96173700  0.63506800  0.84028200  1
  C  605  1  0.97373300  0.63096600  0.82858600  1
  C  606  1  0.03494600  0.63221700  0.82999900  1
  C  607  1  0.04599600  0.63659300  0.84246300  1
  C  608  1  0.03954800  0.64156900  0.85781800  1
  C  609  1  0.02275300  0.64218300  0.86077200  1
  C  622  1  0.00453500  0.62884100  0.82194100  1
  C  623  1  0.94535500  0.63395200  0.83591200  1
  C  624  1  0.06266000  0.63474300  0.84007200  1
  C  625  1  0.00472500  0.56719100  0.82284500  1
  C  626  1  0.00480700  0.67883400  0.78594400  1
  C  631  1  0.00499400  0.37888400  0.18528300  1
  C  632  1  0.00492100  0.37869500  0.20228000  1
  C  633  1  0.00456900  0.36271800  0.20758400  1
  C  634  1  0.00440500  0.35236000  0.19410500  1
  C  635  1  0.00410600  0.33531500  0.19631500  1
  C  636  1  0.00395800  0.32875400  0.21228000  1
  C  637  1  0.00427200  0.33970600  0.22571500  1
  C  638  1  0.00449200  0.35660900  0.22348900  1
  C  639  1  0.00493600  0.39313600  0.21134500  1
  C  640  1  0.00506800  0.40801900  0.20299700  1
  C  641  1  0.00528600  0.40870500  0.18569100  1
  C  642  1  0.00515200  0.39386200  0.17685800  1
  C  643  1  0.01805800  0.35800000  0.16781800  1
  C  644  1  0.01212300  0.35312100  0.15263400  1
  C  645  1  0.99526700  0.35356400  0.15295100  1
  C  646  1  0.99034100  0.35874700  0.16835300  1
  C  647  1  0.98377300  0.34951200  0.14101200  1
  C  648  1  0.96714800  0.35063400  0.14494400  1
  C  649  1  0.96170900  0.35579200  0.16053400  1
  C  650  1  0.97369800  0.35991600  0.17223200  1
  C  651  1  0.03492700  0.35862900  0.17083200  1
  C  652  1  0.04597200  0.35425700  0.15835900  1
  C  653  1  0.03951800  0.34927600  0.14301000  1
  C  654  1  0.02272200  0.34866600  0.14006300  1
  C  667  1  0.00451100  0.36202400  0.17889300  1
  C  668  1  0.94532000  0.35689600  0.16488100  1
  C  669  1  0.06263700  0.35609900  0.16073900  1
  C  670  1  0.00440500  0.42359700  0.17770200  1
  C  671  1  0.00476000  0.31205700  0.21489100  1
  C  676  1  0.00426500  0.61199600  0.18530100  1
  C  677  1  0.00436900  0.61222900  0.20229900  1
  C  678  1  0.00466800  0.62820400  0.20758200  1
  C  679  1  0.00479200  0.63854600  0.19409300  1
  C  680  1  0.00508900  0.65559100  0.19630200  1
  C  681  1  0.00524700  0.66215400  0.21226700  1
  C  682  1  0.00493500  0.65120900  0.22570600  1
  C  683  1  0.00473700  0.63430900  0.22348600  1
  C  684  1  0.00445800  0.59783000  0.21142300  1
  C  685  1  0.00436000  0.58292700  0.20313400  1
  C  686  1  0.00401100  0.58217800  0.18583700  1
  C  687  1  0.00411800  0.59698300  0.17693000  1
  C  688  1  0.99115200  0.63286400  0.16780900  1
  C  689  1  0.99708800  0.63776000  0.15262900  1
  C  690  1  0.01394300  0.63732900  0.15295100  1
  C  691  1  0.01886600  0.63215600  0.16835800  1
  C  692  1  0.02544200  0.64137000  0.14101400  1
  C  693  1  0.04206600  0.64023800  0.14495000  1
  C  694  1  0.04749900  0.63508600  0.16054300  1
  C  695  1  0.03550500  0.63097700  0.17224300  1
  C  696  1  0.97428200  0.63222100  0.17081500  1
  C  697  1  0.96324000  0.63659700  0.15833900  1
  C  698  1  0.96969600  0.64159000  0.14299600  1
  C  699  1  0.98649300  0.64221200  0.14005600  1
  C  712  1  0.00469800  0.62885800  0.17889200  1
  C  713  1  0.06388400  0.63396900  0.16490000  1
  C  714  1  0.94657600  0.63473200  0.16069700  1
  C  715  1  0.00453900  0.56720600  0.17799200  1
  C  716  1  0.00445400  0.67884900  0.21488000  1
  C  721  1  0.81973200  0.99582300  0.61696400  1
  C  722  1  0.80273500  0.99573700  0.61715300  1
  C  723  1  0.79743200  0.99538700  0.63313200  1
  C  724  1  0.81091200  0.99523200  0.64348900  1
  C  725  1  0.80870000  0.99492900  0.66053500  1
  C  726  1  0.79273600  0.99476900  0.66709800  1
  C  727  1  0.77930300  0.99509200  0.65614500  1
  C  728  1  0.78152700  0.99530400  0.63924100  1
  C  729  1  0.79367100  0.99575800  0.60271200  1
  C  730  1  0.80201800  0.99588200  0.58782700  1
  C  731  1  0.81932300  0.99611300  0.58713900  1
  C  732  1  0.82815600  0.99597800  0.60198400  1
  C  733  1  0.83720200  0.00888400  0.63784900  1
  C  734  1  0.85238400  0.00294500  0.64272800  1
  C  735  1  0.85206400  0.98608800  0.64228800  1
  C  736  1  0.83666000  0.98116800  0.63710300  1
  C  737  1  0.86399800  0.97458800  0.64633500  1
  C  738  1  0.86005900  0.95796600  0.64521400  1
  C  739  1  0.84447000  0.95253300  0.64005500  1
  C  740  1  0.83277400  0.96452800  0.63593500  1
  C  741  1  0.83419200  0.02575300  0.63722000  1
  C  742  1  0.84666400  0.03679700  0.64160000  1
  C  743  1  0.86201200  0.03033600  0.64657800  1
  C  744  1  0.86495500  0.01354000  0.64718900  1
  C  757  1  0.82612200  0.99534000  0.63382500  1
  C  758  1  0.84011300  0.93614800  0.63894800  1
  C  759  1  0.84429500  0.05346200  0.63974500  1
  C  760  1  0.82731200  0.99522400  0.57224700  1
  C  761  1  0.79012400  0.99557600  0.68379600  1
  C  766  1  0.81970800  0.99509500  0.38383400  1
  C  767  1  0.80271100  0.99520200  0.38360200  1
  C  768  1  0.79742800  0.99550000  0.36762700  1
  C  769  1  0.81091700  0.99563700  0.35728300  1
  C  770  1  0.80870700  0.99592300  0.34023800  1
  C  771  1  0.79274100  0.99607300  0.33367400  1
  C  772  1  0.77930300  0.99575500  0.34462000  1
  C  773  1  0.78152300  0.99555900  0.36152100  1
  C  774  1  0.79358700  0.99528100  0.39800200  1
  C  775  1  0.80187700  0.99517800  0.41290600  1
  C  776  1  0.81917500  0.99483600  0.41365400  1
  C  777  1  0.82808000  0.99495200  0.39885000  1
  C  778  1  0.83719700  0.98199100  0.36296200  1
  C  779  1  0.85237700  0.98792500  0.35806400  1
  C  780  1  0.85206000  0.00478000  0.35849800  1
  C  781  1  0.83665600  0.00970500  0.36368100  1
  C  782  1  0.86400100  0.01627500  0.35446200  1
  C  783  1  0.86006900  0.03289900  0.35559300  1
  C  784  1  0.84447700  0.03833500  0.36074300  1
  C  785  1  0.83277500  0.02634500  0.36485300  1
  C  786  1  0.83419000  0.96512300  0.36360900  1
  C  787  1  0.84666400  0.95407800  0.35924100  1
  C  788  1  0.86201000  0.96053100  0.35425000  1
  C  789  1  0.86495000  0.97732700  0.35361600  1
  C  802  1  0.82611700  0.99553900  0.36697200  1
  C  803  1  0.84012500  0.05472000  0.36186200  1
  C  804  1  0.84432700  0.93741500  0.36112900  1
  C  805  1  0.82702200  0.99535500  0.42862600  1
  C  806  1  0.79012700  0.99527400  0.31697800  1
  C  811  1  0.18945900  0.99499900  0.61696500  1
  C  812  1  0.20645500  0.99507300  0.61715000  1
  C  813  1  0.21176100  0.99543300  0.63312600  1
  C  814  1  0.19828400  0.99559300  0.64348800  1
  C  815  1  0.20049900  0.99589400  0.66053300  1
  C  816  1  0.21646700  0.99604100  0.66708700  1
  C  817  1  0.22989700  0.99572000  0.65613000  1
  C  818  1  0.22766800  0.99550700  0.63922700  1
  C  819  1  0.21551900  0.99505500  0.60270700  1
  C  820  1  0.20717000  0.99492200  0.58782400  1
  C  821  1  0.18986500  0.99469500  0.58714000  1
  C  822  1  0.18103200  0.99484000  0.60198600  1
  C  823  1  0.17199400  0.98194500  0.63785400  1
  C  824  1  0.15681000  0.98788200  0.64273500  1
  C  825  1  0.15713200  0.00473900  0.64229300  1
  C  826  1  0.17253700  0.00965800  0.63711200  1
  C  827  1  0.14519900  0.01624100  0.64633700  1
  C  828  1  0.14913800  0.03286400  0.64520600  1
  C  829  1  0.16473100  0.03829200  0.64004700  1
  C  830  1  0.17642300  0.02629600  0.63593100  1
  C  831  1  0.17500600  0.96507700  0.63721800  1
  C  832  1  0.16253300  0.95403600  0.64159200  1
  C  833  1  0.14718400  0.96049000  0.64657400  1
  C  834  1  0.14424000  0.97728600  0.64718900  1
  C  847  1  0.18307200  0.99548600  0.63382700  1
  C  848  1  0.16909700  0.05467600  0.63894200  1
  C  849  1  0.16489500  0.93737600  0.63972200  1
  C  850  1  0.18187400  0.99558200  0.57224900  1
  C  851  1  0.21910200  0.99521100  0.68377600  1
  C  856  1  0.18947300  0.99573200  0.38384000  1
  C  857  1  0.20647000  0.99562100  0.38360400  1
  C  858  1  0.21175200  0.99533000  0.36762800  1
  C  859  1  0.19826300  0.99520000  0.35728800  1
  C  860  1  0.20046900  0.99490900  0.34024100  1
  C  861  1  0.21643300  0.99474300  0.33367500  1
  C  862  1  0.22987300  0.99505800  0.34462000  1
  C  863  1  0.22765600  0.99525700  0.36152100  1
  C  864  1  0.21559500  0.99553800  0.39800300  1
  C  865  1  0.20730700  0.99563400  0.41290900  1
  C  866  1  0.19000900  0.99597600  0.41365900  1
  C  867  1  0.18110100  0.99587700  0.39885600  1
  C  868  1  0.17198300  0.00885100  0.36297300  1
  C  869  1  0.15680000  0.00292100  0.35808200  1
  C  870  1  0.15711400  0.98606300  0.35852400  1
  C  871  1  0.17252300  0.98113700  0.36368800  1
  C  872  1  0.14518300  0.97456500  0.35446600  1
  C  873  1  0.14912200  0.95794100  0.35558900  1
  C  874  1  0.16471600  0.95250700  0.36074100  1
  C  875  1  0.17641300  0.96449900  0.36485100  1
  C  876  1  0.17499800  0.02571800  0.36361200  1
  C  877  1  0.16253100  0.03676800  0.35923500  1
  C  878  1  0.14718300  0.03031900  0.35424600  1
  C  879  1  0.14423300  0.01352400  0.35363000  1
  C  892  1  0.18306300  0.99530200  0.36698000  1
  C  893  1  0.16907800  0.93612400  0.36185400  1
  C  894  1  0.16491100  0.05343200  0.36109200  1
  C  895  1  0.18216300  0.99545300  0.42863100  1
  C  896  1  0.21904600  0.99554600  0.31698000  1
  C  901  1  0.62115000  0.18031200  0.99999200  1
  C  902  1  0.62133600  0.19730700  0.00007400  1
  C  903  1  0.63731300  0.20261200  0.00042600  1
  C  904  1  0.64767400  0.18913500  0.00058800  1
  C  905  1  0.66472000  0.19134500  0.00088900  1
  C  906  1  0.67127900  0.20730900  0.00103400  1
  C  907  1  0.66032600  0.22074200  0.00072100  1
  C  908  1  0.64342200  0.21851600  0.00050300  1
  C  909  1  0.60689100  0.20636700  0.00006100  1
  C  910  1  0.59200700  0.19801800  0.99992200  1
  C  911  1  0.59132500  0.18071300  0.99970000  1
  C  912  1  0.60617300  0.17188500  0.99984300  1
  C  913  1  0.64203900  0.16284800  0.98694100  1
  C  914  1  0.64692300  0.14766600  0.99287700  1
  C  915  1  0.64647700  0.14798400  0.00973300  1
  C  916  1  0.64129000  0.16338500  0.01465600  1
  C  917  1  0.65053000  0.13604800  0.02122900  1
  C  918  1  0.64939800  0.13997900  0.03785300  1
  C  919  1  0.64423900  0.15556700  0.04328900  1
  C  920  1  0.64011400  0.16726400  0.03129800  1
  C  921  1  0.64139800  0.16585700  0.97007200  1
  C  922  1  0.64577100  0.15338300  0.95903000  1
  C  923  1  0.65076100  0.13803700  0.96548500  1
  C  924  1  0.65137600  0.13509400  0.98228100  1
  C  937  1  0.63801200  0.17392300  0.00048400  1
  C  938  1  0.64313100  0.15991700  0.05967700  1
  C  939  1  0.64390900  0.15574400  0.94236700  1
  C  940  1  0.57643400  0.17271600  0.00056700  1
  C  941  1  0.68797800  0.20992100  0.00023000  1
  C  946  1  0.38802300  0.18032100  0.00072600  1
  C  947  1  0.38778900  0.19731800  0.00061200  1
  C  948  1  0.37181300  0.20260000  0.00032100  1
  C  949  1  0.36147100  0.18911200  0.00019500  1
  C  950  1  0.34442500  0.19132100  0.99990600  1
  C  951  1  0.33786200  0.20728600  0.99974700  1
  C  952  1  0.34880900  0.22072300  0.00005600  1
  C  953  1  0.36570900  0.21850300  0.00025100  1
  C  954  1  0.40218700  0.20644200  0.00053400  1
  C  955  1  0.41709300  0.19815400  0.00063200  1
  C  956  1  0.41784200  0.18085700  0.00097900  1
  C  957  1  0.40304000  0.17195100  0.00087400  1
  C  958  1  0.36715700  0.16283100  0.01384600  1
  C  959  1  0.36226900  0.14764900  0.00791200  1
  C  960  1  0.36269400  0.14797100  0.99105500  1
  C  961  1  0.36786300  0.16337700  0.98613000  1
  C  962  1  0.35865000  0.13603500  0.97955800  1
  C  963  1  0.35977700  0.13997100  0.96293400  1
  C  964  1  0.36492600  0.15556400  0.95749900  1
  C  965  1  0.36903400  0.16726200  0.96949000  1
  C  966  1  0.36778600  0.16584100  0.03071600  1
  C  967  1  0.36340800  0.15337000  0.04176200  1
  C  968  1  0.35842700  0.13802300  0.03530600  1
  C  969  1  0.35781100  0.13508000  0.01850900  1
  C  982  1  0.37116200  0.17391200  0.00029600  1
  C  983  1  0.36604200  0.15991900  0.94111200  1
  C  984  1  0.36526100  0.15574400  0.05843000  1
  C  985  1  0.43281600  0.17301400  0.00045100  1
  C  986  1  0.32116600  0.20991000  0.00055300  1
  C  991  1  0.62114600  0.81053500  0.00076500  1
  C  992  1  0.62133500  0.79354000  0.00068000  1
  C  993  1  0.63731300  0.78823700  0.00032800  1
  C  994  1  0.64767200  0.80171600  0.00017500  1
  C  995  1  0.66471700  0.79950800  0.99986600  1
  C  996  1  0.67127900  0.78354400  0.99970200  1
  C  997  1  0.66032700  0.77010900  0.00000800  1
  C  998  1  0.64342300  0.77233400  0.00023400  1
  C  999  1  0.60689300  0.78447700  0.00067800  1
  C  1000  1  0.59200800  0.79282400  0.00080400  1
  C  1001  1  0.59132300  0.81012800  0.00103000  1
  C  1002  1  0.60616700  0.81896000  0.00091300  1
  C  1003  1  0.64203200  0.82800100  0.01383400  1
  C  1004  1  0.64691400  0.84318300  0.00789700  1
  C  1005  1  0.64647000  0.84286500  0.99104100  1
  C  1006  1  0.64128600  0.82746400  0.98611700  1
  C  1007  1  0.65052200  0.85480000  0.97954500  1
  C  1008  1  0.64940000  0.85086500  0.96292200  1
  C  1009  1  0.64424500  0.83527500  0.95748600  1
  C  1010  1  0.64011700  0.82358000  0.96947600  1
  C  1011  1  0.64139900  0.82499200  0.03070400  1
  C  1012  1  0.64577100  0.83746700  0.04174700  1
  C  1013  1  0.65075800  0.85281100  0.03528900  1
  C  1014  1  0.65137200  0.85575300  0.01849200  1
  C  1027  1  0.63800700  0.81692500  0.00028800  1
  C  1028  1  0.64314700  0.83092100  0.94109900  1
  C  1029  1  0.64392100  0.83509300  0.05841400  1
  C  1030  1  0.57643200  0.81811800  0.00014300  1
  C  1031  1  0.68797800  0.78093600  0.00049900  1
  C  1036  1  0.38801800  0.81051500  0.00003400  1
  C  1037  1  0.38778600  0.79351800  0.00012600  1
  C  1038  1  0.37181100  0.78823500  0.00042600  1
  C  1039  1  0.36146600  0.80172300  0.00056500  1
  C  1040  1  0.34442100  0.79951400  0.00085600  1
  C  1041  1  0.33785900  0.78354900  0.00100200  1
  C  1042  1  0.34880400  0.77011200  0.00067200  1
  C  1043  1  0.36570600  0.77233200  0.00047700  1
  C  1044  1  0.40218500  0.78439500  0.00019800  1
  C  1045  1  0.41708900  0.79268400  0.00009500  1
  C  1046  1  0.41783700  0.80998100  0.99975500  1
  C  1047  1  0.40303400  0.81888600  0.99987800  1
  C  1048  1  0.36714900  0.82800300  0.98692900  1
  C  1049  1  0.36225500  0.84318400  0.99286000  1
  C  1050  1  0.36268600  0.84286500  0.00971600  1
  C  1051  1  0.36785600  0.82745900  0.01464100  1
  C  1052  1  0.35864800  0.85480600  0.02121200  1
  C  1053  1  0.35978400  0.85087300  0.03783700  1
  C  1054  1  0.36493300  0.83528100  0.04327200  1
  C  1055  1  0.36903600  0.82357900  0.03128200  1
  C  1056  1  0.36779100  0.82499100  0.97006000  1
  C  1057  1  0.36341500  0.83746100  0.95901500  1
  C  1058  1  0.35842400  0.85280800  0.96546400  1
  C  1059  1  0.35780400  0.85575300  0.98226100  1
  C  1072  1  0.37115600  0.81692300  0.00047500  1
  C  1073  1  0.36605400  0.83092800  0.05965800  1
  C  1074  1  0.36527800  0.83509600  0.94235300  1
  C  1075  1  0.43281100  0.81782500  0.00027800  1
  C  1076  1  0.32116400  0.78093300  0.00020900  1
  C  1081  1  0.46133600  0.99063100  0.18268400  1
  C  1082  1  0.46928200  0.00485200  0.17749600  1
  C  1083  1  0.48631700  0.00561800  0.17760200  1
  C  1084  1  0.49591400  0.99236000  0.18309100  1
  C  1085  1  0.48792100  0.97794200  0.18869400  1
  C  1086  1  0.47066200  0.97751300  0.18850700  1
  C  1088  1  0.51323800  0.99422700  0.18286300  1
  C  1089  1  0.52062500  0.00857800  0.18896100  1
  C  1090  1  0.53759300  0.01060400  0.18868500  1
  C  1091  1  0.54765400  0.99837900  0.18217200  1
  C  1092  1  0.54051600  0.98398500  0.17612900  1
  C  1093  1  0.52350700  0.98206900  0.17626100  1
  C  1105  1  0.46134800  0.00021100  0.81813400  1
  C  1106  1  0.46929500  0.98599100  0.82332100  1
  C  1107  1  0.48633100  0.98522600  0.82321500  1
  C  1108  1  0.49592800  0.99848300  0.81772600  1
  C  1109  1  0.48793200  0.01290000  0.81212400  1
  C  1110  1  0.47067300  0.01332900  0.81231100  1
  C  1112  1  0.51325000  0.99661700  0.81795300  1
  C  1113  1  0.52063800  0.98226500  0.81185500  1
  C  1114  1  0.53760700  0.98023900  0.81213200  1
  C  1115  1  0.54766600  0.99246400  0.81864700  1
  C  1116  1  0.54052800  0.00685800  0.82468800  1
  C  1117  1  0.52351800  0.00877500  0.82455500  1
  C  1129  1  0.00941300  0.17771900  0.54366800  1
  C  1130  1  0.99519300  0.17253200  0.53572100  1
  C  1131  1  0.99442800  0.17263800  0.51868500  1
  C  1132  1  0.00768500  0.17812800  0.50908800  1
  C  1133  1  0.02210400  0.18373000  0.51708300  1
  C  1134  1  0.02253200  0.18354300  0.53434200  1
  C  1136  1  0.00581800  0.17790400  0.49176500  1
  C  1137  1  0.99146500  0.18400400  0.48438100  1
  C  1138  1  0.98943600  0.18372900  0.46741200  1
  C  1139  1  0.00166000  0.17721800  0.45734900  1
  C  1140  1  0.01605800  0.17117800  0.46448300  1
  C  1141  1  0.01797700  0.17130600  0.48149200  1
  C  1153  1  0.99981900  0.81312900  0.54366900  1
  C  1154  1  0.01404000  0.81831700  0.53572100  1
  C  1155  1  0.01480500  0.81821000  0.51868500  1
  C  1156  1  0.00154700  0.81272000  0.50908900  1
  C  1157  1  0.98713000  0.80712000  0.51708500  1
  C  1158  1  0.98670000  0.80730600  0.53434400  1
  C  1160  1  0.00341400  0.81294900  0.49176600  1
  C  1161  1  0.01776600  0.80685100  0.48437900  1
  C  1162  1  0.01979100  0.80712700  0.46740900  1
  C  1163  1  0.00756500  0.81364300  0.45735000  1
  C  1164  1  0.99317000  0.81968400  0.46448900  1
  C  1165  1  0.99125400  0.81955200  0.48149800  1
  C  1177  1  0.82231700  0.53867500  0.99558300  1
  C  1178  1  0.82750400  0.53072900  0.00980600  1
  C  1179  1  0.82739900  0.51369500  0.01057100  1
  C  1180  1  0.82191000  0.50409900  0.99731300  1
  C  1181  1  0.81630700  0.51209300  0.98289500  1
  C  1182  1  0.81649400  0.52935100  0.98246600  1
  C  1184  1  0.82213800  0.48677700  0.99917900  1
  C  1185  1  0.81604000  0.47938900  0.01353200  1
  C  1186  1  0.81631500  0.46242200  0.01555800  1
  C  1187  1  0.82282900  0.45236300  0.00333200  1
  C  1188  1  0.82887100  0.45950100  0.98893600  1
  C  1189  1  0.82874000  0.47650900  0.98702000  1
  C  1201  1  0.18686700  0.53866200  0.00517800  1
  C  1202  1  0.18168000  0.53071600  0.99095600  1
  C  1203  1  0.18178400  0.51368200  0.99019200  1
  C  1204  1  0.18727500  0.50408500  0.00345000  1
  C  1205  1  0.19287700  0.51208000  0.01786700  1
  C  1206  1  0.19269000  0.52933700  0.01829600  1
  C  1208  1  0.18704700  0.48676400  0.00158300  1
  C  1209  1  0.19314600  0.47937800  0.98723100  1
  C  1210  1  0.19286900  0.46241000  0.98520500  1
  C  1211  1  0.18635400  0.45235100  0.99742900  1
  C  1212  1  0.18031300  0.45948800  0.01182600  1
  C  1213  1  0.18044500  0.47649600  0.01374200  1
  C  1225  1  0.00942400  0.53868900  0.81811500  1
  C  1226  1  0.99520900  0.53073400  0.82331400  1
  C  1227  1  0.99444900  0.51369600  0.82322300  1
  C  1228  1  0.00770600  0.50409100  0.81774300  1
  C  1229  1  0.02212000  0.51209200  0.81213800  1
  C  1230  1  0.02254400  0.52935300  0.81230700  1
  C  1232  1  0.00584000  0.48676100  0.81797000  1
  C  1233  1  0.99148900  0.47937100  0.81187300  1
  C  1234  1  0.98946900  0.46240000  0.81212600  1
  C  1235  1  0.00169800  0.45232500  0.81861500  1
  C  1236  1  0.01608700  0.45946800  0.82466800  1
  C  1237  1  0.01800100  0.47648000  0.82455400  1
  C  1249  1  0.99984100  0.53870300  0.18272300  1
  C  1250  1  0.01405600  0.53075100  0.17752400  1
  C  1251  1  0.01481800  0.51371200  0.17761500  1
  C  1252  1  0.00156000  0.50410600  0.18309400  1
  C  1253  1  0.98714500  0.51210700  0.18870000  1
  C  1254  1  0.98672100  0.52936800  0.18853000  1
  C  1256  1  0.00342600  0.48677600  0.18286400  1
  C  1257  1  0.01777700  0.47938100  0.18896000  1
  C  1258  1  0.01979400  0.46240900  0.18870500  1
  C  1259  1  0.00756300  0.45234000  0.18221300  1
  C  1260  1  0.99317500  0.45948700  0.17616000  1
  C  1261  1  0.99126500  0.47650000  0.17627600  1
  C  1273  1  0.82228400  0.99066200  0.45713200  1
  C  1274  1  0.82748400  0.00487600  0.46508600  1
  C  1275  1  0.82739400  0.00563600  0.48212500  1
  C  1276  1  0.82191500  0.99238000  0.49173200  1
  C  1277  1  0.81631000  0.97796600  0.48373100  1
  C  1278  1  0.81647900  0.97754200  0.46647000  1
  C  1280  1  0.82214700  0.99424500  0.50906400  1
  C  1281  1  0.81605100  0.00859500  0.51645800  1
  C  1282  1  0.81630500  0.01061100  0.53343200  1
  C  1283  1  0.82279900  0.99838000  0.54350100  1
  C  1284  1  0.82885100  0.98399400  0.53635500  1
  C  1285  1  0.82873400  0.98208300  0.51934100  1
  C  1297  1  0.18689500  0.00015000  0.45713500  1
  C  1298  1  0.18169700  0.98593500  0.46508900  1
  C  1299  1  0.18178900  0.98517400  0.48213000  1
  C  1300  1  0.18726800  0.99843000  0.49173400  1
  C  1301  1  0.19287200  0.01284400  0.48373200  1
  C  1302  1  0.19270200  0.01326900  0.46647100  1
  C  1304  1  0.18703800  0.99656400  0.50906600  1
  C  1305  1  0.19313500  0.98221400  0.51645900  1
  C  1306  1  0.19288000  0.98019700  0.53343300  1
  C  1307  1  0.18638700  0.99242600  0.54350400  1
  C  1308  1  0.18033400  0.00681400  0.53635700  1
  C  1309  1  0.18045100  0.00872500  0.51934400  1
  C  1321  1  0.46132100  0.17774600  0.00515000  1
  C  1322  1  0.46927500  0.17254700  0.99093600  1
  C  1323  1  0.48631400  0.17263800  0.99017500  1
  C  1324  1  0.49592000  0.17811800  0.00343200  1
  C  1325  1  0.48791800  0.18372200  0.01784600  1
  C  1326  1  0.47065500  0.18355100  0.01827000  1
  C  1328  1  0.51325200  0.17789100  0.00156500  1
  C  1329  1  0.52064300  0.18398800  0.98721300  1
  C  1330  1  0.53761600  0.18373600  0.98519400  1
  C  1331  1  0.54769000  0.17724700  0.99742200  1
  C  1332  1  0.54054700  0.17119400  0.01181300  1
  C  1333  1  0.52353300  0.17130700  0.01372600  1
  C  1345  1  0.46131700  0.81309500  0.99557900  1
  C  1346  1  0.46927000  0.81829300  0.00979400  1
  C  1347  1  0.48631100  0.81820200  0.01055500  1
  C  1348  1  0.49591700  0.81272300  0.99729800  1
  C  1349  1  0.48791600  0.80711900  0.98288400  1
  C  1350  1  0.47065300  0.80728800  0.98246000  1
  C  1352  1  0.51324900  0.81295500  0.99916400  1
  C  1353  1  0.52064100  0.80685900  0.01351500  1
  C  1354  1  0.53761500  0.80711300  0.01553200  1
  C  1355  1  0.54768500  0.81360600  0.00330100  1
  C  1356  1  0.54053900  0.81965900  0.98891300  1
  C  1357  1  0.52352600  0.81954200  0.98700300  1
  C  1369  1  0.70638800  0.99057600  0.23765700  1
  C  1370  1  0.71632900  0.00442200  0.23881800  1
  C  1371  1  0.72818800  0.00534000  0.25103900  1
  C  1372  1  0.73026700  0.99265400  0.26256900  1
  C  1373  1  0.71989300  0.97870200  0.26173900  1
  C  1374  1  0.70800600  0.97809700  0.24925500  1
  C  1376  1  0.74277300  0.99454500  0.27451700  1
  C  1377  1  0.74455200  0.00940400  0.28309100  1
  C  1378  1  0.75696000  0.01149700  0.29464000  1
  C  1379  1  0.76801300  0.99882500  0.29782600  1
  C  1380  1  0.76636600  0.98391700  0.28949100  1
  C  1381  1  0.75403600  0.98192200  0.27778700  1
  C  1393  1  0.30276300  0.00025100  0.23765400  1
  C  1394  1  0.29282800  0.98640100  0.23882100  1
  C  1395  1  0.28097600  0.98548000  0.25104600  1
  C  1396  1  0.27890200  0.99816600  0.26257800  1
  C  1397  1  0.28927400  0.01211900  0.26174500  1
  C  1398  1  0.30115400  0.01272700  0.24925500  1
  C  1400  1  0.26639800  0.99627400  0.27452600  1
  C  1401  1  0.26462100  0.98141400  0.28310000  1
  C  1402  1  0.25221100  0.97931800  0.29464600  1
  C  1403  1  0.24115700  0.99199000  0.29782800  1
  C  1404  1  0.24280200  0.00690000  0.28949500  1
  C  1405  1  0.25513400  0.00889600  0.27779300  1
  C  1417  1  0.70641300  0.00027000  0.76316200  1
  C  1418  1  0.71635800  0.98642700  0.76199500  1
  C  1419  1  0.72821400  0.98551200  0.74977200  1
  C  1420  1  0.73028800  0.99820000  0.73824300  1
  C  1421  1  0.71991100  0.01215000  0.73907800  1
  C  1422  1  0.70802400  0.01275000  0.75156300  1
  C  1424  1  0.74279200  0.99631000  0.72629000  1
  C  1425  1  0.74457000  0.98145100  0.71771500  1
  C  1426  1  0.75697400  0.97935900  0.70616000  1
  C  1427  1  0.76802300  0.99203200  0.70296700  1
  C  1428  1  0.76637900  0.00694000  0.71130700  1
  C  1429  1  0.75405400  0.00893300  0.72301600  1
  C  1441  1  0.30277200  0.99059000  0.76315700  1
  C  1442  1  0.29283700  0.00444000  0.76198800  1
  C  1443  1  0.28098600  0.00536200  0.74976100  1
  C  1444  1  0.27890900  0.99267500  0.73823400  1
  C  1445  1  0.28928100  0.97872000  0.73906800  1
  C  1446  1  0.30116200  0.97811300  0.75155700  1
  C  1448  1  0.26639700  0.99456200  0.72629100  1
  C  1449  1  0.26460900  0.00941800  0.71771000  1
  C  1450  1  0.25219900  0.01149800  0.70616000  1
  C  1451  1  0.24115300  0.99881800  0.70298400  1
  C  1452  1  0.24280500  0.98391800  0.71133400  1
  C  1453  1  0.25513700  0.98193500  0.72303600  1
  C  1465  1  0.00946600  0.23270000  0.29861400  1
  C  1466  1  0.99562000  0.23386200  0.28867200  1
  C  1467  1  0.99470100  0.24608300  0.27681200  1
  C  1468  1  0.00738800  0.25761100  0.27473200  1
  C  1469  1  0.02134000  0.25677900  0.28510700  1
  C  1470  1  0.02194500  0.24429700  0.29699500  1
  C  1472  1  0.00549600  0.26956200  0.26222400  1
  C  1473  1  0.99063600  0.27813500  0.26044500  1
  C  1474  1  0.98854500  0.28969100  0.24804100  1
  C  1475  1  0.00122000  0.29288500  0.23699300  1
  C  1476  1  0.01612800  0.28454500  0.23863700  1
  C  1477  1  0.01812000  0.27283500  0.25096200  1
  C  1489  1  0.99979500  0.23269000  0.70224500  1
  C  1490  1  0.01364400  0.23385700  0.71218000  1
  C  1491  1  0.01456400  0.24608100  0.72403400  1
  C  1492  1  0.00187600  0.25761000  0.72611000  1
  C  1493  1  0.98792300  0.25677600  0.71573700  1
  C  1494  1  0.98731700  0.24428900  0.70385500  1
  C  1496  1  0.00376700  0.26955900  0.73861500  1
  C  1497  1  0.01862800  0.27813200  0.74039300  1
  C  1498  1  0.02072000  0.28968400  0.75279800  1
  C  1499  1  0.00804600  0.29287700  0.76384700  1
  C  1500  1  0.99313700  0.28453700  0.76220400  1
  C  1501  1  0.99114400  0.27283000  0.74987800  1
  C  1513  1  0.99975400  0.75816400  0.29861800  1
  C  1514  1  0.01360100  0.75700200  0.28867700  1
  C  1515  1  0.01452000  0.74478300  0.27681700  1
  C  1516  1  0.00183400  0.73325400  0.27474000  1
  C  1517  1  0.98788100  0.73408400  0.28511300  1
  C  1518  1  0.98727500  0.74656700  0.29700100  1
  C  1520  1  0.00372500  0.72130600  0.26223200  1
  C  1521  1  0.01858600  0.71273100  0.26045400  1
  C  1522  1  0.02067900  0.70118400  0.24804500  1
  C  1523  1  0.00800600  0.69799900  0.23699300  1
  C  1524  1  0.99309600  0.70633500  0.23864100  1
  C  1525  1  0.99110200  0.71803700  0.25096900  1
  C  1537  1  0.00944800  0.75815400  0.70223600  1
  C  1538  1  0.99559600  0.75698700  0.71216800  1
  C  1539  1  0.99467300  0.74476400  0.72402200  1
  C  1540  1  0.00735900  0.73323400  0.72609900  1
  C  1541  1  0.02131500  0.73406600  0.71572800  1
  C  1542  1  0.02192500  0.74655400  0.70384800  1
  C  1544  1  0.00547000  0.72129100  0.73860900  1
  C  1545  1  0.99061200  0.71271400  0.74039100  1
  C  1546  1  0.98852400  0.70117000  0.75280400  1
  C  1547  1  0.00119900  0.69799400  0.76385700  1
  C  1548  1  0.01610600  0.70633300  0.76220400  1
  C  1549  1  0.01809500  0.71803200  0.74987200  1
  C  1561  1  0.76733900  0.29363600  0.99552700  1
  C  1562  1  0.76617600  0.28369500  0.00937300  1
  C  1563  1  0.75395600  0.27183600  0.01029100  1
  C  1564  1  0.74242700  0.26975500  0.99760400  1
  C  1565  1  0.74325900  0.28013100  0.98365200  1
  C  1566  1  0.75574200  0.29201800  0.98304800  1
  C  1568  1  0.73047800  0.25724800  0.99949400  1
  C  1569  1  0.72190200  0.25546800  0.01435500  1
  C  1570  1  0.71034600  0.24306600  0.01644500  1
  C  1571  1  0.70715100  0.23201900  0.00377000  1
  C  1572  1  0.71549300  0.23366400  0.98886300  1
  C  1573  1  0.72720300  0.24598800  0.98687000  1
  C  1585  1  0.76734300  0.69724100  0.00520700  1
  C  1586  1  0.76617400  0.70717600  0.99135700  1
  C  1587  1  0.75394800  0.71902800  0.99043800  1
  C  1588  1  0.74241800  0.72110400  0.00312500  1
  C  1589  1  0.74325200  0.71073000  0.01707800  1
  C  1590  1  0.75574200  0.69885000  0.01768500  1
  C  1592  1  0.73046800  0.73360800  0.00123400  1
  C  1593  1  0.72189300  0.73538600  0.98637300  1
  C  1594  1  0.71034100  0.74779000  0.98428100  1
  C  1595  1  0.70715000  0.75883900  0.99695500  1
  C  1596  1  0.71548900  0.75719500  0.01186300  1
  C  1597  1  0.72719800  0.74487000  0.01385700  1
  C  1609  1  0.24183400  0.29361800  0.00523400  1
  C  1610  1  0.24299900  0.28367600  0.99138900  1
  C  1611  1  0.25522200  0.27182200  0.99047200  1
  C  1612  1  0.26675300  0.26975000  0.00315800  1
  C  1613  1  0.26592000  0.28012400  0.01711100  1
  C  1614  1  0.25343300  0.29200700  0.01771300  1
  C  1616  1  0.27870200  0.25724600  0.00126800  1
  C  1617  1  0.28727700  0.25546700  0.98640700  1
  C  1618  1  0.29882200  0.24305700  0.98431500  1
  C  1619  1  0.30200200  0.23200400  0.99698800  1
  C  1620  1  0.29366700  0.23365200  0.01189700  1
  C  1621  1  0.28196700  0.24598300  0.01389200  1
  C  1633  1  0.24184100  0.69722700  0.99555600  1
  C  1634  1  0.24300800  0.70716100  0.00940600  1
  C  1635  1  0.25523300  0.71901200  0.01032600  1
  C  1636  1  0.26676300  0.72108700  0.99763800  1
  C  1637  1  0.26593000  0.71071700  0.98368500  1
  C  1638  1  0.25344100  0.69883600  0.98307800  1
  C  1640  1  0.27871100  0.73359200  0.99952800  1
  C  1641  1  0.28728600  0.73537200  0.01438800  1
  C  1642  1  0.29883300  0.74778100  0.01647800  1
  C  1643  1  0.30201500  0.75883200  0.00380400  1
  C  1644  1  0.29367700  0.75718400  0.98889600  1
  C  1645  1  0.28197400  0.74485500  0.98690400  1
  C  1657  1  0.64564000  0.13965000  0.08378500  1
  C  1658  1  0.65119100  0.12382100  0.08065800  1
  C  1659  1  0.65152700  0.11220100  0.09301800  1
  C  1660  1  0.64677600  0.11610800  0.10909800  1
  C  1661  1  0.64146400  0.13228100  0.11265000  1
  C  1662  1  0.64086500  0.14379500  0.09973700  1
  C  1664  1  0.64786200  0.10354800  0.12105400  1
  C  1665  1  0.66179900  0.09341600  0.12167600  1
  C  1666  1  0.66256000  0.08024100  0.13243600  1
  C  1667  1  0.64978200  0.07741600  0.14344200  1
  C  1668  1  0.63592700  0.08748800  0.14328300  1
  C  1669  1  0.63492200  0.10029400  0.13197500  1
  C  1681  1  0.36352900  0.85118100  0.08377300  1
  C  1682  1  0.35796600  0.86700800  0.08065200  1
  C  1683  1  0.35762500  0.87862100  0.09301700  1
  C  1684  1  0.36237900  0.87470700  0.10909400  1
  C  1685  1  0.36769600  0.85853400  0.11264000  1
  C  1686  1  0.36830400  0.84702800  0.09972200  1
  C  1688  1  0.36129800  0.88725900  0.12105600  1
  C  1689  1  0.34736900  0.89740100  0.12168900  1
  C  1690  1  0.34662900  0.91057700  0.13245000  1
  C  1691  1  0.35941800  0.91338400  0.14344800  1
  C  1692  1  0.37326000  0.90329600  0.14328400  1
  C  1693  1  0.37424800  0.89049800  0.13197000  1
  C  1705  1  0.64566100  0.85119200  0.91699800  1
  C  1706  1  0.65121900  0.86701900  0.92012800  1
  C  1707  1  0.65155200  0.87864100  0.90777300  1
  C  1708  1  0.64679700  0.87473700  0.89169500  1
  C  1709  1  0.64148300  0.85856700  0.88813900  1
  C  1710  1  0.64088200  0.84705000  0.90104800  1
  C  1712  1  0.64788000  0.88729600  0.87974000  1
  C  1713  1  0.66181600  0.89743100  0.87911400  1
  C  1714  1  0.66256700  0.91060600  0.86835500  1
  C  1715  1  0.64978300  0.91342400  0.85735400  1
  C  1716  1  0.63593100  0.90334900  0.85751600  1
  C  1717  1  0.63493400  0.89054700  0.86882600  1
  C  1729  1  0.36353800  0.13965700  0.91700600  1
  C  1730  1  0.35798200  0.12383000  0.92013400  1
  C  1731  1  0.35765300  0.11220800  0.90777800  1
  C  1732  1  0.36240900  0.11611400  0.89170000  1
  C  1733  1  0.36772200  0.13228700  0.88814500  1
  C  1734  1  0.36832000  0.14380100  0.90105600  1
  C  1736  1  0.36132200  0.10355500  0.87974700  1
  C  1737  1  0.34738500  0.09342500  0.87912400  1
  C  1738  1  0.34662300  0.08025000  0.86836700  1
  C  1739  1  0.35940300  0.07742500  0.85736100  1
  C  1740  1  0.37326000  0.08749400  0.85752100  1
  C  1741  1  0.37426400  0.10029900  0.86882700  1
  C  1753  1  0.86038900  0.07882900  0.35936000  1
  C  1754  1  0.87621800  0.07570500  0.35380500  1
  C  1755  1  0.88783600  0.08806600  0.35346900  1
  C  1756  1  0.88392500  0.10414300  0.35822100  1
  C  1757  1  0.86775000  0.10769200  0.36353500  1
  C  1758  1  0.85623800  0.09477800  0.36413700  1
  C  1760  1  0.89648100  0.11610100  0.35713700  1
  C  1761  1  0.90661800  0.11672900  0.34320500  1
  C  1762  1  0.91979400  0.12748900  0.34245500  1
  C  1763  1  0.92260900  0.13849000  0.35523800  1
  C  1764  1  0.91252800  0.13832800  0.36908600  1
  C  1765  1  0.89972600  0.12701700  0.37008300  1
  C  1777  1  0.14886200  0.07880800  0.64147500  1
  C  1778  1  0.13303400  0.07569200  0.64703600  1
  C  1779  1  0.12142200  0.08805900  0.64737500  1
  C  1780  1  0.12533800  0.10413500  0.64262200  1
  C  1781  1  0.14151400  0.10767600  0.63730500  1
  C  1782  1  0.15302000  0.09475600  0.63670000  1
  C  1784  1  0.11278500  0.11609700  0.64370500  1
  C  1785  1  0.10264800  0.11672800  0.65763800  1
  C  1786  1  0.08947300  0.12748700  0.65838700  1
  C  1787  1  0.08665400  0.13848700  0.64560200  1
  C  1788  1  0.09673500  0.13832500  0.63175300  1
  C  1789  1  0.10953900  0.12701400  0.63075900  1
  C  1801  1  0.14882800  0.91200700  0.35935300  1
  C  1802  1  0.13299900  0.91513100  0.35379800  1
  C  1803  1  0.12137900  0.90277400  0.35347000  1
  C  1804  1  0.12528900  0.88669800  0.35822600  1
  C  1805  1  0.14146300  0.88314700  0.36353900  1
  C  1806  1  0.15297600  0.89606000  0.36413700  1
  C  1808  1  0.11273100  0.87474200  0.35713900  1
  C  1809  1  0.10260000  0.87412000  0.34320100  1
  C  1810  1  0.08942400  0.86336300  0.34244000  1
  C  1811  1  0.08659800  0.85235900  0.35522000  1
  C  1812  1  0.09666800  0.85251900  0.36907700  1
  C  1813  1  0.10947400  0.86382400  0.37008200  1
  C  1825  1  0.86036200  0.91202700  0.64147400  1
  C  1826  1  0.87619100  0.91514700  0.64703200  1
  C  1827  1  0.88780600  0.90278300  0.64737300  1
  C  1828  1  0.88389500  0.88670700  0.64262000  1
  C  1829  1  0.86772100  0.88316000  0.63730400  1
  C  1830  1  0.85621200  0.89607800  0.63670000  1
  C  1832  1  0.89645100  0.87474700  0.64370200  1
  C  1833  1  0.90658900  0.87411600  0.65763400  1
  C  1834  1  0.91976500  0.86335600  0.65838300  1
  C  1835  1  0.92258000  0.85235600  0.64559900  1
  C  1836  1  0.91249900  0.85251900  0.63175000  1
  C  1837  1  0.89969700  0.86383000  0.63075600  1
  C  1849  1  0.92121500  0.35438200  0.14461100  1
  C  1850  1  0.92434400  0.34883000  0.12878200  1
  C  1851  1  0.91198500  0.34849300  0.11716100  1
  C  1852  1  0.89590500  0.35324500  0.12106500  1
  C  1853  1  0.89235100  0.35855700  0.13723900  1
  C  1854  1  0.90526200  0.35915600  0.14875600  1
  C  1856  1  0.88395000  0.35215900  0.10850400  1
  C  1857  1  0.88332800  0.33822300  0.09837100  1
  C  1858  1  0.87256800  0.33746400  0.08519600  1
  C  1859  1  0.86156100  0.35024000  0.08237200  1
  C  1860  1  0.86172000  0.36409500  0.09244400  1
  C  1861  1  0.87302800  0.36509900  0.10524900  1
  C  1873  1  0.92122200  0.63648500  0.85614000  1
  C  1874  1  0.92433600  0.64205200  0.87196700  1
  C  1875  1  0.91196800  0.64238800  0.88357700  1
  C  1876  1  0.89589400  0.63763100  0.87965900  1
  C  1877  1  0.89235400  0.63231300  0.86348500  1
  C  1878  1  0.90527600  0.63170600  0.85198100  1
  C  1880  1  0.88393000  0.63871200  0.89220900  1
  C  1881  1  0.88329400  0.65264200  0.90234800  1
  C  1882  1  0.87253500  0.65338000  0.91552600  1
  C  1883  1  0.86154100  0.64059100  0.91833600  1
  C  1884  1  0.86170600  0.62674800  0.90825000  1
  C  1885  1  0.87301900  0.62576100  0.89545000  1
  C  1897  1  0.08801100  0.35435700  0.85616200  1
  C  1898  1  0.08488300  0.34879700  0.87198900  1
  C  1899  1  0.09723900  0.34847000  0.88361000  1
  C  1900  1  0.11331600  0.35322700  0.87970200  1
  C  1901  1  0.11686900  0.35854300  0.86353000  1
  C  1902  1  0.10395700  0.35914300  0.85201600  1
  C  1904  1  0.12527000  0.35214400  0.89225900  1
  C  1905  1  0.12589900  0.33820700  0.90239200  1
  C  1906  1  0.13665500  0.33745700  0.91556900  1
  C  1907  1  0.14765400  0.35024200  0.91838600  1
  C  1908  1  0.14749100  0.36409400  0.90831100  1
  C  1909  1  0.13618200  0.36509100  0.89550900  1
  C  1921  1  0.08799300  0.63646500  0.14463700  1
  C  1922  1  0.08486600  0.64201700  0.12880700  1
  C  1923  1  0.09722400  0.64234600  0.11718500  1
  C  1924  1  0.11330200  0.63759100  0.12109300  1
  C  1925  1  0.11685400  0.63228000  0.13726700  1
  C  1926  1  0.10394200  0.63168300  0.14878200  1
  C  1928  1  0.12525600  0.63867900  0.10853300  1
  C  1929  1  0.12587900  0.65261700  0.09840300  1
  C  1930  1  0.13663700  0.65337900  0.08522600  1
  C  1931  1  0.14764100  0.64060000  0.08240100  1
  C  1932  1  0.14748100  0.62674300  0.09247000  1
  C  1933  1  0.13617400  0.62573900  0.10527700  1
  C  1945  1  0.86037900  0.35439500  0.91697200  1
  C  1946  1  0.87621200  0.34884900  0.92009700  1
  C  1947  1  0.88782800  0.34850900  0.90773300  1
  C  1948  1  0.88391600  0.35325400  0.89165400  1
  C  1949  1  0.86774200  0.35856700  0.88810500  1
  C  1950  1  0.85622900  0.35916800  0.90102000  1
  C  1952  1  0.89647200  0.35216600  0.87969400  1
  C  1953  1  0.90660300  0.33822800  0.87907000  1
  C  1954  1  0.91978300  0.33747200  0.86831600  1
  C  1955  1  0.92260900  0.35025600  0.85731700  1
  C  1956  1  0.91253300  0.36410700  0.85747200  1
  C  1957  1  0.89972600  0.36510700  0.86877600  1
  C  1969  1  0.14881000  0.63645400  0.91700700  1
  C  1970  1  0.13297800  0.64200100  0.92013400  1
  C  1971  1  0.12135700  0.64233300  0.90777500  1
  C  1972  1  0.12526900  0.63758300  0.89169800  1
  C  1973  1  0.14144400  0.63227500  0.88814300  1
  C  1974  1  0.15295800  0.63167700  0.90105600  1
  C  1976  1  0.11271400  0.63867300  0.87974000  1
  C  1977  1  0.10259500  0.65261900  0.87911000  1
  C  1978  1  0.08943400  0.65339100  0.86833400  1
  C  1979  1  0.08661600  0.64061800  0.85732400  1
  C  1980  1  0.09667100  0.62675000  0.85749600  1
  C  1981  1  0.10946100  0.62573400  0.86882000  1
  C  1993  1  0.14880500  0.35437500  0.08379300  1
  C  1994  1  0.13297400  0.34882700  0.08066700  1
  C  1995  1  0.12135400  0.34849100  0.09302800  1
  C  1996  1  0.12526400  0.35324100  0.10910600  1
  C  1997  1  0.14143900  0.35855000  0.11265800  1
  C  1998  1  0.15295200  0.35914900  0.09974400  1
  C  2000  1  0.11270500  0.35215500  0.12106400  1
  C  2001  1  0.10257600  0.33821700  0.12169300  1
  C  2002  1  0.08941000  0.33745200  0.13246200  1
  C  2003  1  0.08659200  0.35022800  0.14347300  1
  C  2004  1  0.09665800  0.36408600  0.14330400  1
  C  2005  1  0.10945400  0.36509400  0.13198500  1
  C  2017  1  0.86039000  0.63646600  0.08376300  1
  C  2018  1  0.87622000  0.64201900  0.08063900  1
  C  2019  1  0.88783800  0.64235500  0.09300100  1
  C  2020  1  0.88392700  0.63760300  0.10907800  1
  C  2021  1  0.86775200  0.63229100  0.11262800  1
  C  2022  1  0.85624000  0.63169100  0.09971400  1
  C  2024  1  0.89648300  0.63868300  0.12103700  1
  C  2025  1  0.90662200  0.65261500  0.12166700  1
  C  2026  1  0.91979200  0.65336500  0.13243400  1
  C  2027  1  0.92259900  0.64058400  0.14344200  1
  C  2028  1  0.91252100  0.62673500  0.14327300  1
  C  2029  1  0.89972600  0.62573800  0.13195500  1
  C  2041  1  0.92123300  0.13964500  0.64146500  1
  C  2042  1  0.92435800  0.12381600  0.64701900  1
  C  2043  1  0.91199700  0.11219700  0.64735200  1
  C  2044  1  0.89591900  0.11610500  0.64260000  1
  C  2045  1  0.89236800  0.13227900  0.63728800  1
  C  2046  1  0.90528200  0.14379200  0.63668900  1
  C  2048  1  0.88396200  0.10354500  0.64368400  1
  C  2049  1  0.88333800  0.09341000  0.65761900  1
  C  2050  1  0.87257600  0.08023700  0.65837800  1
  C  2051  1  0.86157000  0.07741600  0.64560000  1
  C  2052  1  0.86173200  0.08749000  0.63174500  1
  C  2053  1  0.87304100  0.10029400  0.63074300  1
  C  2065  1  0.92120400  0.85119400  0.35937300  1
  C  2066  1  0.92432600  0.86702600  0.35382200  1
  C  2067  1  0.91196000  0.87863900  0.35348000  1
  C  2068  1  0.89588200  0.87472600  0.35822700  1
  C  2069  1  0.89233500  0.85855200  0.36354100  1
  C  2070  1  0.90525200  0.84704300  0.36414300  1
  C  2072  1  0.88392000  0.88728000  0.35714400  1
  C  2073  1  0.88328900  0.89741900  0.34321200  1
  C  2074  1  0.87253000  0.91059700  0.34246800  1
  C  2075  1  0.86153100  0.91341000  0.35525600  1
  C  2076  1  0.86169200  0.90332500  0.36910100  1
  C  2077  1  0.87300400  0.89052300  0.37009100  1
  C  2089  1  0.08799700  0.85118900  0.64146500  1
  C  2090  1  0.08487200  0.86701800  0.64701900  1
  C  2091  1  0.09723400  0.87863500  0.64735400  1
  C  2092  1  0.11331100  0.87472400  0.64260500  1
  C  2093  1  0.11686100  0.85855000  0.63729200  1
  C  2094  1  0.10394700  0.84703900  0.63669000  1
  C  2096  1  0.12527000  0.88727700  0.64369000  1
  C  2097  1  0.12590200  0.89740700  0.65762700  1
  C  2098  1  0.13666900  0.91057600  0.65838200  1
  C  2099  1  0.14767200  0.91339000  0.64559900  1
  C  2100  1  0.14750600  0.90331900  0.63174500  1
  C  2101  1  0.13618900  0.89052400  0.63074400  1
  C  2113  1  0.08802800  0.13965900  0.35937600  1
  C  2114  1  0.08490400  0.12382900  0.35382700  1
  C  2115  1  0.09726500  0.11221100  0.35349000  1
  C  2116  1  0.11334500  0.11611800  0.35823700  1
  C  2117  1  0.11689500  0.13229100  0.36354800  1
  C  2118  1  0.10398100  0.14380500  0.36414900  1
  C  2120  1  0.12530200  0.10355900  0.35714500  1
  C  2121  1  0.12592000  0.09342900  0.34320700  1
  C  2122  1  0.13667000  0.08024500  0.34244500  1
  C  2123  1  0.14767100  0.07740700  0.35522500  1
  C  2124  1  0.14752000  0.08748100  0.36907900  1
  C  2125  1  0.13622300  0.10029600  0.37008300  1
  C  2137  1  0.64564700  0.07882000  0.85619500  1
  C  2138  1  0.65119700  0.07569400  0.87202600  1
  C  2139  1  0.65153600  0.08805500  0.88364400  1
  C  2140  1  0.64678500  0.10413200  0.87973200  1
  C  2141  1  0.64147500  0.10768300  0.86355700  1
  C  2142  1  0.64087500  0.09477000  0.85204500  1
  C  2144  1  0.64786900  0.11609100  0.89228700  1
  C  2145  1  0.66180400  0.11672400  0.90242000  1
  C  2146  1  0.66255800  0.12749600  0.91558400  1
  C  2147  1  0.64977800  0.13850400  0.91839100  1
  C  2148  1  0.63592400  0.13833200  0.90831800  1
  C  2149  1  0.63492300  0.12700800  0.89552800  1
  C  2161  1  0.36353700  0.07880500  0.14461100  1
  C  2162  1  0.35798600  0.07568100  0.12878100  1
  C  2163  1  0.35765300  0.08804100  0.11716200  1
  C  2164  1  0.36240500  0.10411800  0.12107000  1
  C  2165  1  0.36771500  0.10766800  0.13724500  1
  C  2166  1  0.36831400  0.09475400  0.14875900  1
  C  2168  1  0.36131900  0.11607500  0.10851000  1
  C  2169  1  0.34738300  0.11670000  0.09837700  1
  C  2170  1  0.34662200  0.12746400  0.08520500  1
  C  2171  1  0.35939900  0.13847100  0.08238300  1
  C  2172  1  0.37325600  0.13830600  0.09245400  1
  C  2173  1  0.37426000  0.12699500  0.10525700  1
  C  2185  1  0.64562900  0.91202400  0.14461100  1
  C  2186  1  0.65117900  0.91514800  0.12878000  1
  C  2187  1  0.65151600  0.90278800  0.11716100  1
  C  2188  1  0.64676600  0.88671000  0.12106800  1
  C  2189  1  0.64145500  0.88315900  0.13724300  1
  C  2190  1  0.64085700  0.89607200  0.14875800  1
  C  2192  1  0.64785100  0.87475400  0.10850700  1
  C  2193  1  0.66178600  0.87413200  0.09837100  1
  C  2194  1  0.66254600  0.86337500  0.08519400  1
  C  2195  1  0.64976800  0.85236900  0.08237100  1
  C  2196  1  0.63591400  0.85252700  0.09244500  1
  C  2197  1  0.63491200  0.86383300  0.10525300  1
  C  2209  1  0.36354800  0.91204300  0.85619400  1
  C  2210  1  0.35799800  0.91516600  0.87202500  1
  C  2211  1  0.35766500  0.90280600  0.88364300  1
  C  2212  1  0.36241700  0.88673000  0.87973000  1
  C  2213  1  0.36772700  0.88318000  0.86355400  1
  C  2214  1  0.36832500  0.89609300  0.85204200  1
  C  2216  1  0.36133400  0.87477100  0.89228300  1
  C  2217  1  0.34739700  0.87413500  0.90241600  1
  C  2218  1  0.34664100  0.86335700  0.91557600  1
  C  2219  1  0.35942100  0.85234700  0.91837600  1
  C  2220  1  0.37327800  0.85252400  0.90830700  1
  C  2221  1  0.37428100  0.86385400  0.89552300  1
  N  1100  1  0.49704400  0.96432500  0.19455000  1
  N  1103  1  0.56336600  0.99940300  0.18517400  1
  N  1104  1  0.44557000  0.99038700  0.18550500  1
  N  1124  1  0.49705500  0.02651700  0.80626600  1
  N  1127  1  0.56337900  0.99144000  0.81564500  1
  N  1128  1  0.44558400  0.00044800  0.81530400  1
  N  1148  1  0.03572000  0.18958900  0.50796000  1
  N  1151  1  0.00061500  0.18020300  0.44163300  1
  N  1152  1  0.00965100  0.18054600  0.55943200  1
  N  1172  1  0.97351200  0.80126200  0.50796300  1
  N  1175  1  0.00858600  0.81063900  0.44163700  1
  N  1176  1  0.99958100  0.81030200  0.55943400  1
  N  1196  1  0.81045000  0.50297200  0.96927700  1
  N  1199  1  0.81982600  0.43665200  0.00435500  1
  N  1200  1  0.81949500  0.55444100  0.99534000  1
  N  1220  1  0.19873500  0.50295600  0.03148500  1
  N  1223  1  0.18935500  0.43663900  0.99640500  1
  N  1224  1  0.18969500  0.55442500  0.00541500  1
  N  1244  1  0.03574000  0.50297000  0.80628400  1
  N  1247  1  0.00065800  0.43660600  0.81560600  1
  N  1248  1  0.00965800  0.55445700  0.81526200  1
  N  1268  1  0.97352600  0.50298400  0.19455200  1
  N  1271  1  0.00858000  0.43662300  0.18523900  1
  N  1272  1  0.99960500  0.55447200  0.18557500  1
  N  1292  1  0.81045900  0.96434700  0.49285600  1
  N  1295  1  0.81977500  0.99939900  0.55922000  1
  N  1296  1  0.81943800  0.99042100  0.44136000  1
  N  1316  1  0.19872700  0.02646200  0.49285600  1
  N  1319  1  0.18941200  0.99140700  0.55922100  1
  N  1320  1  0.18974700  0.00038500  0.44136500  1
  N  1340  1  0.49704000  0.18957500  0.03146500  1
  N  1343  1  0.56341100  0.18025600  0.99638300  1
  N  1344  1  0.44555000  0.18059700  0.00538500  1
  N  1364  1  0.49703900  0.80126700  0.96926500  1
  N  1367  1  0.56340300  0.81058200  0.00431900  1
  N  1368  1  0.44554600  0.81024200  0.99534600  1
  N  1388  1  0.72124500  0.96573800  0.27328600  1
  N  1391  1  0.77622900  0.99975600  0.31149600  1
  N  1392  1  0.69297800  0.99060500  0.22901400  1
  N  1412  1  0.28792700  0.02508200  0.27329400  1
  N  1415  1  0.23294100  0.99105800  0.31149700  1
  N  1416  1  0.31616300  0.00022300  0.22900100  1
  N  1436  1  0.72125600  0.02511500  0.72753100  1
  N  1439  1  0.77622800  0.99110300  0.68928900  1
  N  1440  1  0.69298900  0.00020700  0.77178000  1
  N  1460  1  0.28793300  0.96575500  0.72752200  1
  N  1463  1  0.23299100  0.99969000  0.68928000  1
  N  1464  1  0.31617200  0.99061700  0.77181100  1
  N  1484  1  0.03430600  0.26832700  0.28375700  1
  N  1487  1  0.00029100  0.30656300  0.22878800  1
  N  1488  1  0.00943600  0.22405900  0.31202400  1
  N  1508  1  0.97495700  0.26832300  0.71708400  1
  N  1511  1  0.00897400  0.30655500  0.77204700  1
  N  1512  1  0.99982400  0.22403600  0.68884500  1
  N  1532  1  0.97491600  0.72253800  0.28376200  1
  N  1535  1  0.00893600  0.68433100  0.22877800  1
  N  1536  1  0.99978400  0.76680400  0.31202800  1
  N  1556  1  0.03428100  0.72251900  0.71708100  1
  N  1559  1  0.00029000  0.68431800  0.77206000  1
  N  1560  1  0.00943800  0.76682100  0.68884400  1
  N  1580  1  0.73171200  0.27878000  0.97068700  1
  N  1583  1  0.69347100  0.22381700  0.00469900  1
  N  1584  1  0.77598200  0.30704600  0.99555600  1
  N  1604  1  0.73170400  0.71207600  0.03004400  1
  N  1607  1  0.69347000  0.76704000  0.99602700  1
  N  1608  1  0.77599500  0.68384100  0.00517800  1
  N  1628  1  0.27746800  0.27877700  0.03007500  1
  N  1631  1  0.31568100  0.22380400  0.99607300  1
  N  1632  1  0.23321600  0.30704100  0.00517100  1
  N  1652  1  0.27747800  0.71206600  0.97071900  1
  N  1655  1  0.31568400  0.76704900  0.00473100  1
  N  1656  1  0.23318700  0.68382800  0.99558300  1
  N  1676  1  0.63655300  0.13642800  0.12881600  1
  N  1679  1  0.64931000  0.06279500  0.14952700  1
  N  1680  1  0.64432500  0.15011200  0.07171900  1
  N  1700  1  0.37261100  0.85438200  0.12880400  1
  N  1703  1  0.35997300  0.92802500  0.14946500  1
  N  1704  1  0.36485200  0.84072600  0.07170400  1
  N  1724  1  0.63656800  0.85442400  0.87197200  1
  N  1727  1  0.64926700  0.92805700  0.85131100  1
  N  1728  1  0.64434400  0.84073000  0.92906200  1
  N  1748  1  0.37263400  0.13643300  0.87197900  1
  N  1751  1  0.35987600  0.06280400  0.85128200  1
  N  1752  1  0.36485000  0.15011500  0.92907300  1
  N  1772  1  0.86360000  0.12385600  0.36844900  1
  N  1775  1  0.93724200  0.14453300  0.35575800  1
  N  1776  1  0.84992800  0.06676300  0.36067100  1
  N  1796  1  0.14566900  0.12383900  0.63239100  1
  N  1799  1  0.07202200  0.14453700  0.64509000  1
  N  1800  1  0.15930600  0.06672700  0.64014800  1
  N  1820  1  0.14561200  0.86698200  0.36845200  1
  N  1823  1  0.07197600  0.84628000  0.35569400  1
  N  1824  1  0.15928100  0.92407800  0.36066500  1
  N  1844  1  0.86357000  0.86699600  0.63239100  1
  N  1847  1  0.93721400  0.84631200  0.64507500  1
  N  1848  1  0.84990800  0.92410000  0.64015100  1
  N  1868  1  0.87618300  0.36346800  0.14138500  1
  N  1871  1  0.85547600  0.35071400  0.06775000  1
  N  1872  1  0.93327900  0.35570000  0.15507600  1
  N  1892  1  0.87619000  0.62739700  0.85932900  1
  N  1895  1  0.85552600  0.64003800  0.93297900  1
  N  1896  1  0.93330200  0.63515800  0.84570000  1
  N  1916  1  0.13303500  0.36345800  0.85938300  1
  N  1919  1  0.15369400  0.35075900  0.93301900  1
  N  1920  1  0.07594500  0.35567600  0.84570500  1
  N  1940  1  0.13302100  0.62736700  0.14141300  1
  N  1943  1  0.15372100  0.64012800  0.06777800  1
  N  1944  1  0.07592500  0.63515600  0.15509500  1
  N  1964  1  0.86359500  0.36348000  0.87193800  1
  N  1967  1  0.93724700  0.35076700  0.85128200  1
  N  1968  1  0.84992300  0.35570500  0.92904500  1
  N  1988  1  0.14559100  0.62736600  0.87197700  1
  N  1991  1  0.07199800  0.64015300  0.85123400  1
  N  1992  1  0.15926700  0.63514700  0.92907700  1
  N  2012  1  0.14558500  0.36346100  0.12882500  1
  N  2015  1  0.07197400  0.35070000  0.14956600  1
  N  2016  1  0.15926300  0.35568700  0.07172200  1
  N  2036  1  0.86360200  0.62737800  0.12879400  1
  N  2039  1  0.93722500  0.64006900  0.14950600  1
  N  2040  1  0.84993200  0.63515900  0.07169400  1
  N  2060  1  0.87620200  0.13642700  0.63237600  1
  N  2063  1  0.85547300  0.06279900  0.64513100  1
  N  2064  1  0.93330500  0.15010200  0.64015600  1
  N  2084  1  0.87616900  0.85440200  0.36845500  1
  N  2087  1  0.85551000  0.92805100  0.35580200  1
  N  2088  1  0.93327500  0.84073600  0.36068100  1
  N  2108  1  0.13302800  0.85440200  0.63238000  1
  N  2111  1  0.15372100  0.92802100  0.64508400  1
  N  2112  1  0.07592600  0.84073400  0.64015600  1
  N  2132  1  0.13306100  0.13643700  0.36846100  1
  N  2135  1  0.15374500  0.06278000  0.35569400  1
  N  2136  1  0.07595500  0.15011800  0.36068500  1
  N  2156  1  0.63656300  0.12384800  0.85940900  1
  N  2159  1  0.64926100  0.14456200  0.93301700  1
  N  2160  1  0.64433500  0.06675100  0.84573800  1
  N  2180  1  0.37262700  0.12383200  0.14139300  1
  N  2183  1  0.35986600  0.14456900  0.06776700  1
  N  2184  1  0.36484400  0.06673400  0.15507000  1
  N  2204  1  0.63654300  0.86699300  0.14139100  1
  N  2207  1  0.64930000  0.84627500  0.06775300  1
  N  2208  1  0.64431900  0.92409500  0.15507000  1
  N  2228  1  0.37263700  0.86701400  0.85940500  1
  N  2231  1  0.35993700  0.84628100  0.93300000  1
  N  2232  1  0.36485700  0.92411300  0.84573800  1
  O  1101  1  0.48935500  0.95133300  0.19725600  1
  O  1102  1  0.50419300  0.96773600  0.20760900  1
  O  1125  1  0.48936600  0.03950900  0.80356000  1
  O  1126  1  0.50420400  0.02310700  0.79320700  1
  O  1149  1  0.04871300  0.19229400  0.51564900  1
  O  1150  1  0.03230900  0.20264600  0.50081100  1
  O  1173  1  0.96051900  0.79855600  0.51565100  1
  O  1174  1  0.97692300  0.78820400  0.50081300  1
  O  1197  1  0.80774400  0.51066100  0.95628500  1
  O  1198  1  0.79739100  0.49582300  0.97268900  1
  O  1221  1  0.20144100  0.51064500  0.04447700  1
  O  1222  1  0.21179300  0.49580700  0.02807400  1
  O  1245  1  0.04873100  0.51065900  0.80357600  1
  O  1246  1  0.03233000  0.49581900  0.79322700  1
  O  1269  1  0.96053400  0.51067300  0.19725900  1
  O  1270  1  0.97693500  0.49583100  0.20761000  1
  O  1293  1  0.80775200  0.95135600  0.48516700  1
  O  1294  1  0.79740100  0.96775600  0.50000900  1
  O  1317  1  0.20143300  0.03945400  0.48516600  1
  O  1318  1  0.21178400  0.02305300  0.50000800  1
  O  1341  1  0.48935100  0.19228100  0.04445700  1
  O  1342  1  0.50419200  0.20263300  0.02805500  1
  O  1365  1  0.48935100  0.79856000  0.95627300  1
  O  1366  1  0.50419300  0.78821000  0.97267400  1
  O  1389  1  0.71306300  0.95304000  0.27060500  1
  O  1390  1  0.71719100  0.97038800  0.28725900  1
  O  1413  1  0.29610800  0.03778000  0.27061100  1
  O  1414  1  0.29198300  0.02043000  0.28726500  1
  O  1437  1  0.71307100  0.03781100  0.73021300  1
  O  1438  1  0.71720000  0.02046400  0.71355900  1
  O  1461  1  0.29611500  0.95305700  0.73020600  1
  O  1462  1  0.29199000  0.97040400  0.71355000  1
  O  1485  1  0.04700300  0.26564400  0.29193900  1
  O  1486  1  0.02965300  0.28229700  0.28781300  1
  O  1509  1  0.96225900  0.26564000  0.70890100  1
  O  1510  1  0.97960900  0.28229300  0.71302500  1
  O  1533  1  0.96221700  0.72521800  0.29194500  1
  O  1534  1  0.97956700  0.70856600  0.28781700  1
  O  1557  1  0.04698000  0.72520100  0.70889900  1
  O  1558  1  0.02963100  0.70854900  0.71302400  1
  O  1581  1  0.73439500  0.28696300  0.95798700  1
  O  1582  1  0.71774100  0.28283600  0.97533600  1
  O  1605  1  0.73438800  0.70389300  0.04274200  1
  O  1606  1  0.71773400  0.70801800  0.02539200  1
  O  1629  1  0.27478500  0.28695900  0.04277300  1
  O  1630  1  0.29144000  0.28283000  0.02542400  1
  O  1653  1  0.27479500  0.70388400  0.95802000  1
  O  1654  1  0.29144900  0.70800800  0.97536900  1
  O  1677  1  0.63023100  0.15019400  0.13095000  1
  O  1678  1  0.64829900  0.13560700  0.13857000  1
  O  1701  1  0.37893600  0.84061500  0.13093500  1
  O  1702  1  0.36086500  0.85519900  0.13856200  1
  O  1725  1  0.63024200  0.84066000  0.86983600  1
  O  1726  1  0.64831600  0.85524300  0.86221800  1
  O  1749  1  0.37895700  0.15019900  0.86984300  1
  O  1750  1  0.36088600  0.13561400  0.86222600  1
  O  1773  1  0.84983300  0.12598800  0.37477100  1
  O  1774  1  0.86441900  0.13361100  0.35670200  1
  O  1797  1  0.15943800  0.12596800  0.62606900  1
  O  1798  1  0.14484900  0.13359700  0.64413300  1
  O  1821  1  0.15937900  0.86484900  0.37477400  1
  O  1822  1  0.14479200  0.85722800  0.35670600  1
  O  1845  1  0.84980400  0.86486600  0.62606800  1
  O  1846  1  0.86439100  0.85723900  0.64413500  1
  O  1869  1  0.87404800  0.36979000  0.15515200  1
  O  1870  1  0.86643100  0.35172100  0.14056500  1
  O  1893  1  0.87406400  0.62107500  0.84556100  1
  O  1894  1  0.86643100  0.63914100  0.86014500  1
  O  1917  1  0.13516700  0.36978400  0.84561700  1
  O  1918  1  0.14278900  0.35171100  0.86020000  1
  O  1941  1  0.13515400  0.62104700  0.15518200  1
  O  1942  1  0.14277300  0.63911500  0.14059300  1
  O  1965  1  0.84982800  0.36980400  0.86980400  1
  O  1966  1  0.86441700  0.35173700  0.86218100  1
  O  1989  1  0.15935800  0.62104700  0.86983900  1
  O  1990  1  0.14476500  0.63911200  0.86222100  1
  O  2013  1  0.15935200  0.36978100  0.13095800  1
  O  2014  1  0.14476200  0.35171600  0.13858000  1
  O  2037  1  0.84983700  0.62105500  0.13092800  1
  O  2038  1  0.86442200  0.63912300  0.13855000  1
  O  2061  1  0.87406900  0.15019500  0.62605600  1
  O  2062  1  0.86644800  0.13560600  0.64412300  1
  O  2085  1  0.87403800  0.84063700  0.37478100  1
  O  2086  1  0.86641200  0.85522300  0.35671000  1
  O  2109  1  0.13516200  0.84063700  0.62605700  1
  O  2110  1  0.14278400  0.85522300  0.64412500  1
  O  2133  1  0.13519500  0.15020400  0.37478200  1
  O  2134  1  0.14281600  0.13561700  0.35671500  1
  O  2157  1  0.63023800  0.12598400  0.84564300  1
  O  2158  1  0.64830700  0.13360400  0.86023000  1
  O  2181  1  0.37894900  0.12596600  0.15516000  1
  O  2182  1  0.36088100  0.13358700  0.14057100  1
  O  2205  1  0.63022200  0.86485800  0.15515900  1
  O  2206  1  0.64828800  0.85723700  0.14056900  1
  O  2229  1  0.37896000  0.86488000  0.84563800  1
  O  2230  1  0.36089200  0.85725900  0.86022900  1
