# generated using pymatgen
data_H36C49N8
_symmetry_space_group_name_H-M   'P 1'
_cell_length_a   56.72220000
_cell_length_b   65.07710000
_cell_length_c   65.07710000
_cell_angle_alpha   120.00000000
_cell_angle_beta   90.00000000
_cell_angle_gamma   90.00000000
_symmetry_Int_Tables_number   1
_chemical_formula_structural   H36C49N8
_chemical_formula_sum   'H432 C588 N96'
_cell_volume   208036.76001380
_cell_formula_units_Z   12
loop_
 _symmetry_equiv_pos_site_id
 _symmetry_equiv_pos_as_xyz
  1  'x, y, z'
loop_
 _atom_site_type_symbol
 _atom_site_label
 _atom_site_symmetry_multiplicity
 _atom_site_fract_x
 _atom_site_fract_y
 _atom_site_fract_z
 _atom_site_occupancy
  H  26  1  0.80952300  0.55972600  0.42769000  1
  H  27  1  0.84924600  0.56207600  0.41759300  1
  H  28  1  0.82053600  0.61888800  0.49572800  1
  H  29  1  0.86018800  0.62154500  0.48539100  1
  H  30  1  0.90657400  0.61144800  0.48490900  1
  H  31  1  0.92673700  0.58878100  0.49893400  1
  H  32  1  0.91284100  0.52661700  0.43411900  1
  H  33  1  0.89287200  0.54921800  0.42022700  1
  H  34  1  0.91981000  0.57707100  0.40879900  1
  H  35  1  0.92165800  0.56822500  0.36850600  1
  H  36  1  0.85216200  0.59339000  0.37386400  1
  H  37  1  0.85044400  0.60231300  0.41358800  1
  H  38  1  0.85551700  0.63684500  0.45354600  1
  H  39  1  0.92710400  0.61796200  0.44970500  1
  H  40  1  0.93812400  0.65655200  0.45810000  1
  H  41  1  0.86640900  0.67517600  0.46190800  1
  H  44  1  0.92611200  0.52436000  0.46873900  1
  H  45  1  0.78367200  0.59115200  0.48412400  1
  H  47  1  0.87252300  0.56626600  0.33398800  1
  H  49  1  0.92579700  0.69857600  0.47173100  1
  H  75  1  0.80953800  0.90324600  0.47871100  1
  H  76  1  0.84925200  0.89078200  0.47635000  1
  H  77  1  0.82053200  0.91206800  0.41951500  1
  H  78  1  0.86017800  0.89906000  0.41684600  1
  H  79  1  0.90653600  0.90871800  0.42697400  1
  H  80  1  0.92668600  0.94541300  0.44963600  1
  H  81  1  0.91284600  0.94273200  0.51179500  1
  H  82  1  0.89289200  0.90623400  0.48919000  1
  H  83  1  0.91982200  0.86692600  0.46129100  1
  H  84  1  0.92168100  0.83548300  0.47013900  1
  H  85  1  0.85216000  0.81571300  0.44504800  1
  H  86  1  0.85043700  0.84651700  0.43612700  1
  H  87  1  0.85552900  0.85188900  0.40157400  1
  H  88  1  0.92710000  0.86696400  0.42044100  1
  H  89  1  0.93812700  0.83675700  0.38186600  1
  H  90  1  0.86641700  0.82190700  0.36325500  1
  H  93  1  0.92610000  0.97962200  0.51406000  1
  H  94  1  0.78367600  0.92823200  0.44727400  1
  H  96  1  0.87253400  0.80293600  0.47215500  1
  H  98  1  0.92582400  0.80832300  0.33986000  1
  H  124  1  0.80953300  0.61069400  0.13514800  1
  H  125  1  0.84925400  0.62079000  0.14759300  1
  H  126  1  0.82052400  0.54268200  0.12634800  1
  H  127  1  0.86017200  0.55301600  0.13933800  1
  H  128  1  0.90652800  0.55347800  0.12966200  1
  H  129  1  0.92667500  0.53944100  0.09296400  1
  H  130  1  0.91285700  0.60428800  0.09565400  1
  H  131  1  0.89290500  0.61818400  0.13215200  1
  H  132  1  0.91982600  0.62958500  0.17146100  1
  H  133  1  0.92168800  0.66987400  0.20290700  1
  H  134  1  0.85215800  0.66456400  0.22266500  1
  H  135  1  0.85043100  0.62484200  0.19185900  1
  H  136  1  0.85552800  0.58491200  0.18649200  1
  H  137  1  0.92709900  0.58868600  0.17140800  1
  H  138  1  0.93812600  0.58031000  0.20160800  1
  H  139  1  0.86641500  0.57656700  0.21647300  1
  H  142  1  0.92609900  0.56966200  0.05876400  1
  H  143  1  0.78366500  0.55428900  0.11017200  1
  H  145  1  0.87254700  0.70444500  0.23543900  1
  H  147  1  0.92581600  0.56671700  0.23002900  1
  H  173  1  0.30945900  0.48928100  0.60017100  1
  H  174  1  0.34916300  0.48691600  0.61027900  1
  H  175  1  0.32060000  0.43040200  0.53198000  1
  H  176  1  0.36023800  0.42772200  0.54231800  1
  H  177  1  0.40674900  0.43760700  0.54286500  1
  H  178  1  0.42689500  0.46027500  0.52883300  1
  H  179  1  0.41263900  0.52248900  0.59349300  1
  H  180  1  0.39269500  0.49988400  0.60739000  1
  H  181  1  0.41977800  0.47226400  0.61899200  1
  H  182  1  0.42164300  0.48114900  0.65929600  1
  H  183  1  0.35234200  0.45549800  0.65382900  1
  H  184  1  0.35060200  0.44655700  0.61409200  1
  H  185  1  0.35549600  0.41217300  0.57395000  1
  H  186  1  0.42707500  0.43119800  0.57823500  1
  H  187  1  0.43810200  0.39261500  0.56984400  1
  H  188  1  0.36639300  0.37383400  0.56558200  1
  H  191  1  0.42605900  0.52471300  0.55891300  1
  H  192  1  0.28367900  0.45794700  0.54361500  1
  H  194  1  0.37261300  0.48296400  0.69377200  1
  H  196  1  0.42581900  0.35055800  0.55607500  1
  H  222  1  0.30947700  0.14606300  0.54909200  1
  H  223  1  0.34918600  0.15852600  0.55145400  1
  H  224  1  0.32057800  0.13686100  0.60804300  1
  H  225  1  0.36022300  0.14987100  0.61072000  1
  H  226  1  0.40669300  0.14045500  0.60078400  1
  H  227  1  0.42685200  0.10376200  0.57811900  1
  H  228  1  0.41270500  0.10626400  0.51591900  1
  H  229  1  0.39274200  0.14275700  0.53851900  1
  H  230  1  0.41978800  0.18199700  0.56618600  1
  H  231  1  0.42164800  0.21343400  0.55732600  1
  H  232  1  0.35230100  0.23352100  0.58286900  1
  H  233  1  0.35057000  0.20271700  0.59179100  1
  H  234  1  0.35550000  0.19704100  0.62621700  1
  H  235  1  0.42708000  0.18223000  0.60721200  1
  H  236  1  0.43810900  0.21242400  0.64579300  1
  H  237  1  0.36640200  0.22701200  0.66454700  1
  H  240  1  0.42607300  0.06943900  0.51369600  1
  H  241  1  0.28366700  0.12090600  0.58045900  1
  H  243  1  0.37258600  0.24605700  0.55547700  1
  H  245  1  0.42580200  0.24071900  0.68786200  1
  H  271  1  0.30953900  0.43840100  0.89257400  1
  H  272  1  0.34924600  0.42830000  0.88010600  1
  H  273  1  0.32051500  0.50641400  0.90138100  1
  H  274  1  0.36016400  0.49607700  0.88836800  1
  H  275  1  0.40653900  0.49562100  0.89802400  1
  H  276  1  0.42669600  0.50965300  0.93472300  1
  H  277  1  0.41285300  0.44481200  0.93203600  1
  H  278  1  0.39289400  0.43092000  0.89554400  1
  H  279  1  0.41981300  0.41948400  0.85622800  1
  H  280  1  0.42165300  0.37920200  0.82475200  1
  H  281  1  0.35211800  0.38457200  0.80504500  1
  H  282  1  0.35041300  0.42428100  0.83587200  1
  H  283  1  0.35549600  0.46419600  0.84122700  1
  H  284  1  0.42708900  0.46039600  0.85628400  1
  H  285  1  0.43809900  0.46879600  0.82609000  1
  H  286  1  0.36638200  0.47256400  0.81126000  1
  H  289  1  0.42610900  0.47942800  0.96892200  1
  H  290  1  0.28365800  0.49485600  0.91749700  1
  H  292  1  0.37248100  0.34467800  0.79219600  1
  H  294  1  0.42578800  0.48236400  0.79766900  1
  H  320  1  0.13319700  0.14468200  0.59976200  1
  H  321  1  0.09265900  0.15361600  0.60812700  1
  H  322  1  0.12514400  0.14614400  0.53605400  1
  H  323  1  0.08466700  0.15507800  0.54453400  1
  H  324  1  0.03987700  0.13887500  0.54268700  1
  H  325  1  0.01957800  0.10215200  0.52838600  1
  H  326  1  0.02723100  0.10777600  0.59533900  1
  H  327  1  0.04736100  0.14419300  0.60945300  1
  H  328  1  0.02265800  0.18455400  0.61862600  1
  H  329  1  0.02068400  0.21627700  0.65876300  1
  H  330  1  0.09285300  0.23025900  0.65619700  1
  H  331  1  0.09463900  0.19943800  0.61662900  1
  H  332  1  0.08707200  0.20072100  0.58024900  1
  H  333  1  0.01615500  0.17952000  0.57539500  1
  H  334  1  0.00494900  0.20968000  0.56700500  1
  H  335  1  0.07604600  0.23059200  0.57188800  1
  H  338  1  0.01681400  0.06969200  0.55996500  1
  H  339  1  0.16432000  0.14547600  0.55028300  1
  H  341  1  0.07076800  0.24681200  0.69487100  1
  H  343  1  0.01687700  0.24062100  0.55703000  1
  H  369  1  0.13316200  0.43872500  0.54800600  1
  H  370  1  0.09259900  0.43038200  0.54859500  1
  H  371  1  0.12519800  0.50228300  0.61333800  1
  H  372  1  0.08472200  0.49382300  0.61379500  1
  H  373  1  0.04000600  0.49573200  0.59931300  1
  H  374  1  0.01969300  0.51003900  0.57690300  1
  H  375  1  0.02710100  0.44301900  0.51561700  1
  H  376  1  0.04725200  0.42889600  0.53790300  1
  H  377  1  0.02266000  0.41982600  0.56920700  1
  H  378  1  0.02067800  0.37968600  0.56078600  1
  H  379  1  0.09291300  0.38214100  0.57705800  1
  H  380  1  0.09471100  0.42171600  0.58582200  1
  H  381  1  0.08705600  0.45802200  0.62358700  1
  H  382  1  0.01617000  0.46313300  0.60732000  1
  H  383  1  0.00496100  0.47153300  0.64587200  1
  H  384  1  0.07602700  0.46639000  0.66182000  1
  H  387  1  0.01681400  0.47843000  0.51289300  1
  H  388  1  0.16434200  0.48811000  0.59833700  1
  H  390  1  0.07077200  0.34352300  0.55508500  1
  H  392  1  0.01689300  0.48144100  0.68677300  1
  H  418  1  0.13319500  0.49036500  0.89379400  1
  H  419  1  0.09263400  0.48977200  0.88482900  1
  H  420  1  0.12516300  0.42514400  0.89222900  1
  H  421  1  0.08469400  0.42467800  0.88327800  1
  H  422  1  0.03990900  0.43907300  0.89952800  1
  H  423  1  0.01961700  0.46149800  0.93625400  1
  H  424  1  0.02721400  0.52281600  0.93060200  1
  H  425  1  0.04733800  0.50051200  0.89417800  1
  H  426  1  0.02266200  0.46928800  0.85384800  1
  H  427  1  0.02066200  0.47773300  0.82214600  1
  H  428  1  0.09284400  0.46125200  0.80815300  1
  H  429  1  0.09466000  0.45247100  0.83895400  1
  H  430  1  0.08706700  0.41478000  0.83764700  1
  H  431  1  0.01616200  0.43111300  0.85891100  1
  H  432  1  0.00494700  0.39256800  0.82875700  1
  H  433  1  0.07603200  0.37655000  0.80777700  1
  H  436  1  0.01680300  0.52553100  0.96869500  1
  H  437  1  0.16432000  0.44011400  0.89306000  1
  H  439  1  0.07071700  0.48338600  0.79165200  1
  H  441  1  0.01688800  0.35163200  0.79781200  1
  H  467  1  0.63320000  0.90448400  0.42797100  1
  H  468  1  0.59265900  0.89549400  0.41958200  1
  H  469  1  0.62515200  0.90299000  0.49166300  1
  H  470  1  0.58469200  0.89401700  0.48317100  1
  H  471  1  0.53988600  0.91021500  0.48499700  1
  H  472  1  0.51961000  0.94694600  0.49930400  1
  H  473  1  0.52727000  0.94132700  0.43235400  1
  H  474  1  0.54737700  0.90489600  0.41823500  1
  H  475  1  0.52266900  0.86454800  0.40909500  1
  H  476  1  0.52066200  0.83284700  0.36895500  1
  H  477  1  0.59282100  0.81879600  0.37146400  1
  H  478  1  0.59463700  0.84960600  0.41104300  1
  H  479  1  0.58706100  0.84835400  0.44744800  1
  H  480  1  0.51615600  0.86954300  0.45227000  1
  H  481  1  0.50493500  0.83936700  0.46061900  1
  H  482  1  0.57603000  0.81846100  0.45576800  1
  H  485  1  0.51682100  0.97940700  0.46771900  1
  H  486  1  0.66431700  0.90384100  0.47754100  1
  H  488  1  0.57070300  0.80233300  0.33279500  1
  H  490  1  0.51685200  0.80841500  0.47059600  1
  H  516  1  0.63319800  0.61044100  0.47965300  1
  H  517  1  0.59265300  0.61880700  0.47906400  1
  H  518  1  0.62515700  0.54674700  0.41446500  1
  H  519  1  0.58469400  0.55521800  0.41399600  1
  H  520  1  0.53987900  0.55338900  0.42837300  1
  H  521  1  0.51959700  0.53908700  0.45079800  1
  H  522  1  0.52725400  0.60604200  0.51212500  1
  H  523  1  0.54736600  0.62015500  0.48981400  1
  H  524  1  0.52266300  0.62928800  0.45859800  1
  H  525  1  0.52065900  0.66942800  0.46703400  1
  H  526  1  0.59282100  0.66692000  0.45048300  1
  H  527  1  0.59463500  0.62734100  0.44171800  1
  H  528  1  0.58706300  0.59093000  0.40405800  1
  H  529  1  0.51615600  0.58610800  0.42042000  1
  H  530  1  0.50493800  0.57775900  0.38189300  1
  H  531  1  0.57603600  0.58260700  0.36584200  1
  H  534  1  0.51678600  0.57069800  0.51485100  1
  H  535  1  0.66432000  0.56092600  0.42940700  1
  H  537  1  0.57070300  0.70558700  0.47267900  1
  H  539  1  0.51685100  0.56779100  0.34097300  1
  H  565  1  0.63324800  0.55880100  0.13415600  1
  H  566  1  0.59270800  0.55939100  0.14313000  1
  H  567  1  0.62510300  0.62378700  0.13525600  1
  H  568  1  0.58464400  0.62425900  0.14421100  1
  H  569  1  0.53972900  0.61009000  0.12827200  1
  H  570  1  0.51944200  0.58766800  0.09154500  1
  H  571  1  0.52740700  0.52626500  0.09698400  1
  H  572  1  0.54752300  0.54856900  0.13341000  1
  H  573  1  0.52266500  0.57956900  0.17369100  1
  H  574  1  0.52065700  0.57110000  0.20537600  1
  H  575  1  0.59269600  0.58813800  0.21976500  1
  H  576  1  0.59451900  0.59692000  0.18895900  1
  H  577  1  0.58712300  0.63442800  0.18988200  1
  H  578  1  0.51616000  0.61790000  0.16898200  1
  H  579  1  0.50493700  0.65643100  0.19914800  1
  H  580  1  0.57608300  0.67265400  0.21976500  1
  H  583  1  0.51684500  0.52360100  0.05896900  1
  H  584  1  0.66430400  0.60896900  0.13467200  1
  H  586  1  0.57064100  0.56564500  0.23600100  1
  H  588  1  0.51687000  0.69742200  0.22997200  1
  H  599  1  0.93084700  0.56055700  0.29984000  1
  H  600  1  0.92949000  0.55926700  0.26240600  1
  H  602  1  0.83372400  0.62977500  0.27708900  1
  H  603  1  0.83202900  0.65165400  0.30744100  1
  H  604  1  0.81323400  0.62642300  0.29567500  1
  H  606  1  0.81988400  0.64375100  0.33988500  1
  H  607  1  0.84324500  0.64619100  0.35889900  1
  H  608  1  0.82410400  0.62136400  0.34730500  1
  H  621  1  0.93082700  0.77453000  0.47784800  1
  H  622  1  0.92947000  0.73839400  0.47915300  1
  H  624  1  0.83373500  0.68253100  0.40861200  1
  H  625  1  0.83204300  0.69098800  0.38672300  1
  H  626  1  0.81324600  0.70446400  0.41195200  1
  H  628  1  0.81990100  0.73132800  0.39460400  1
  H  629  1  0.84326300  0.74789800  0.39215800  1
  H  630  1  0.82411900  0.76114100  0.41698300  1
  H  643  1  0.93083600  0.73852300  0.26388500  1
  H  644  1  0.92948200  0.77595700  0.30002600  1
  H  646  1  0.83370600  0.76129400  0.35585100  1
  H  647  1  0.83200000  0.73094400  0.34738200  1
  H  648  1  0.81321600  0.74271300  0.33391100  1
  H  650  1  0.81985700  0.69850100  0.30703500  1
  H  651  1  0.84321600  0.67947900  0.29046500  1
  H  652  1  0.82408500  0.69107600  0.27722600  1
  H  665  1  0.43083000  0.48854700  0.72788100  1
  H  666  1  0.42944900  0.48984500  0.76531600  1
  H  668  1  0.33369500  0.41931000  0.75058600  1
  H  669  1  0.33201000  0.39742800  0.72023700  1
  H  670  1  0.31321600  0.42266000  0.73199300  1
  H  672  1  0.31988400  0.40532900  0.68778700  1
  H  673  1  0.34325400  0.40288000  0.66877800  1
  H  674  1  0.32411700  0.42771100  0.68036000  1
  H  687  1  0.43083000  0.27456900  0.54984600  1
  H  688  1  0.42944800  0.31070000  0.54853700  1
  H  690  1  0.33369300  0.36651400  0.61906700  1
  H  691  1  0.33201700  0.35805400  0.64095600  1
  H  692  1  0.31321300  0.34457400  0.61573000  1
  H  694  1  0.31988600  0.31770400  0.63306400  1
  H  695  1  0.34325600  0.30113800  0.63550300  1
  H  696  1  0.32411000  0.28789400  0.61068000  1
  H  709  1  0.43080700  0.31053300  0.76383300  1
  H  710  1  0.42944600  0.27308900  0.72770300  1
  H  712  1  0.33371400  0.28776200  0.67183100  1
  H  713  1  0.33202700  0.31810700  0.68028200  1
  H  714  1  0.31322900  0.30636100  0.69376400  1
  H  716  1  0.31989100  0.35057400  0.72061800  1
  H  717  1  0.34325600  0.36958800  0.73718300  1
  H  718  1  0.32411000  0.35801600  0.75043300  1
  H  731  1  0.01190600  0.27522000  0.72789900  1
  H  732  1  0.01281000  0.31173800  0.76503800  1
  H  734  1  0.10918200  0.36705500  0.75072400  1
  H  735  1  0.11133200  0.35822100  0.72030900  1
  H  736  1  0.12984900  0.34506600  0.73261100  1
  H  738  1  0.12382100  0.31768000  0.68842000  1
  H  739  1  0.10070000  0.30088800  0.66916100  1
  H  740  1  0.11953000  0.28798000  0.68133600  1
  H  753  1  0.01192300  0.31049800  0.55046900  1
  H  754  1  0.01283500  0.27335400  0.54984000  1
  H  756  1  0.10920300  0.28767800  0.61948100  1
  H  757  1  0.11135200  0.31809300  0.64106500  1
  H  758  1  0.12986700  0.30579600  0.61560800  1
  H  760  1  0.12383000  0.34998700  0.63242000  1
  H  761  1  0.10070500  0.36924400  0.63489200  1
  H  762  1  0.11953400  0.35707700  0.60980800  1
  H  775  1  0.01188500  0.48793400  0.76318300  1
  H  776  1  0.01279800  0.48855300  0.72666100  1
  H  778  1  0.10918900  0.41893800  0.67137600  1
  H  779  1  0.11133800  0.39736100  0.68021700  1
  H  780  1  0.12985100  0.42282000  0.69337100  1
  H  782  1  0.12382000  0.40602200  0.72076100  1
  H  783  1  0.10069500  0.40355400  0.73754800  1
  H  784  1  0.11952000  0.42863900  0.75046100  1
  H  797  1  0.51191800  0.77385800  0.29982000  1
  H  798  1  0.51284700  0.73734900  0.26267200  1
  H  800  1  0.60924300  0.68207100  0.27700600  1
  H  801  1  0.61138900  0.69089700  0.30741900  1
  H  802  1  0.62989500  0.70407300  0.29513100  1
  H  804  1  0.62384900  0.73144300  0.33932000  1
  H  805  1  0.60071700  0.74821500  0.35857500  1
  H  806  1  0.61953900  0.76114300  0.34641300  1
  H  819  1  0.51189000  0.73854500  0.47715500  1
  H  820  1  0.51280300  0.77568500  0.47777700  1
  H  822  1  0.60923100  0.76138800  0.40821800  1
  H  823  1  0.61139700  0.73097300  0.38664100  1
  H  824  1  0.62989100  0.74328200  0.41211400  1
  H  826  1  0.62386900  0.69909100  0.39530500  1
  H  827  1  0.60074600  0.67982500  0.39281500  1
  H  828  1  0.61955100  0.69200100  0.41791400  1
  H  841  1  0.51187400  0.56121000  0.26454100  1
  H  842  1  0.51280500  0.56058400  0.30105500  1
  H  844  1  0.60922500  0.63016600  0.35629900  1
  H  845  1  0.61137800  0.65174500  0.34746200  1
  H  846  1  0.62987700  0.62627600  0.33429300  1
  H  848  1  0.62384100  0.64307800  0.30690800  1
  H  849  1  0.60071000  0.64556200  0.29013500  1
  H  850  1  0.61952100  0.62046500  0.27721200  1
  H  863  1  0.74419200  0.57337300  0.47909600  1
  H  864  1  0.70195600  0.57386400  0.48102400  1
  H  866  1  0.67244400  0.62015600  0.41055200  1
  H  867  1  0.69390500  0.61159700  0.38803500  1
  H  868  1  0.69469600  0.64046600  0.41350400  1
  H  870  1  0.73525400  0.62803400  0.39556800  1
  H  871  1  0.75682500  0.60692600  0.39191200  1
  H  872  1  0.75739800  0.63572300  0.41725700  1
  H  885  1  0.74418300  0.94096800  0.46502300  1
  H  886  1  0.70194800  0.94238900  0.46452200  1
  H  888  1  0.67247600  0.82562100  0.41825100  1
  H  889  1  0.69394200  0.81167200  0.42681500  1
  H  890  1  0.69473200  0.80826900  0.39794500  1
  H  892  1  0.73529200  0.80277900  0.41038100  1
  H  893  1  0.75685900  0.82023800  0.43149000  1
  H  894  1  0.75743200  0.81678500  0.40269400  1
  H  907  1  0.74418100  0.55930900  0.09744700  1
  H  908  1  0.70194600  0.55737800  0.09602200  1
  H  910  1  0.67246500  0.62785400  0.21279400  1
  H  911  1  0.69392400  0.65037300  0.22674500  1
  H  912  1  0.69472600  0.62490500  0.23014500  1
  H  914  1  0.73527800  0.64284600  0.23563800  1
  H  915  1  0.75684300  0.64650100  0.21817800  1
  H  916  1  0.75742500  0.62115800  0.22163300  1
  H  929  1  0.24418700  0.47574800  0.54863900  1
  H  930  1  0.20195100  0.47523100  0.54669000  1
  H  932  1  0.17245300  0.42889800  0.61713300  1
  H  933  1  0.19390300  0.43747300  0.63965900  1
  H  934  1  0.19471600  0.40860400  0.61419200  1
  H  936  1  0.23526300  0.42106600  0.63214900  1
  H  937  1  0.25681900  0.44219200  0.63581500  1
  H  938  1  0.25742000  0.41339500  0.61047500  1
  H  951  1  0.24418500  0.10813200  0.56265100  1
  H  952  1  0.20194900  0.10670100  0.56315800  1
  H  954  1  0.17245300  0.22347400  0.60948000  1
  H  955  1  0.19391200  0.23743100  0.60091700  1
  H  956  1  0.19471200  0.24082500  0.62978400  1
  H  958  1  0.23526600  0.24632500  0.61734000  1
  H  959  1  0.25683100  0.22887200  0.59622400  1
  H  960  1  0.25741300  0.23231800  0.62501700  1
  H  973  1  0.24417600  0.48979200  0.93028300  1
  H  974  1  0.20193900  0.49172000  0.93169700  1
  H  976  1  0.17249500  0.42122800  0.81491900  1
  H  977  1  0.19396100  0.39871300  0.80097600  1
  H  978  1  0.19476000  0.42418000  0.79757200  1
  H  980  1  0.23531700  0.40625000  0.79209300  1
  H  981  1  0.25687500  0.40259800  0.80955900  1
  H  982  1  0.25745700  0.42794200  0.80610600  1
  H  995  1  0.98184800  0.54609600  0.55412600  1
  H  996  1  0.96169900  0.56492000  0.53570700  1
  H  998  1  0.95065400  0.47387900  0.42140900  1
  H  999  1  0.94714200  0.44717600  0.42196600  1
  H  1000  1  0.97496200  0.45457200  0.41478700  1
  H  1002  1  0.98002400  0.42734400  0.43174000  1
  H  1003  1  0.97602100  0.42856700  0.45922600  1
  H  1004  1  0.00369700  0.43594400  0.45199000  1
  H  1017  1  0.98183600  0.04326900  0.49231100  1
  H  1018  1  0.96168000  0.00603000  0.47349200  1
  H  1020  1  0.95064400  0.98278000  0.56453900  1
  H  1021  1  0.94714000  0.01003900  0.59124200  1
  H  1022  1  0.97495800  0.99546100  0.58383800  1
  H  1024  1  0.98002600  0.03964300  0.61106600  1
  H  1025  1  0.97602400  0.06590400  0.60984000  1
  H  1026  1  0.00369700  0.05128900  0.60246300  1
  H  1039  1  0.98185400  0.48428100  0.99511900  1
  H  1040  1  0.96170000  0.50269500  0.03235900  1
  H  1042  1  0.95063500  0.61699000  0.05561500  1
  H  1043  1  0.94712300  0.61643800  0.02835900  1
  H  1044  1  0.97494300  0.62361400  0.04293200  1
  H  1046  1  0.98000500  0.60666600  0.99875100  1
  H  1047  1  0.97600800  0.57918000  0.97248800  1
  H  1048  1  0.00368100  0.58642000  0.98710500  1
  H  1061  1  0.48188600  0.50299400  0.47359400  1
  H  1062  1  0.46172800  0.48416300  0.49200100  1
  H  1064  1  0.45062600  0.57519400  0.60629500  1
  H  1065  1  0.44712000  0.60190300  0.60574900  1
  H  1066  1  0.47493800  0.59449700  0.61292300  1
  H  1068  1  0.48000600  0.62174000  0.59598700  1
  H  1069  1  0.47601100  0.62052800  0.56850500  1
  H  1070  1  0.50368300  0.61314300  0.57574300  1
  H  1083  1  0.48190700  0.00584300  0.53540900  1
  H  1084  1  0.46175100  0.04308200  0.55423900  1
  H  1086  1  0.45060300  0.06631200  0.46319000  1
  H  1087  1  0.44708600  0.03905100  0.43648900  1
  H  1088  1  0.47490400  0.05363000  0.44387000  1
  H  1090  1  0.47997100  0.00944900  0.41664300  1
  H  1091  1  0.47598700  0.98318700  0.41787100  1
  H  1092  1  0.50365800  0.99780900  0.42523400  1
  H  1105  1  0.48183800  0.56482900  0.03257800  1
  H  1106  1  0.46168400  0.54640900  0.99533700  1
  H  1108  1  0.45064600  0.43211400  0.97208800  1
  H  1109  1  0.44714300  0.43267000  0.99934800  1
  H  1110  1  0.47496100  0.42549500  0.98476900  1
  H  1112  1  0.48002700  0.44244800  0.02895100  1
  H  1113  1  0.47602400  0.46993600  0.05521300  1
  H  1114  1  0.50369900  0.46269900  0.04059800  1
  C  1  1  0.90343100  0.66997600  0.46113400  1
  C  2  1  0.92057900  0.65290800  0.45807800  1
  C  3  1  0.91399500  0.63006600  0.45335900  1
  C  4  1  0.89001700  0.62324500  0.45223000  1
  C  5  1  0.87306200  0.64080400  0.45560500  1
  C  6  1  0.87948700  0.66356900  0.46011400  1
  C  7  1  0.88315100  0.59709500  0.44203900  1
  C  8  1  0.88429900  0.58909400  0.41545000  1
  C  9  1  0.86547900  0.59444300  0.40439800  1
  C  10  1  0.86648400  0.58937000  0.38078000  1
  C  11  1  0.88695600  0.57949100  0.36704900  1
  C  12  1  0.90640600  0.57505500  0.37783800  1
  C  13  1  0.90508700  0.57992900  0.40156000  1
  C  14  1  0.89874700  0.58323500  0.45025400  1
  C  15  1  0.85861800  0.59340300  0.44963200  1
  C  16  1  0.84354700  0.57447500  0.43409500  1
  C  17  1  0.81996500  0.57300400  0.43998900  1
  C  18  1  0.81077600  0.58969200  0.46238100  1
  C  19  1  0.82635200  0.60683200  0.47910100  1
  C  20  1  0.84983000  0.60837400  0.47292100  1
  C  21  1  0.90861200  0.59370000  0.47345300  1
  C  22  1  0.92052800  0.58025600  0.48190800  1
  C  23  1  0.92262100  0.55530500  0.46782300  1
  C  24  1  0.91243100  0.54465300  0.44488800  1
  C  25  1  0.90068200  0.55815600  0.43652500  1
  C  42  1  0.78737300  0.58903600  0.46826400  1
  C  43  1  0.91022900  0.69201400  0.46442900  1
  C  46  1  0.88672700  0.57442800  0.34366700  1
  C  48  1  0.93228900  0.54081400  0.47604800  1
  C  50  1  0.90343700  0.82635600  0.36843800  1
  C  51  1  0.92058100  0.84038000  0.38550300  1
  C  52  1  0.91399200  0.85852800  0.40833200  1
  C  53  1  0.89001500  0.86422900  0.41516900  1
  C  54  1  0.87307300  0.85000700  0.39760700  1
  C  55  1  0.87949500  0.83174400  0.37484600  1
  C  56  1  0.88315000  0.88017600  0.44131500  1
  C  57  1  0.88429500  0.86159800  0.44932700  1
  C  58  1  0.86548100  0.84518800  0.44398000  1
  C  59  1  0.86648800  0.82663800  0.44904900  1
  C  60  1  0.88696800  0.82277500  0.45890700  1
  C  61  1  0.90642200  0.83798900  0.46332100  1
  C  62  1  0.90509600  0.85683500  0.45844500  1
  C  63  1  0.89875600  0.90223800  0.45517000  1
  C  64  1  0.85861700  0.89145700  0.44500000  1
  C  65  1  0.84355100  0.89486400  0.46393600  1
  C  66  1  0.81997200  0.90224600  0.46542000  1
  C  67  1  0.81077800  0.90793500  0.44872200  1
  C  68  1  0.82634300  0.90747200  0.43155300  1
  C  69  1  0.84982300  0.89975400  0.43001500  1
  C  70  1  0.90858200  0.91500700  0.44472200  1
  C  71  1  0.92048400  0.93691300  0.45816400  1
  C  72  1  0.92260300  0.94776500  0.48311200  1
  C  73  1  0.91242600  0.93547300  0.49376000  1
  C  74  1  0.90068800  0.91360300  0.48025300  1
  C  91  1  0.78738000  0.91448900  0.44939000  1
  C  92  1  0.91024000  0.80760500  0.34640600  1
  C  95  1  0.88673700  0.80448700  0.46401600  1
  C  97  1  0.93227000  0.97048000  0.49760300  1
  C  99  1  0.90343600  0.57729500  0.21201800  1
  C  100  1  0.92058000  0.58033400  0.19799300  1
  C  101  1  0.91399000  0.58502000  0.17984900  1
  C  102  1  0.89001300  0.58616700  0.17415500  1
  C  103  1  0.87307300  0.58285200  0.18839400  1
  C  104  1  0.87949400  0.57832400  0.20663800  1
  C  105  1  0.88314900  0.59636600  0.15820700  1
  C  106  1  0.88429400  0.62295600  0.17678400  1
  C  107  1  0.86547800  0.63402100  0.19319000  1
  C  108  1  0.86648800  0.65763900  0.21174300  1
  C  109  1  0.88697300  0.67135500  0.21561300  1
  C  110  1  0.90642700  0.66055300  0.20040000  1
  C  111  1  0.90509900  0.63683200  0.18155100  1
  C  112  1  0.89875600  0.58815800  0.13614500  1
  C  113  1  0.85861700  0.58876900  0.14692500  1
  C  114  1  0.84355200  0.60429600  0.14351400  1
  C  115  1  0.81997000  0.59840000  0.13613900  1
  C  116  1  0.81077400  0.57601800  0.13046400  1
  C  117  1  0.82634000  0.55930900  0.13091800  1
  C  118  1  0.84982000  0.56548800  0.13863600  1
  C  119  1  0.90856800  0.56493500  0.12337100  1
  C  120  1  0.92049100  0.55647700  0.10147500  1
  C  121  1  0.92260900  0.57057100  0.09062300  1
  C  122  1  0.91243300  0.59351100  0.10291100  1
  C  123  1  0.90069300  0.60187600  0.12478100  1
  C  140  1  0.78737100  0.57013700  0.12393200  1
  C  141  1  0.91023900  0.57400200  0.23076100  1
  C  144  1  0.88674300  0.69475300  0.23389900  1
  C  146  1  0.93227300  0.56234900  0.06790600  1
  C  148  1  0.40341400  0.37911200  0.56657800  1
  C  149  1  0.42056000  0.39622500  0.56976600  1
  C  150  1  0.41397400  0.41905800  0.57446000  1
  C  151  1  0.38999200  0.42584700  0.57547400  1
  C  152  1  0.37304800  0.40824300  0.57198800  1
  C  153  1  0.37947200  0.38547300  0.56746200  1
  C  154  1  0.38315900  0.45200500  0.58569600  1
  C  155  1  0.38434700  0.46000800  0.61228400  1
  C  156  1  0.36560500  0.45450900  0.62330200  1
  C  157  1  0.36662200  0.45959500  0.64692600  1
  C  158  1  0.38704400  0.46962300  0.66068900  1
  C  159  1  0.40643000  0.47419300  0.64993200  1
  C  160  1  0.40509700  0.46929900  0.62620600  1
  C  161  1  0.39875200  0.46584400  0.57745600  1
  C  162  1  0.35861100  0.45571600  0.57814700  1
  C  163  1  0.34349700  0.47456400  0.59374400  1
  C  164  1  0.31992300  0.47605400  0.58784100  1
  C  165  1  0.31077300  0.45945200  0.56539600  1
  C  166  1  0.32638600  0.44239200  0.54864100  1
  C  167  1  0.34986900  0.44085600  0.55481600  1
  C  168  1  0.40869700  0.45537400  0.55429100  1
  C  169  1  0.42058000  0.46882100  0.54581900  1
  C  170  1  0.42259100  0.49378100  0.55986400  1
  C  171  1  0.41229900  0.50444700  0.58275500  1
  C  172  1  0.40056300  0.49094200  0.59112200  1
  C  189  1  0.28737500  0.46013400  0.55950400  1
  C  190  1  0.41020600  0.35707100  0.56327800  1
  C  193  1  0.38681500  0.47479500  0.68410500  1
  C  195  1  0.43225800  0.50826800  0.55163300  1
  C  197  1  0.40342100  0.22269800  0.65928000  1
  C  198  1  0.42056700  0.20875100  0.64217900  1
  C  199  1  0.41397600  0.19061600  0.61934300  1
  C  200  1  0.38999400  0.18485500  0.61255000  1
  C  201  1  0.37305300  0.19899600  0.63014400  1
  C  202  1  0.37947800  0.21724800  0.65291100  1
  C  203  1  0.38315900  0.16891500  0.58639300  1
  C  204  1  0.38433800  0.18749700  0.57838600  1
  C  205  1  0.36557800  0.20398900  0.58385600  1
  C  206  1  0.36658500  0.22252700  0.57877000  1
  C  207  1  0.38702300  0.22630100  0.56878900  1
  C  208  1  0.40642500  0.21099900  0.56424900  1
  C  209  1  0.40509700  0.19216100  0.56913600  1
  C  210  1  0.39875900  0.14684100  0.57255600  1
  C  211  1  0.35861500  0.15764800  0.58268500  1
  C  212  1  0.34351100  0.15436700  0.56382000  1
  C  213  1  0.31993300  0.14697900  0.56233100  1
  C  214  1  0.31077100  0.14117800  0.57896000  1
  C  215  1  0.32637000  0.14152400  0.59604700  1
  C  216  1  0.34986000  0.14921600  0.59757300  1
  C  217  1  0.40867800  0.13413200  0.58302300  1
  C  218  1  0.42056400  0.11221700  0.56957700  1
  C  219  1  0.42263000  0.10132800  0.54462300  1
  C  220  1  0.41234500  0.11355900  0.53395900  1
  C  221  1  0.40059800  0.13542500  0.54746100  1
  C  238  1  0.28737300  0.13461500  0.57828400  1
  C  239  1  0.41021900  0.24144300  0.68131500  1
  C  242  1  0.38679100  0.24456900  0.56365200  1
  C  244  1  0.43227900  0.07860300  0.53013600  1
  C  246  1  0.40340300  0.47180900  0.81569200  1
  C  247  1  0.42055300  0.46873900  0.82969300  1
  C  248  1  0.41397600  0.46406000  0.84784600  1
  C  249  1  0.38999700  0.46290800  0.85352400  1
  C  250  1  0.37303900  0.46627800  0.83934000  1
  C  251  1  0.37946000  0.47078400  0.82108100  1
  C  252  1  0.38313800  0.45272900  0.86949400  1
  C  253  1  0.38428400  0.42613400  0.85092400  1
  C  254  1  0.36545300  0.41509000  0.83453000  1
  C  255  1  0.36644800  0.39147600  0.81597300  1
  C  256  1  0.38693000  0.37774800  0.81207500  1
  C  257  1  0.40639300  0.38853200  0.82728100  1
  C  258  1  0.40508300  0.41224900  0.84614000  1
  C  259  1  0.39875400  0.46095100  0.89155400  1
  C  260  1  0.35860900  0.46032800  0.88078900  1
  C  261  1  0.34355900  0.44480900  0.88422500  1
  C  262  1  0.31997200  0.45069800  0.89158500  1
  C  263  1  0.31077300  0.47308000  0.89726700  1
  C  264  1  0.32633500  0.48978700  0.89680300  1
  C  265  1  0.34981400  0.48361200  0.88908600  1
  C  266  1  0.40858100  0.48416500  0.90431700  1
  C  267  1  0.42050000  0.49262100  0.92621400  1
  C  268  1  0.42261400  0.47852600  0.93706600  1
  C  269  1  0.41243100  0.45558800  0.92477800  1
  C  270  1  0.40068800  0.44722600  0.90291100  1
  C  287  1  0.28736900  0.47895600  0.90382100  1
  C  288  1  0.41019900  0.47510800  0.79695000  1
  C  291  1  0.38668500  0.35437000  0.79375200  1
  C  293  1  0.43227900  0.48674600  0.95978300  1
  C  295  1  0.03931700  0.22313800  0.56826500  1
  C  296  1  0.02249200  0.20745600  0.56896900  1
  C  297  1  0.02922200  0.18932000  0.57364600  1
  C  298  1  0.05313800  0.18537400  0.57717700  1
  C  299  1  0.06973300  0.20145400  0.57650000  1
  C  300  1  0.06317700  0.21958100  0.57188300  1
  C  301  1  0.06016200  0.16881700  0.58663600  1
  C  302  1  0.05930900  0.18690800  0.61339600  1
  C  303  1  0.07902400  0.20167300  0.62526700  1
  C  304  1  0.07797200  0.22036000  0.64882100  1
  C  305  1  0.05668700  0.22608200  0.66170600  1
  C  306  1  0.03652900  0.21239700  0.65013800  1
  C  307  1  0.03786200  0.19339500  0.62650200  1
  C  308  1  0.04455600  0.14674600  0.57826300  1
  C  309  1  0.08461300  0.15751800  0.57834800  1
  C  310  1  0.09901600  0.15164600  0.59255800  1
  C  311  1  0.12316900  0.14637600  0.58763900  1
  C  312  1  0.13370500  0.14522100  0.56737400  1
  C  313  1  0.11855900  0.14730400  0.55123500  1
  C  314  1  0.09448400  0.15270700  0.55633600  1
  C  315  1  0.03649200  0.13314800  0.55441600  1
  C  316  1  0.02447800  0.11128300  0.54583400  1
  C  317  1  0.02048800  0.10133400  0.56051600  1
  C  318  1  0.02896400  0.11442900  0.58411600  1
  C  319  1  0.04078500  0.13627800  0.59260200  1
  C  336  1  0.15809400  0.14383100  0.56370800  1
  C  337  1  0.03231600  0.24167100  0.56467200  1
  C  340  1  0.05672400  0.24493700  0.68486900  1
  C  342  1  0.01090600  0.07860300  0.55231000  1
  C  344  1  0.03931300  0.47013700  0.65802900  1
  C  345  1  0.02250100  0.46949700  0.64166200  1
  C  346  1  0.02923200  0.46482300  0.61885100  1
  C  347  1  0.05314200  0.46121100  0.61135100  1
  C  348  1  0.06972100  0.46180100  0.62808000  1
  C  349  1  0.06316400  0.46643500  0.65082800  1
  C  350  1  0.06017100  0.45176500  0.58533800  1
  C  351  1  0.05934000  0.42500100  0.57666900  1
  C  352  1  0.07907900  0.41309700  0.57946400  1
  C  353  1  0.07801400  0.38954700  0.57460900  1
  C  354  1  0.05671000  0.37669000  0.56751300  1
  C  355  1  0.03653600  0.38828900  0.56547300  1
  C  356  1  0.03787300  0.41192600  0.57010900  1
  C  357  1  0.04457000  0.46012700  0.57162500  1
  C  358  1  0.08461800  0.46007100  0.58234500  1
  C  359  1  0.09901100  0.44589300  0.56224000  1
  C  360  1  0.12315500  0.45081900  0.56186000  1
  C  361  1  0.13371200  0.47103700  0.58100500  1
  C  362  1  0.11858700  0.48715900  0.59926600  1
  C  363  1  0.09451900  0.48204600  0.59959000  1
  C  364  1  0.03656100  0.48399400  0.58187500  1
  C  365  1  0.02452900  0.49257500  0.56860100  1
  C  366  1  0.02047200  0.47787600  0.54398300  1
  C  367  1  0.02889600  0.45425800  0.53348400  1
  C  368  1  0.04070000  0.44575500  0.54684100  1
  C  385  1  0.15810200  0.47469000  0.58327200  1
  C  386  1  0.03230500  0.47374100  0.68015900  1
  C  389  1  0.05673800  0.35353600  0.56323500  1
  C  391  1  0.01090300  0.48608800  0.52945800  1
  C  393  1  0.03930800  0.38037300  0.81526500  1
  C  394  1  0.02249200  0.39674800  0.83097800  1
  C  395  1  0.02922500  0.41956500  0.84910000  1
  C  396  1  0.05314000  0.42704700  0.85302200  1
  C  397  1  0.06972800  0.41029700  0.83692200  1
  C  398  1  0.06316400  0.38755900  0.81879200  1
  C  399  1  0.06016900  0.45306200  0.86957600  1
  C  400  1  0.05932300  0.46171600  0.85147100  1
  C  401  1  0.07903600  0.45886500  0.83672500  1
  C  402  1  0.07796100  0.46373300  0.81803900  1
  C  403  1  0.05666800  0.47090100  0.81233700  1
  C  404  1  0.03651500  0.47299900  0.82602300  1
  C  405  1  0.03786000  0.46833600  0.84500700  1
  C  406  1  0.04457700  0.46678300  0.89165600  1
  C  407  1  0.08462300  0.45606500  0.88086400  1
  C  408  1  0.09903400  0.47614300  0.88672900  1
  C  409  1  0.12317800  0.47651600  0.89203200  1
  C  410  1  0.13371200  0.45741300  0.89320100  1
  C  411  1  0.11856800  0.43918500  0.89111400  1
  C  412  1  0.09450300  0.43886000  0.88566300  1
  C  413  1  0.03652600  0.45653000  0.90525600  1
  C  414  1  0.02447900  0.46980400  0.92710200  1
  C  415  1  0.02051600  0.49444300  0.93706400  1
  C  416  1  0.02895600  0.50494000  0.92395100  1
  C  417  1  0.04077300  0.49158000  0.90210100  1
  C  434  1  0.15809900  0.45515600  0.89463100  1
  C  435  1  0.03230000  0.35825200  0.79672900  1
  C  438  1  0.05668200  0.47522300  0.79349100  1
  C  440  1  0.01091100  0.50896000  0.95978700  1
  C  442  1  0.53930000  0.82591700  0.45939100  1
  C  443  1  0.52248300  0.84161600  0.45870700  1
  C  444  1  0.52922300  0.85976700  0.45405600  1
  C  445  1  0.55314200  0.86373400  0.45054400  1
  C  446  1  0.56972100  0.84762400  0.45119500  1
  C  447  1  0.56316100  0.82948000  0.45578400  1
  C  448  1  0.56016900  0.88026900  0.44106500  1
  C  449  1  0.55932300  0.86217100  0.41430700  1
  C  450  1  0.57901500  0.84738200  0.40241700  1
  C  451  1  0.57794300  0.82869100  0.37886400  1
  C  452  1  0.55665700  0.82300600  0.36598800  1
  C  453  1  0.53651100  0.83670800  0.37757100  1
  C  454  1  0.53786400  0.85569300  0.40121600  1
  C  455  1  0.54456500  0.90233600  0.44941700  1
  C  456  1  0.58462100  0.89155800  0.44934300  1
  C  457  1  0.59904400  0.89738800  0.43511400  1
  C  458  1  0.62318300  0.90271700  0.44005600  1
  C  459  1  0.63371300  0.90391400  0.46034200  1
  C  460  1  0.61856900  0.90180400  0.47647100  1
  C  461  1  0.59450300  0.89636300  0.47134900  1
  C  462  1  0.53651300  0.91594800  0.47327000  1
  C  463  1  0.52449000  0.93780900  0.48185200  1
  C  464  1  0.52053700  0.94777500  0.46717700  1
  C  465  1  0.52899600  0.93467200  0.44357600  1
  C  466  1  0.54080100  0.91281400  0.43508600  1
  C  483  1  0.65809700  0.90536900  0.46404500  1
  C  484  1  0.53228900  0.80736500  0.46295100  1
  C  487  1  0.55667300  0.80418800  0.34280500  1
  C  489  1  0.51093400  0.97049900  0.47538500  1
  C  491  1  0.53930600  0.57898600  0.36967300  1
  C  492  1  0.52248700  0.57967300  0.38605600  1
  C  493  1  0.52922500  0.58432500  0.40885800  1
  C  494  1  0.55314200  0.58784100  0.41634200  1
  C  495  1  0.56972100  0.58719900  0.39958300  1
  C  496  1  0.56316800  0.58258400  0.37684100  1
  C  497  1  0.56016500  0.59732100  0.44235700  1
  C  498  1  0.55931900  0.62407800  0.45101600  1
  C  499  1  0.57901300  0.63596800  0.44811800  1
  C  500  1  0.57794100  0.65952000  0.45297700  1
  C  501  1  0.55665500  0.67239600  0.46016600  1
  C  502  1  0.53651000  0.66081200  0.46228200  1
  C  503  1  0.53786000  0.63716900  0.45762500  1
  C  504  1  0.54455900  0.58897100  0.45607300  1
  C  505  1  0.58461800  0.58904200  0.44537000  1
  C  506  1  0.59903900  0.60327200  0.46543100  1
  C  507  1  0.62317200  0.59832400  0.46583200  1
  C  508  1  0.63371000  0.57805900  0.44672200  1
  C  509  1  0.61856700  0.56191700  0.42849400  1
  C  510  1  0.59450100  0.56703800  0.42816900  1
  C  511  1  0.53651000  0.56511600  0.44583300  1
  C  512  1  0.52447900  0.55653900  0.45911200  1
  C  513  1  0.52052100  0.57121500  0.48374900  1
  C  514  1  0.52898500  0.59481700  0.49425000  1
  C  515  1  0.54079500  0.60330300  0.48088100  1
  C  532  1  0.65809700  0.57437700  0.44446000  1
  C  533  1  0.53229800  0.57541600  0.34755800  1
  C  536  1  0.55667100  0.69557800  0.46452600  1
  C  538  1  0.51091100  0.56301900  0.49827400  1
  C  540  1  0.53932700  0.66872700  0.21245600  1
  C  541  1  0.52249200  0.65229900  0.19684000  1
  C  542  1  0.52923000  0.62949400  0.17869700  1
  C  543  1  0.55316500  0.62206200  0.17466800  1
  C  544  1  0.56976500  0.63886800  0.19068100  1
  C  545  1  0.56320300  0.66160600  0.20881400  1
  C  546  1  0.56015800  0.59603700  0.15813200  1
  C  547  1  0.55927000  0.58739600  0.17624500  1
  C  548  1  0.57892900  0.59042100  0.19111700  1
  C  549  1  0.57784800  0.58555800  0.20980700  1
  C  550  1  0.55659200  0.57821900  0.21538600  1
  C  551  1  0.53648100  0.57597300  0.20159600  1
  C  552  1  0.53783700  0.58064200  0.18261800  1
  C  553  1  0.54456100  0.58234100  0.13605400  1
  C  554  1  0.58462000  0.59299000  0.14684900  1
  C  555  1  0.59907100  0.57298100  0.14114600  1
  C  556  1  0.62320900  0.57259700  0.13581900  1
  C  557  1  0.63370600  0.59163800  0.13451200  1
  C  558  1  0.61853000  0.60979000  0.13646500  1
  C  559  1  0.59445300  0.61009500  0.14187700  1
  C  560  1  0.53641600  0.59261300  0.12250400  1
  C  561  1  0.52440900  0.57933000  0.10063500  1
  C  562  1  0.52051100  0.55467800  0.09063000  1
  C  563  1  0.52907500  0.54415300  0.10367500  1
  C  564  1  0.54088900  0.55751300  0.12552700  1
  C  581  1  0.65809000  0.59391500  0.13307100  1
  C  582  1  0.53232100  0.69084000  0.23100600  1
  C  585  1  0.55660200  0.57380800  0.23417200  1
  C  587  1  0.51092500  0.54016200  0.06789700  1
  C  589  1  0.90072800  0.58221600  0.31447400  1
  C  590  1  0.88316800  0.59478800  0.30981300  1
  C  591  1  0.88239500  0.59418100  0.28771900  1
  C  592  1  0.89928600  0.58115300  0.26989100  1
  C  593  1  0.91698700  0.56887100  0.27481700  1
  C  594  1  0.91780000  0.56956000  0.29682800  1
  C  596  1  0.84855200  0.61990800  0.30105600  1
  C  597  1  0.84939700  0.62053100  0.32314800  1
  C  601  1  0.83089000  0.63265500  0.29493600  1
  C  605  1  0.83315500  0.63375700  0.34332600  1
  C  611  1  0.90073800  0.76747500  0.45614600  1
  C  612  1  0.88317900  0.75024200  0.44357800  1
  C  613  1  0.88240400  0.72876000  0.44419700  1
  C  614  1  0.89928600  0.72397200  0.45724100  1
  C  615  1  0.91697800  0.74118900  0.46953100  1
  C  616  1  0.91779400  0.76250400  0.46883000  1
  C  618  1  0.84856500  0.71635800  0.41846400  1
  C  619  1  0.84941100  0.73782400  0.41783200  1
  C  623  1  0.83090300  0.69749100  0.40572400  1
  C  627  1  0.83317200  0.74476700  0.40459600  1
  C  633  1  0.90072600  0.72388600  0.27092000  1
  C  634  1  0.88316300  0.72855100  0.28815000  1
  C  635  1  0.88239100  0.75064700  0.30963500  1
  C  636  1  0.89928300  0.76847300  0.31443400  1
  C  637  1  0.91698300  0.76354500  0.29722400  1
  C  638  1  0.91779700  0.74153100  0.27590500  1
  C  640  1  0.84853700  0.73732200  0.32202300  1
  C  641  1  0.84938100  0.71522700  0.30055200  1
  C  645  1  0.83087000  0.74344800  0.34088500  1
  C  649  1  0.83313200  0.69505400  0.29360000  1
  C  655  1  0.40073200  0.46685700  0.71322300  1
  C  656  1  0.38316800  0.45428800  0.71787600  1
  C  657  1  0.38238100  0.45489900  0.73997300  1
  C  658  1  0.39926000  0.46793700  0.75781200  1
  C  659  1  0.41696000  0.48022700  0.75289600  1
  C  660  1  0.41779100  0.47952800  0.73088000  1
  C  662  1  0.34853900  0.42917200  0.72662400  1
  C  663  1  0.34939600  0.42854800  0.70453000  1
  C  667  1  0.33087100  0.41642800  0.73273900  1
  C  671  1  0.33316100  0.41531900  0.68434500  1
  C  677  1  0.40072300  0.28159500  0.57152000  1
  C  678  1  0.38315900  0.29882100  0.58409000  1
  C  679  1  0.38237100  0.32030300  0.58347200  1
  C  680  1  0.39925100  0.32510200  0.57043500  1
  C  681  1  0.41695500  0.30789800  0.55815200  1
  C  682  1  0.41778400  0.28658200  0.55885200  1
  C  684  1  0.34853400  0.33268800  0.60920700  1
  C  685  1  0.34939100  0.31122100  0.60983500  1
  C  689  1  0.33087100  0.35155200  0.62195500  1
  C  693  1  0.33315900  0.30426900  0.62306800  1
  C  699  1  0.40071800  0.32517800  0.75677600  1
  C  700  1  0.38316100  0.32051200  0.73954300  1
  C  701  1  0.38238300  0.29841100  0.71806400  1
  C  702  1  0.39926400  0.28057800  0.71327800  1
  C  703  1  0.41695500  0.28550600  0.73049500  1
  C  704  1  0.41777500  0.30752600  0.75180900  1
  C  706  1  0.34854800  0.31174000  0.70565600  1
  C  707  1  0.34939600  0.33384200  0.72712000  1
  C  711  1  0.33088500  0.30561300  0.68678900  1
  C  715  1  0.33316100  0.35402300  0.73405700  1
  C  721  1  0.04229800  0.28202900  0.71343700  1
  C  722  1  0.05987300  0.29924300  0.71807700  1
  C  723  1  0.06038400  0.32092600  0.73999600  1
  C  724  1  0.04321600  0.32592900  0.75763900  1
  C  725  1  0.02549800  0.30875500  0.75273700  1
  C  726  1  0.02495000  0.28723100  0.73090000  1
  C  728  1  0.09455200  0.33308600  0.72686600  1
  C  729  1  0.09396000  0.31143000  0.70493500  1
  C  733  1  0.11222300  0.35195100  0.73300700  1
  C  737  1  0.11052000  0.30426200  0.68495600  1
  C  743  1  0.04230800  0.32496400  0.57174900  1
  C  744  1  0.05988500  0.32032500  0.58432500  1
  C  745  1  0.06040000  0.29840500  0.58408400  1
  C  746  1  0.04323700  0.28075900  0.57144000  1
  C  747  1  0.02551900  0.28565800  0.55916500  1
  C  748  1  0.02496400  0.30749900  0.55948600  1
  C  750  1  0.09456600  0.31153800  0.60937600  1
  C  751  1  0.09396900  0.33347200  0.60965600  1
  C  755  1  0.11224200  0.30539700  0.62209700  1
  C  759  1  0.11052700  0.35345100  0.62246800  1
  C  765  1  0.04228700  0.46668100  0.75638900  1
  C  766  1  0.05986800  0.45410700  0.73917700  1
  C  767  1  0.06038200  0.45434000  0.71749500  1
  C  768  1  0.04321300  0.46697100  0.71248200  1
  C  769  1  0.02549000  0.47924100  0.72965100  1
  C  770  1  0.02493900  0.47893400  0.75117700  1
  C  772  1  0.09455200  0.42905300  0.70534400  1
  C  773  1  0.09395500  0.42878200  0.72700200  1
  C  777  1  0.11222600  0.41632900  0.68648400  1
  C  781  1  0.11051400  0.41597500  0.73417600  1
  C  787  1  0.54229800  0.76704900  0.31429600  1
  C  788  1  0.55988700  0.74984600  0.30965600  1
  C  789  1  0.56041200  0.72817000  0.28773300  1
  C  790  1  0.54325000  0.72316100  0.27008400  1
  C  791  1  0.52552600  0.74032900  0.27498200  1
  C  792  1  0.52496400  0.76184800  0.29682200  1
  C  794  1  0.59458900  0.71602700  0.30086800  1
  C  795  1  0.59398300  0.73767900  0.32280200  1
  C  799  1  0.61227400  0.69717400  0.29472600  1
  C  803  1  0.61053900  0.74485300  0.34278500  1
  C  809  1  0.54229200  0.72408700  0.45590100  1
  C  810  1  0.55988100  0.72873100  0.44334100  1
  C  811  1  0.56039600  0.75064800  0.44357700  1
  C  812  1  0.54322100  0.76829000  0.45620300  1
  C  813  1  0.52549300  0.76338400  0.46846400  1
  C  814  1  0.52494100  0.74154800  0.46815100  1
  C  816  1  0.59458600  0.73752700  0.41831800  1
  C  817  1  0.59398800  0.71559500  0.41804200  1
  C  821  1  0.61227200  0.74367200  0.40560900  1
  C  825  1  0.61055700  0.69562100  0.40524500  1
  C  831  1  0.54226900  0.58247200  0.27133100  1
  C  832  1  0.55986200  0.59503500  0.28853000  1
  C  833  1  0.56038600  0.59479700  0.31021100  1
  C  834  1  0.54322000  0.58216600  0.31522900  1
  C  835  1  0.52548900  0.56990100  0.29806700  1
  C  836  1  0.52492300  0.57021900  0.27654600  1
  C  838  1  0.59457000  0.62006300  0.32234100  1
  C  839  1  0.59396500  0.62033700  0.30068400  1
  C  843  1  0.61225800  0.63277700  0.34119100  1
  C  847  1  0.61052700  0.63313400  0.29350200  1
  C  853  1  0.74702300  0.58772200  0.45622200  1
  C  854  1  0.73340400  0.59582400  0.44347500  1
  C  855  1  0.70840000  0.59592600  0.44450500  1
  C  856  1  0.69653900  0.58760600  0.45803000  1
  C  857  1  0.71011700  0.57969500  0.47088400  1
  C  858  1  0.73496100  0.57956900  0.46984200  1
  C  860  1  0.70659800  0.61295100  0.41922400  1
  C  861  1  0.73159000  0.61282600  0.41810900  1
  C  865  1  0.69100600  0.62178800  0.40714900  1
  C  869  1  0.74590900  0.62139400  0.40492400  1
  C  875  1  0.74702900  0.90375000  0.45069200  1
  C  876  1  0.73341700  0.88289600  0.44258700  1
  C  877  1  0.70841200  0.88381500  0.44247900  1
  C  878  1  0.69654400  0.90565300  0.45080000  1
  C  879  1  0.71011400  0.92642200  0.45870100  1
  C  880  1  0.73495700  0.92551600  0.45882900  1
  C  882  1  0.70662500  0.84150900  0.42545700  1
  C  883  1  0.73161700  0.84052700  0.42558600  1
  C  887  1  0.69104000  0.82059200  0.41662200  1
  C  891  1  0.74594100  0.81877900  0.41702100  1
  C  897  1  0.74702300  0.58218800  0.13466800  1
  C  898  1  0.73341000  0.59493300  0.15552200  1
  C  899  1  0.70840500  0.59389800  0.15460200  1
  C  900  1  0.69654000  0.58036900  0.13276200  1
  C  901  1  0.71011000  0.56751900  0.11199100  1
  C  902  1  0.73495600  0.56856200  0.11289900  1
  C  904  1  0.70661400  0.61918400  0.19690600  1
  C  905  1  0.73160600  0.62030000  0.19788900  1
  C  909  1  0.69102900  0.63125800  0.21782300  1
  C  913  1  0.74593000  0.63348900  0.21963700  1
  C  919  1  0.24702000  0.46138900  0.57150300  1
  C  920  1  0.23340300  0.45326700  0.58423500  1
  C  921  1  0.20839800  0.45314800  0.58319200  1
  C  922  1  0.19653700  0.46146300  0.56966400  1
  C  923  1  0.21011200  0.46939500  0.55682600  1
  C  924  1  0.23495600  0.46953300  0.55787600  1
  C  926  1  0.20660400  0.43612400  0.60847300  1
  C  927  1  0.23159600  0.43626500  0.60959900  1
  C  931  1  0.19101500  0.42727900  0.62054400  1
  C  935  1  0.24591500  0.42771400  0.62279800  1
  C  941  1  0.24702000  0.14535500  0.57701000  1
  C  942  1  0.23340500  0.16620800  0.58512000  1
  C  943  1  0.20839800  0.16528300  0.58523100  1
  C  944  1  0.19653700  0.14344000  0.57691000  1
  C  945  1  0.21011200  0.12267200  0.56899200  1
  C  946  1  0.23495600  0.12358400  0.56885700  1
  C  948  1  0.20660400  0.20758900  0.60226100  1
  C  949  1  0.23159700  0.20857600  0.60212900  1
  C  953  1  0.19101700  0.22850500  0.61110600  1
  C  957  1  0.24591800  0.23032600  0.61069300  1
  C  963  1  0.24702900  0.46691200  0.89306700  1
  C  964  1  0.23342200  0.45416300  0.87220900  1
  C  965  1  0.20841800  0.45519300  0.87312200  1
  C  966  1  0.19654200  0.46871100  0.89495800  1
  C  967  1  0.21010900  0.48157600  0.91572900  1
  C  968  1  0.23495400  0.48054000  0.91483000  1
  C  970  1  0.20664100  0.42990700  0.83081600  1
  C  971  1  0.23163300  0.42879600  0.82984200  1
  C  975  1  0.19106100  0.41782600  0.80989300  1
  C  979  1  0.24596200  0.41560900  0.80809700  1
  C  985  1  0.98432400  0.51199300  0.52370800  1
  C  986  1  0.97783600  0.49922400  0.49936600  1
  C  987  1  0.96578200  0.51046900  0.48837600  1
  C  988  1  0.95927300  0.53478700  0.50141100  1
  C  989  1  0.96583500  0.54733200  0.52560500  1
  C  990  1  0.97773900  0.53617800  0.53651100  1
  C  992  1  0.96610300  0.47365400  0.45119000  1
  C  993  1  0.97756000  0.46233800  0.46222200  1
  C  997  1  0.95932100  0.46165600  0.42590100  1
  C  1001  1  0.98465000  0.43712300  0.45048500  1
  C  1007  1  0.98431300  0.04695700  0.52641300  1
  C  1008  1  0.97782500  0.03538600  0.53918500  1
  C  1009  1  0.96576700  0.01315400  0.52794300  1
  C  1010  1  0.95925300  0.00187200  0.50362800  1
  C  1011  1  0.96581100  0.01352100  0.49108000  1
  C  1012  1  0.97772200  0.03557700  0.50223100  1
  C  1014  1  0.96609400  0.01278500  0.56475900  1
  C  1015  1  0.97755900  0.03512800  0.57607100  1
  C  1019  1  0.95931500  0.99949200  0.57675800  1
  C  1023  1  0.98465200  0.04860600  0.60128500  1
  C  1029  1  0.98431800  0.51469600  0.99142900  1
  C  1030  1  0.97782700  0.53903700  0.00300100  1
  C  1031  1  0.96576900  0.55002400  0.02523400  1
  C  1032  1  0.95926600  0.53699000  0.03652000  1
  C  1033  1  0.96582900  0.51279700  0.02487000  1
  C  1034  1  0.97774200  0.50189400  0.00281500  1
  C  1036  1  0.96608500  0.58721200  0.02560800  1
  C  1037  1  0.97754400  0.57618300  0.00326200  1
  C  1041  1  0.95930200  0.61250000  0.03890100  1
  C  1045  1  0.98463500  0.58792100  0.98978600  1
  C  1051  1  0.48431100  0.53710700  0.50400200  1
  C  1052  1  0.47782400  0.54987200  0.52834500  1
  C  1053  1  0.46576300  0.53862200  0.53932800  1
  C  1054  1  0.45925100  0.51430500  0.52628800  1
  C  1055  1  0.46584300  0.50175900  0.50210100  1
  C  1056  1  0.47775500  0.51291500  0.49120200  1
  C  1058  1  0.46607900  0.57543100  0.57652000  1
  C  1059  1  0.47754300  0.58675200  0.56549700  1
  C  1063  1  0.45929700  0.58742000  0.60181000  1
  C  1067  1  0.48463600  0.61196500  0.57724200  1
  C  1073  1  0.48435000  0.00214700  0.50130000  1
  C  1074  1  0.47784100  0.01371300  0.48852900  1
  C  1075  1  0.46578300  0.03594500  0.49977800  1
  C  1076  1  0.45929000  0.04723100  0.52409800  1
  C  1077  1  0.46587200  0.03559000  0.53664600  1
  C  1078  1  0.47778100  0.01353100  0.52548800  1
  C  1080  1  0.46607200  0.03631000  0.46296000  1
  C  1081  1  0.47753300  0.01396500  0.45164000  1
  C  1085  1  0.45927200  0.04959900  0.45096400  1
  C  1089  1  0.48461100  0.00048700  0.42642300  1
  C  1095  1  0.48431500  0.53441400  0.03626400  1
  C  1096  1  0.47782700  0.51007300  0.02469500  1
  C  1097  1  0.46577000  0.49908100  0.00246100  1
  C  1098  1  0.45925800  0.51211500  0.99117900  1
  C  1099  1  0.46581400  0.53631200  0.00283000  1
  C  1100  1  0.47772500  0.54721900  0.02488700  1
  C  1102  1  0.46609800  0.46189700  0.00209300  1
  C  1103  1  0.47756100  0.47292900  0.02443700  1
  C  1107  1  0.45931800  0.43660700  0.98880100  1
  C  1111  1  0.48465300  0.46119400  0.03791500  1
  N  595  1  0.86510000  0.60678800  0.28452900  1
  N  598  1  0.86667400  0.60794900  0.32633100  1
  N  609  1  0.90188600  0.58325000  0.33548500  1
  N  610  1  0.89743000  0.58123100  0.24945600  1
  N  617  1  0.86511000  0.71296000  0.43159300  1
  N  620  1  0.86668700  0.75359300  0.43041100  1
  N  631  1  0.90187700  0.78746400  0.45513300  1
  N  632  1  0.89742900  0.70346300  0.45717300  1
  N  639  1  0.86509000  0.75384400  0.32543000  1
  N  642  1  0.86666200  0.71203700  0.28478900  1
  N  653  1  0.90187000  0.70288400  0.25093200  1
  N  654  1  0.89742500  0.78891400  0.33494200  1
  N  661  1  0.36508100  0.44229500  0.74315900  1
  N  664  1  0.36667900  0.44112900  0.70135100  1
  N  675  1  0.40189600  0.46583700  0.69222000  1
  N  676  1  0.39739100  0.46787100  0.77825400  1
  N  683  1  0.36507400  0.33609500  0.59607900  1
  N  686  1  0.36667100  0.29545900  0.59725400  1
  N  697  1  0.40189200  0.26162200  0.57255900  1
  N  698  1  0.39737900  0.34560700  0.57049400  1
  N  705  1  0.36509000  0.29521300  0.70226300  1
  N  708  1  0.36667100  0.33703200  0.74288800  1
  N  719  1  0.40186200  0.34618600  0.77676200  1
  N  720  1  0.39740500  0.26013500  0.69277100  1
  N  727  1  0.07772800  0.33668700  0.74321400  1
  N  730  1  0.07664400  0.29568900  0.70172800  1
  N  741  1  0.04141400  0.26179900  0.69262700  1
  N  742  1  0.04490200  0.34657800  0.77791700  1
  N  749  1  0.07774600  0.29518500  0.59662500  1
  N  752  1  0.07665100  0.33667600  0.59712200  1
  N  763  1  0.04142500  0.34577500  0.57233000  1
  N  764  1  0.04493000  0.26047400  0.57179700  1
  N  771  1  0.07772800  0.44179700  0.70173700  1
  N  774  1  0.07663500  0.44131600  0.74273900  1
  N  785  1  0.04139700  0.46608800  0.77661100  1
  N  786  1  0.04490200  0.46659900  0.69183400  1
  N  793  1  0.57776700  0.71241800  0.28451300  1
  N  796  1  0.57665400  0.75340900  0.32600800  1
  N  807  1  0.54141800  0.78728200  0.33510300  1
  N  808  1  0.54495300  0.70252200  0.24979600  1
  N  815  1  0.57775300  0.75387200  0.43104900  1
  N  818  1  0.57666000  0.71238600  0.43056300  1
  N  829  1  0.54141100  0.70328100  0.45532800  1
  N  830  1  0.54491600  0.78857200  0.45584200  1
  N  837  1  0.57774400  0.60732800  0.32595900  1
  N  840  1  0.57663300  0.60781300  0.28495800  1
  N  851  1  0.54137600  0.58305000  0.25110300  1
  N  852  1  0.54492300  0.58252500  0.33587100  1
  N  859  1  0.69632200  0.60449500  0.43237500  1
  N  862  1  0.74365200  0.60430300  0.43032100  1
  N  873  1  0.77051300  0.58777800  0.45443600  1
  N  874  1  0.67310200  0.58864900  0.45985700  1
  N  881  1  0.69634100  0.86311200  0.43391000  1
  N  884  1  0.74367200  0.86126600  0.43411000  1
  N  895  1  0.77051900  0.90191300  0.45063700  1
  N  896  1  0.67310700  0.90642200  0.44973700  1
  N  903  1  0.69633200  0.60603000  0.17530200  1
  N  906  1  0.74366300  0.60808800  0.17715100  1
  N  917  1  0.77051300  0.58396500  0.13650700  1
  N  918  1  0.67310300  0.57853900  0.13197900  1
  N  925  1  0.19632400  0.44457300  0.59531800  1
  N  928  1  0.24365400  0.44479900  0.59739600  1
  N  939  1  0.27050800  0.46136600  0.57331400  1
  N  940  1  0.17309800  0.46043800  0.56784400  1
  N  947  1  0.19632600  0.18598400  0.59380600  1
  N  950  1  0.24365400  0.18783800  0.59359800  1
  N  961  1  0.27051000  0.14719000  0.57704100  1
  N  962  1  0.17309800  0.14265000  0.57794800  1
  N  969  1  0.19635200  0.44305700  0.85241600  1
  N  972  1  0.24368300  0.44100800  0.85058300  1
  N  983  1  0.27051900  0.46511500  0.89124700  1
  N  984  1  0.17310700  0.47053900  0.89573000  1
  N  991  1  0.96085000  0.49704400  0.46488500  1
  N  994  1  0.98278200  0.47576700  0.48564600  1
  N  1005  1  0.99530700  0.50267900  0.53571700  1
  N  1006  1  0.94827200  0.54694300  0.49227100  1
  N  1013  1  0.96083700  0.00309000  0.54137000  1
  N  1016  1  0.98277800  0.04512200  0.56264000  1
  N  1027  1  0.99530600  0.06827500  0.53572200  1
  N  1028  1  0.94825000  0.98057500  0.49147100  1
  N  1035  1  0.96083500  0.57351400  0.03530100  1
  N  1038  1  0.98277000  0.55275900  0.99326600  1
  N  1049  1  0.99532100  0.50269200  0.97011500  1
  N  1050  1  0.94825900  0.54612900  0.05781300  1
  N  1057  1  0.46082700  0.55204000  0.56281800  1
  N  1060  1  0.48276900  0.57332700  0.54207300  1
  N  1071  1  0.49532800  0.54641400  0.49200300  1
  N  1072  1  0.44826200  0.50214400  0.53542800  1
  N  1079  1  0.46083200  0.04600700  0.48635300  1
  N  1082  1  0.48277400  0.00397500  0.46507000  1
  N  1093  1  0.49534900  0.98083100  0.49198800  1
  N  1094  1  0.44829400  0.06852900  0.53625500  1
  N  1101  1  0.46084100  0.47559100  0.99239800  1
  N  1104  1  0.48278100  0.49635400  0.03443200  1
  N  1115  1  0.49530900  0.54642200  0.05758400  1
  N  1116  1  0.44825500  0.50297600  0.96988400  1
