# generated using pymatgen
data_H28C39N8
_symmetry_space_group_name_H-M   'P 1'
_cell_length_a   56.55960000
_cell_length_b   64.89620000
_cell_length_c   64.89620000
_cell_angle_alpha   120.00000000
_cell_angle_beta   90.00000000
_cell_angle_gamma   90.00000000
_symmetry_Int_Tables_number   1
_chemical_formula_structural   H28C39N8
_chemical_formula_sum   'H336 C468 N96'
_cell_volume   206288.72702351
_cell_formula_units_Z   12
loop_
 _symmetry_equiv_pos_site_id
 _symmetry_equiv_pos_as_xyz
  1  'x, y, z'
loop_
 _atom_site_type_symbol
 _atom_site_label
 _atom_site_symmetry_multiplicity
 _atom_site_fract_x
 _atom_site_fract_y
 _atom_site_fract_z
 _atom_site_occupancy
  H  26  1  0.80883300  0.56470800  0.42354300  1
  H  27  1  0.84903600  0.56608100  0.41415200  1
  H  28  1  0.82224200  0.61639600  0.49508500  1
  H  29  1  0.86241800  0.61812200  0.48548000  1
  H  30  1  0.91181700  0.61359500  0.48461900  1
  H  31  1  0.93142200  0.59153700  0.49974400  1
  H  32  1  0.90924600  0.52770300  0.43981800  1
  H  33  1  0.89005500  0.54972600  0.42460400  1
  H  34  1  0.92348500  0.57386400  0.41222100  1
  H  35  1  0.93103000  0.56518400  0.37283400  1
  H  36  1  0.86574900  0.59624500  0.37196600  1
  H  37  1  0.85823800  0.60467800  0.41109900  1
  H  38  1  0.85608900  0.63708300  0.45505000  1
  H  39  1  0.92851600  0.61972300  0.44960600  1
  H  40  1  0.93819900  0.65877900  0.45802400  1
  H  41  1  0.86563600  0.67581000  0.46376700  1
  H  44  1  0.92546300  0.52752400  0.47479400  1
  H  45  1  0.78297200  0.59700000  0.48272400  1
  H  47  1  0.91887500  0.56601900  0.33698500  1
  H  49  1  0.92448200  0.70067700  0.47179500  1
  H  75  1  0.80884600  0.89530400  0.47471400  1
  H  76  1  0.84904400  0.88453300  0.47334300  1
  H  77  1  0.82226000  0.91512800  0.42300500  1
  H  78  1  0.86242900  0.90379300  0.42128000  1
  H  79  1  0.91180000  0.90747900  0.42582500  1
  H  80  1  0.93140400  0.94465900  0.44787800  1
  H  81  1  0.90927600  0.94854500  0.51171600  1
  H  82  1  0.89008500  0.91130800  0.48969200  1
  H  83  1  0.92351600  0.87475500  0.46549600  1
  H  84  1  0.93107500  0.84403400  0.47415100  1
  H  85  1  0.86575400  0.81215900  0.44317300  1
  H  86  1  0.85823600  0.84287200  0.43476600  1
  H  87  1  0.85611000  0.85436000  0.40234600  1
  H  88  1  0.92852200  0.86630900  0.41968800  1
  H  89  1  0.93820900  0.83565200  0.38065200  1
  H  90  1  0.86564800  0.82432900  0.36363400  1
  H  93  1  0.92550900  0.98370400  0.51190600  1
  H  94  1  0.78299000  0.92216800  0.44239900  1
  H  96  1  0.91890900  0.80736500  0.47334000  1
  H  98  1  0.92451100  0.80747800  0.33877200  1
  H  124  1  0.80883500  0.61584100  0.14409800  1
  H  125  1  0.84903800  0.62523200  0.15486100  1
  H  126  1  0.82223300  0.54431000  0.12428800  1
  H  127  1  0.86240400  0.55391000  0.13561600  1
  H  128  1  0.91177100  0.55475500  0.13190700  1
  H  129  1  0.93136700  0.53962900  0.09472100  1
  H  130  1  0.90927200  0.59960900  0.09086900  1
  H  131  1  0.89008800  0.61482000  0.12810800  1
  H  132  1  0.92351700  0.62714500  0.16466300  1
  H  133  1  0.93108400  0.66651500  0.19538900  1
  H  134  1  0.86573900  0.66743400  0.22723800  1
  H  135  1  0.85821500  0.62831900  0.19652100  1
  H  136  1  0.85608900  0.58440100  0.18503100  1
  H  137  1  0.92850400  0.58976400  0.17307300  1
  H  138  1  0.93818700  0.58137200  0.20372200  1
  H  139  1  0.86562400  0.57570200  0.21505900  1
  H  142  1  0.92547100  0.56463200  0.05569800  1
  H  143  1  0.78296900  0.55667000  0.11723000  1
  H  145  1  0.91892700  0.70236900  0.23206600  1
  H  147  1  0.92448700  0.56765900  0.23188700  1
  H  173  1  0.30883000  0.48588100  0.60472300  1
  H  174  1  0.34902300  0.48447900  0.61411600  1
  H  175  1  0.32223900  0.43422600  0.53317200  1
  H  176  1  0.36240200  0.43247100  0.54277000  1
  H  177  1  0.41181700  0.43696400  0.54363100  1
  H  178  1  0.43143000  0.45902100  0.52850900  1
  H  179  1  0.40925300  0.52285600  0.58843900  1
  H  180  1  0.39005200  0.50083100  0.60364300  1
  H  181  1  0.42347400  0.47671000  0.61605700  1
  H  182  1  0.43100500  0.48536400  0.65543900  1
  H  183  1  0.36574100  0.45424700  0.65624400  1
  H  184  1  0.35824500  0.44584500  0.61712000  1
  H  185  1  0.35605300  0.41345900  0.57312500  1
  H  186  1  0.42846600  0.43085500  0.57871100  1
  H  187  1  0.43815000  0.39180600  0.57030200  1
  H  188  1  0.36559600  0.37472200  0.56440600  1
  H  191  1  0.42551600  0.52305800  0.55349900  1
  H  192  1  0.28297600  0.45362400  0.54553200  1
  H  194  1  0.41885000  0.48448600  0.69125900  1
  H  196  1  0.42446500  0.34990700  0.55650900  1
  H  222  1  0.30883300  0.15526300  0.55349400  1
  H  223  1  0.34903000  0.16605000  0.55489000  1
  H  224  1  0.32223700  0.13539100  0.60516800  1
  H  225  1  0.36240300  0.14673600  0.60691700  1
  H  226  1  0.41179600  0.14308800  0.60242200  1
  H  227  1  0.43140300  0.10590400  0.58037300  1
  H  228  1  0.40926000  0.10199600  0.51653100  1
  H  229  1  0.39006400  0.13922900  0.53854500  1
  H  230  1  0.42348100  0.17576200  0.56266200  1
  H  231  1  0.43102100  0.20649200  0.55401100  1
  H  232  1  0.36575000  0.23841100  0.58511000  1
  H  233  1  0.35824700  0.20769000  0.59350900  1
  H  234  1  0.35605100  0.19611000  0.62591100  1
  H  235  1  0.42847400  0.18427200  0.60853200  1
  H  236  1  0.43815000  0.21491900  0.64757600  1
  H  237  1  0.36559300  0.22613300  0.66464000  1
  H  240  1  0.42543600  0.06683000  0.51637300  1
  H  241  1  0.28297200  0.12835700  0.58577500  1
  H  243  1  0.41886100  0.24318500  0.55487400  1
  H  245  1  0.42444900  0.24303300  0.68947400  1
  H  271  1  0.30881600  0.43469100  0.88415000  1
  H  272  1  0.34900900  0.42529000  0.87335900  1
  H  273  1  0.32222500  0.50622700  0.90398300  1
  H  274  1  0.36239500  0.49661500  0.89262900  1
  H  275  1  0.41175300  0.49577500  0.89631000  1
  H  276  1  0.43135200  0.51091200  0.93350000  1
  H  277  1  0.40925300  0.45094200  0.93736900  1
  H  278  1  0.39006600  0.43572600  0.90013300  1
  H  279  1  0.42347900  0.42335100  0.86359700  1
  H  280  1  0.43102700  0.38397400  0.83286500  1
  H  281  1  0.36571300  0.38311600  0.80099400  1
  H  282  1  0.35820400  0.42223300  0.83171600  1
  H  283  1  0.35604900  0.46614900  0.84322800  1
  H  284  1  0.42848400  0.46073800  0.85514500  1
  H  285  1  0.43815200  0.46916500  0.82450900  1
  H  286  1  0.36558600  0.47488200  0.81322300  1
  H  289  1  0.42547000  0.48590400  0.97252700  1
  H  290  1  0.28296000  0.49387900  0.91102200  1
  H  292  1  0.41886100  0.34813600  0.79618000  1
  H  294  1  0.42444800  0.48287300  0.79635400  1
  H  320  1  0.13622200  0.15745700  0.60643400  1
  H  321  1  0.09533100  0.16479000  0.61467400  1
  H  322  1  0.12392900  0.14082400  0.53560100  1
  H  323  1  0.08308200  0.14865500  0.54408200  1
  H  324  1  0.03449600  0.14243000  0.54383000  1
  H  325  1  0.01341200  0.10609000  0.52936500  1
  H  326  1  0.03265600  0.10365800  0.59086100  1
  H  327  1  0.05339800  0.13993500  0.60527100  1
  H  328  1  0.02042800  0.17667700  0.61609700  1
  H  329  1  0.01248400  0.20756500  0.65532100  1
  H  330  1  0.07932800  0.23766400  0.65788500  1
  H  331  1  0.08714500  0.20690000  0.61891300  1
  H  332  1  0.08855900  0.19781200  0.57637500  1
  H  333  1  0.01622300  0.18309900  0.57810800  1
  H  334  1  0.00637400  0.21365100  0.56962200  1
  H  335  1  0.07889000  0.22774900  0.56761900  1
  H  338  1  0.00813300  0.07271000  0.56177800  1
  H  339  1  0.16396100  0.15066800  0.55263900  1
  H  341  1  0.02505100  0.24365600  0.69175200  1
  H  343  1  0.01988500  0.24281000  0.55733200  1
  H  369  1  0.13620500  0.43297700  0.55391900  1
  H  370  1  0.09529700  0.42475700  0.55301700  1
  H  371  1  0.12395200  0.50377000  0.60823900  1
  H  372  1  0.08310300  0.49530300  0.60758400  1
  H  373  1  0.03453100  0.49557600  0.60154900  1
  H  374  1  0.01342600  0.51003400  0.57967900  1
  H  375  1  0.03259200  0.44849900  0.51574900  1
  H  376  1  0.05335800  0.43409400  0.53761100  1
  H  377  1  0.02041900  0.42333500  0.56359200  1
  H  378  1  0.01247000  0.38410400  0.55523700  1
  H  379  1  0.07936600  0.38146100  0.58263800  1
  H  380  1  0.08719100  0.42044300  0.59087100  1
  H  381  1  0.08855600  0.46296800  0.62437800  1
  H  382  1  0.01622300  0.46134800  0.60796000  1
  H  383  1  0.00636600  0.46983500  0.64699500  1
  H  384  1  0.07888300  0.47172000  0.66307000  1
  H  387  1  0.00805000  0.47757600  0.51389400  1
  H  388  1  0.16396700  0.48672600  0.60098700  1
  H  390  1  0.02505700  0.34763900  0.55483000  1
  H  392  1  0.01989700  0.48212500  0.68845500  1
  H  418  1  0.13620300  0.48546400  0.88198500  1
  H  419  1  0.09529400  0.48636000  0.87464800  1
  H  420  1  0.12392600  0.43122100  0.89856200  1
  H  421  1  0.08308200  0.43186300  0.89072900  1
  H  422  1  0.03447300  0.43785100  0.89696400  1
  H  423  1  0.01337100  0.45972200  0.93329000  1
  H  424  1  0.03261300  0.52365300  0.93572700  1
  H  425  1  0.05337500  0.50178800  0.89945900  1
  H  426  1  0.02042100  0.47585300  0.86272700  1
  H  427  1  0.01247000  0.48420800  0.83185300  1
  H  428  1  0.07932000  0.45670800  0.80174900  1
  H  429  1  0.08714900  0.44847600  0.83249600  1
  H  430  1  0.08855100  0.41501300  0.84158500  1
  H  431  1  0.01621300  0.43144800  0.85631000  1
  H  432  1  0.00636300  0.39241600  0.82575800  1
  H  433  1  0.07888300  0.37632100  0.81164000  1
  H  436  1  0.00804100  0.52551100  0.96664500  1
  H  437  1  0.16395100  0.43844900  0.88876900  1
  H  439  1  0.02504800  0.48459600  0.79578400  1
  H  441  1  0.01990100  0.35094300  0.79661200  1
  H  467  1  0.63623700  0.89315800  0.42181900  1
  H  468  1  0.59533700  0.88579900  0.41357000  1
  H  469  1  0.62394000  0.90975800  0.49264100  1
  H  470  1  0.58310700  0.90190800  0.48416200  1
  H  471  1  0.53450900  0.90813600  0.48439200  1
  H  472  1  0.51341900  0.94447000  0.49885100  1
  H  473  1  0.53265200  0.94689000  0.43734600  1
  H  474  1  0.55340200  0.91061500  0.42294200  1
  H  475  1  0.52044400  0.87386300  0.41214100  1
  H  476  1  0.51248800  0.84297900  0.37292500  1
  H  477  1  0.57933900  0.81288200  0.37033000  1
  H  478  1  0.58716800  0.84364600  0.40929900  1
  H  479  1  0.58854900  0.85271500  0.45182700  1
  H  480  1  0.51623200  0.86744900  0.45010500  1
  H  481  1  0.50636500  0.83688100  0.45855000  1
  H  482  1  0.57887600  0.82275600  0.46054200  1
  H  485  1  0.50808300  0.97781400  0.46640900  1
  H  486  1  0.66397900  0.90001500  0.47565800  1
  H  488  1  0.52505800  0.80689800  0.33647700  1
  H  490  1  0.51988000  0.80772100  0.47086200  1
  H  516  1  0.63621700  0.61758600  0.47427200  1
  H  517  1  0.59531500  0.62581100  0.47517300  1
  H  518  1  0.62394500  0.54675500  0.42005100  1
  H  519  1  0.58310900  0.55521400  0.42069300  1
  H  520  1  0.53450900  0.55496700  0.42669200  1
  H  521  1  0.51342500  0.54051100  0.44856900  1
  H  522  1  0.53263400  0.60203300  0.51249000  1
  H  523  1  0.55337700  0.61643600  0.49061400  1
  H  524  1  0.52042100  0.62721400  0.46464100  1
  H  525  1  0.51245800  0.66642600  0.47296400  1
  H  526  1  0.57931800  0.66903300  0.44548300  1
  H  527  1  0.58715200  0.63006900  0.43728900  1
  H  528  1  0.58854400  0.58752500  0.40383300  1
  H  529  1  0.51622500  0.58923600  0.42027200  1
  H  530  1  0.50636500  0.58077800  0.38125400  1
  H  531  1  0.57887800  0.57879200  0.36514600  1
  H  534  1  0.50811300  0.57294700  0.51436000  1
  H  535  1  0.66396900  0.56379400  0.42727200  1
  H  537  1  0.52502700  0.70287700  0.47333100  1
  H  539  1  0.51987600  0.56847100  0.33978800  1
  H  565  1  0.63623000  0.56516300  0.14639500  1
  H  566  1  0.59532800  0.56426700  0.15372300  1
  H  567  1  0.62392900  0.61923800  0.12958600  1
  H  568  1  0.58309600  0.61860200  0.13739900  1
  H  569  1  0.53439500  0.61271600  0.13129900  1
  H  570  1  0.51330800  0.59084000  0.09496600  1
  H  571  1  0.53271900  0.52690400  0.09243600  1
  H  572  1  0.55346200  0.54877600  0.12871500  1
  H  573  1  0.52046700  0.57455000  0.16542100  1
  H  574  1  0.51253200  0.56620300  0.19630200  1
  H  575  1  0.57923700  0.59405100  0.22658800  1
  H  576  1  0.58705500  0.60225800  0.19582300  1
  H  577  1  0.58857700  0.63561900  0.18651200  1
  H  578  1  0.51624300  0.61905700  0.17201800  1
  H  579  1  0.50637900  0.65808000  0.20257100  1
  H  580  1  0.57889700  0.67431600  0.21645700  1
  H  583  1  0.50811900  0.52504100  0.06153300  1
  H  584  1  0.66395600  0.61210900  0.13951600  1
  H  586  1  0.52505000  0.56597900  0.23246100  1
  H  588  1  0.51988900  0.69959200  0.23163400  1
  H  595  1  0.92762800  0.56213800  0.26638800  1
  H  597  1  0.84260400  0.61177200  0.31268000  1
  H  598  1  0.85996000  0.62009900  0.33838600  1
  H  599  1  0.84421800  0.59270400  0.32483200  1
  H  608  1  0.92763000  0.74068600  0.47728300  1
  H  610  1  0.84264600  0.73729900  0.42757600  1
  H  611  1  0.86001000  0.75467700  0.41925500  1
  H  612  1  0.84424700  0.76851900  0.44663600  1
  H  621  1  0.92766000  0.77297300  0.29876200  1
  H  623  1  0.84259400  0.72671900  0.30207200  1
  H  624  1  0.85994400  0.70100700  0.28470200  1
  H  625  1  0.84422400  0.71456600  0.27085400  1
  H  634  1  0.42756500  0.48842700  0.76187400  1
  H  636  1  0.34259800  0.43869000  0.71553500  1
  H  637  1  0.35996500  0.43037400  0.68983900  1
  H  638  1  0.34419400  0.45775200  0.70337600  1
  H  647  1  0.42756700  0.30985600  0.55092100  1
  H  649  1  0.34262800  0.31327200  0.60070400  1
  H  650  1  0.36000200  0.29589100  0.60901300  1
  H  651  1  0.34421700  0.28205200  0.58164400  1
  H  660  1  0.42759700  0.27754100  0.72948600  1
  H  662  1  0.34252900  0.32379400  0.72617800  1
  H  663  1  0.35987900  0.34950600  0.74354300  1
  H  664  1  0.34416200  0.33595000  0.75739600  1
  H  673  1  0.01635600  0.31091700  0.76204800  1
  H  675  1  0.10169600  0.31328700  0.71564600  1
  H  676  1  0.08439400  0.29572900  0.68994600  1
  H  677  1  0.09994600  0.28212500  0.70384600  1
  H  686  1  0.01635200  0.27734800  0.55182100  1
  H  688  1  0.10172100  0.32373200  0.60053800  1
  H  689  1  0.08441900  0.34943600  0.60869500  1
  H  690  1  0.09995300  0.33553400  0.58117900  1
  H  699  1  0.01635600  0.48762200  0.72850200  1
  H  701  1  0.10162400  0.43873400  0.72609500  1
  H  702  1  0.08430900  0.43062100  0.74366600  1
  H  703  1  0.09989800  0.45810400  0.75725500  1
  H  712  1  0.51638800  0.73965700  0.26614900  1
  H  714  1  0.60167500  0.73724000  0.31259900  1
  H  715  1  0.58436000  0.75479400  0.33828800  1
  H  716  1  0.59993700  0.76840300  0.32440800  1
  H  725  1  0.51636500  0.77319900  0.47639900  1
  H  727  1  0.60161000  0.72669700  0.42747000  1
  H  728  1  0.58428800  0.70101900  0.41936200  1
  H  729  1  0.59988900  0.71490400  0.44683800  1
  H  738  1  0.51637400  0.56291100  0.29971700  1
  H  740  1  0.60159700  0.61188300  0.30217400  1
  H  741  1  0.58427200  0.61999000  0.28460400  1
  H  742  1  0.59988400  0.59252000  0.27101100  1
  H  751  1  0.70532300  0.60388500  0.49318200  1
  H  753  1  0.72851600  0.56368200  0.39446300  1
  H  754  1  0.75367000  0.55354700  0.40308900  1
  H  755  1  0.75328700  0.58265800  0.40690400  1
  H  764  1  0.70533700  0.92570200  0.43546300  1
  H  766  1  0.72852200  0.86731700  0.47581500  1
  H  767  1  0.75367700  0.88607600  0.48592700  1
  H  768  1  0.75329200  0.86075200  0.45683400  1
  H  777  1  0.70532300  0.54620100  0.11370600  1
  H  779  1  0.72850800  0.64493000  0.17216400  1
  H  780  1  0.75364900  0.63629800  0.15338600  1
  H  781  1  0.75329200  0.63250400  0.17869500  1
  H  790  1  0.20532500  0.44675900  0.53506500  1
  H  792  1  0.22850700  0.48676200  0.63376300  1
  H  793  1  0.25365100  0.49695300  0.62518300  1
  H  794  1  0.25329000  0.46781100  0.62129200  1
  H  803  1  0.20532700  0.12478600  0.59267100  1
  H  805  1  0.22850700  0.18337100  0.55254600  1
  H  806  1  0.25365300  0.16460200  0.54237600  1
  H  807  1  0.25328800  0.18987600  0.57150300  1
  H  816  1  0.20531200  0.50434700  0.91459400  1
  H  818  1  0.22849300  0.40562900  0.85605400  1
  H  819  1  0.25363800  0.41424100  0.87482400  1
  H  820  1  0.25327400  0.41807000  0.84953700  1
  H  829  1  0.97687200  0.55055000  0.55869100  1
  H  831  1  0.98181700  0.48448400  0.45899200  1
  H  832  1  0.97803600  0.51079400  0.45754800  1
  H  833  1  0.95300700  0.49488200  0.45889200  1
  H  842  1  0.97680900  0.04461200  0.48887400  1
  H  844  1  0.98189600  0.01091500  0.55488300  1
  H  845  1  0.97810900  0.98316500  0.52856900  1
  H  846  1  0.95308300  0.00040900  0.54450400  1
  H  855  1  0.97682800  0.48071000  0.99480000  1
  H  857  1  0.98182000  0.58041300  0.02845600  1
  H  858  1  0.97804400  0.58185600  0.05620900  1
  H  859  1  0.95301200  0.58052100  0.03896000  1
  H  868  1  0.47679600  0.50004100  0.46954900  1
  H  870  1  0.48193000  0.56601000  0.56926100  1
  H  871  1  0.47813800  0.53968400  0.57067400  1
  H  872  1  0.45311500  0.55564400  0.56940400  1
  H  881  1  0.47691100  0.00598800  0.53938400  1
  H  883  1  0.48178200  0.03959400  0.47329200  1
  H  884  1  0.47801600  0.06735300  0.49960200  1
  H  885  1  0.45297900  0.05009700  0.48370900  1
  H  894  1  0.47671300  0.56986800  0.03349500  1
  H  896  1  0.48195000  0.47014300  0.99967200  1
  H  897  1  0.47812900  0.46875300  0.97194700  1
  H  898  1  0.45312400  0.46999100  0.98918300  1
  C  1  1  0.90294600  0.67146000  0.46203100  1
  C  2  1  0.92078700  0.65471600  0.45844500  1
  C  3  1  0.91500700  0.63160200  0.45369100  1
  C  4  1  0.89122700  0.62411600  0.45292600  1
  C  5  1  0.87359800  0.64143400  0.45698800  1
  C  6  1  0.87920900  0.66447500  0.46161700  1
  C  7  1  0.88520800  0.59761600  0.44243400  1
  C  8  1  0.88923300  0.58891300  0.41588500  1
  C  9  1  0.87339000  0.59559600  0.40318000  1
  C  10  1  0.87792400  0.59077700  0.37988300  1
  C  11  1  0.89907600  0.57942600  0.36798600  1
  C  12  1  0.91520500  0.57289600  0.38041300  1
  C  13  1  0.91050600  0.57775400  0.40377400  1
  C  14  1  0.89976200  0.58426400  0.45210600  1
  C  15  1  0.85990900  0.59371800  0.44835600  1
  C  16  1  0.84377100  0.57723300  0.43125700  1
  C  17  1  0.81987700  0.57621600  0.43682200  1
  C  18  1  0.81115700  0.59103400  0.46012500  1
  C  19  1  0.82761600  0.60562900  0.47787500  1
  C  20  1  0.85145900  0.60659000  0.47215500  1
  C  21  1  0.91190200  0.59549900  0.47429100  1
  C  22  1  0.92342700  0.58241600  0.48346200  1
  C  23  1  0.92295400  0.55722900  0.47117300  1
  C  24  1  0.91056300  0.54586300  0.44928200  1
  C  25  1  0.89921400  0.55898800  0.44019300  1
  C  42  1  0.78734300  0.59155100  0.46591300  1
  C  43  1  0.90877500  0.69368800  0.46505600  1
  C  46  1  0.90449100  0.57534400  0.34521100  1
  C  48  1  0.93260000  0.54344800  0.48026800  1
  C  50  1  0.90295900  0.82696700  0.36796700  1
  C  51  1  0.92079600  0.84014000  0.38470600  1
  C  52  1  0.91501300  0.85853100  0.40780300  1
  C  53  1  0.89123500  0.86526100  0.41530400  1
  C  54  1  0.87361600  0.85196700  0.39798500  1
  C  55  1  0.87922400  0.83354300  0.37494900  1
  C  56  1  0.88521700  0.88125700  0.44179900  1
  C  57  1  0.88923600  0.86341900  0.45051200  1
  C  58  1  0.87339900  0.84402500  0.44382800  1
  C  59  1  0.87793600  0.82553700  0.44863100  1
  C  60  1  0.89910000  0.82497300  0.45995400  1
  C  61  1  0.91523900  0.84391600  0.46646400  1
  C  62  1  0.91053100  0.86242600  0.46161800  1
  C  63  1  0.89978100  0.90427400  0.45515300  1
  C  64  1  0.85992000  0.89107900  0.44569300  1
  C  65  1  0.84378100  0.89047600  0.46218200  1
  C  66  1  0.81988900  0.89706600  0.46320300  1
  C  67  1  0.81116700  0.90553700  0.44837200  1
  C  68  1  0.82762500  0.90866200  0.43375500  1
  C  69  1  0.85146900  0.90198800  0.43280500  1
  C  70  1  0.91189100  0.91524400  0.44392100  1
  C  71  1  0.92341000  0.93750100  0.45700200  1
  C  72  1  0.92296100  0.95038800  0.48218900  1
  C  73  1  0.91057900  0.93985700  0.49355500  1
  C  74  1  0.89923300  0.91764100  0.48042900  1
  C  91  1  0.78735500  0.91080900  0.44785200  1
  C  92  1  0.90879200  0.80775100  0.34575000  1
  C  95  1  0.90451400  0.80627700  0.46403300  1
  C  97  1  0.93262200  0.97325800  0.49597100  1
  C  99  1  0.90293700  0.57739000  0.21241600  1
  C  100  1  0.92077500  0.58095400  0.19924400  1
  C  101  1  0.91499200  0.58567000  0.18085700  1
  C  102  1  0.89121500  0.58645800  0.17413700  1
  C  103  1  0.87359600  0.58246700  0.18745500  1
  C  104  1  0.87920100  0.57781200  0.20585100  1
  C  105  1  0.88520200  0.59696100  0.15814200  1
  C  106  1  0.88922400  0.62350900  0.17598400  1
  C  107  1  0.87338300  0.63622500  0.19537300  1
  C  108  1  0.87792400  0.65951300  0.21386500  1
  C  109  1  0.89909400  0.67139500  0.21443400  1
  C  110  1  0.91524000  0.65895400  0.19550100  1
  C  111  1  0.91052900  0.63560200  0.17698900  1
  C  112  1  0.89976600  0.58730000  0.13512800  1
  C  113  1  0.85990500  0.59103500  0.14832000  1
  C  114  1  0.84377100  0.60813000  0.14891900  1
  C  115  1  0.81987800  0.60256500  0.14232900  1
  C  116  1  0.81115100  0.57926600  0.13386600  1
  C  117  1  0.82760600  0.56152000  0.13073300  1
  C  118  1  0.85144900  0.56724100  0.13741500  1
  C  119  1  0.91185600  0.56508700  0.12414200  1
  C  120  1  0.92339300  0.55592300  0.10189700  1
  C  121  1  0.92294600  0.56822900  0.08901500  1
  C  122  1  0.91057100  0.59012900  0.09955000  1
  C  123  1  0.89922600  0.59921800  0.12176900  1
  C  140  1  0.78733800  0.57348100  0.12859800  1
  C  141  1  0.90876800  0.57436800  0.23162100  1
  C  144  1  0.90451700  0.69416100  0.23314000  1
  C  146  1  0.93259600  0.55914300  0.06614100  1
  C  148  1  0.40290400  0.37909700  0.56621600  1
  C  149  1  0.42074200  0.39585600  0.56984500  1
  C  150  1  0.41496000  0.41896200  0.57457200  1
  C  151  1  0.39117800  0.42644200  0.57530500  1
  C  152  1  0.37356200  0.40911500  0.57123600  1
  C  153  1  0.37917000  0.38606500  0.56657900  1
  C  154  1  0.38519400  0.45295100  0.58581900  1
  C  155  1  0.38922300  0.46166000  0.61236900  1
  C  156  1  0.37338700  0.45494200  0.62505400  1
  C  157  1  0.37791600  0.45973500  0.64834300  1
  C  158  1  0.39905500  0.47109900  0.66025800  1
  C  159  1  0.41519400  0.47763200  0.64784300  1
  C  160  1  0.41049400  0.47280200  0.62449100  1
  C  161  1  0.39977300  0.46629200  0.57615100  1
  C  162  1  0.35989800  0.45686300  0.57990000  1
  C  163  1  0.34376100  0.47334100  0.59700600  1
  C  164  1  0.31987100  0.47437600  0.59144200  1
  C  165  1  0.31115100  0.45957400  0.56813500  1
  C  166  1  0.32761200  0.44498300  0.55038200  1
  C  167  1  0.35145900  0.44402600  0.55609700  1
  C  168  1  0.41189100  0.45506000  0.55395400  1
  C  169  1  0.42340500  0.46814200  0.54477700  1
  C  170  1  0.42295900  0.49333000  0.55707900  1
  C  171  1  0.41056000  0.50469600  0.57896800  1
  C  172  1  0.39920900  0.49156700  0.58805200  1
  C  189  1  0.28734100  0.45907900  0.56234500  1
  C  190  1  0.40872800  0.35686300  0.56317500  1
  C  193  1  0.40446200  0.47516900  0.68303100  1
  C  195  1  0.43262300  0.50711700  0.54799800  1
  C  197  1  0.40290100  0.22355700  0.66027300  1
  C  198  1  0.42074200  0.21041800  0.64352200  1
  C  199  1  0.41496200  0.19203800  0.62041600  1
  C  200  1  0.39118000  0.18529200  0.61293100  1
  C  201  1  0.37356200  0.19856000  0.63025300  1
  C  202  1  0.37916600  0.21696600  0.65329700  1
  C  203  1  0.38519900  0.16929100  0.58642400  1
  C  204  1  0.38923000  0.18712800  0.57771000  1
  C  205  1  0.37339000  0.20652700  0.58441700  1
  C  206  1  0.37791600  0.22501600  0.57961100  1
  C  207  1  0.39906900  0.22557700  0.56826900  1
  C  208  1  0.41520600  0.20662900  0.56174000  1
  C  209  1  0.41051200  0.18811900  0.56658700  1
  C  210  1  0.39977800  0.14628300  0.57309000  1
  C  211  1  0.35990300  0.15946000  0.58251200  1
  C  212  1  0.34376600  0.16008400  0.56603200  1
  C  213  1  0.31987700  0.15348900  0.56500100  1
  C  214  1  0.31115300  0.14499900  0.57981400  1
  C  215  1  0.32760800  0.14185500  0.59441900  1
  C  216  1  0.35146100  0.14850700  0.59536100  1
  C  217  1  0.41189100  0.13532100  0.58432600  1
  C  218  1  0.42339600  0.11305600  0.57124900  1
  C  219  1  0.42297000  0.10017500  0.54606100  1
  C  220  1  0.41056900  0.11069000  0.53469100  1
  C  221  1  0.39921900  0.13290600  0.54781300  1
  C  238  1  0.28734100  0.13971000  0.58031300  1
  C  239  1  0.40872800  0.24276100  0.68250100  1
  C  242  1  0.40447400  0.24427500  0.56419200  1
  C  244  1  0.43259500  0.07728700  0.53228300  1
  C  246  1  0.40289500  0.47315900  0.81583800  1
  C  247  1  0.42074000  0.46955300  0.82897900  1
  C  248  1  0.41496900  0.46483600  0.84736600  1
  C  249  1  0.39119100  0.46405100  0.85407600  1
  C  250  1  0.37355400  0.46811500  0.84082700  1
  C  251  1  0.37916100  0.47274400  0.82241400  1
  C  252  1  0.38517900  0.45356300  0.87008900  1
  C  253  1  0.38920700  0.42701200  0.85225800  1
  C  254  1  0.37335800  0.41431100  0.83287100  1
  C  255  1  0.37788800  0.39101900  0.81437900  1
  C  256  1  0.39905100  0.37912700  0.81380500  1
  C  257  1  0.41519900  0.39155400  0.83274300  1
  C  258  1  0.41050300  0.41491100  0.85125300  1
  C  259  1  0.39975500  0.46323600  0.89309900  1
  C  260  1  0.35988600  0.45949200  0.87992300  1
  C  261  1  0.34375200  0.44240100  0.87933200  1
  C  262  1  0.31986100  0.44796900  0.88592100  1
  C  263  1  0.31113900  0.47127100  0.89439600  1
  C  264  1  0.32759400  0.48901400  0.89752400  1
  C  265  1  0.35143800  0.48329000  0.89084300  1
  C  266  1  0.41184300  0.48544800  0.90407900  1
  C  267  1  0.42337400  0.49461900  0.92632900  1
  C  268  1  0.42292900  0.48231700  0.93921500  1
  C  269  1  0.41055300  0.46041800  0.92868400  1
  C  270  1  0.39920700  0.45132500  0.90646500  1
  C  287  1  0.28732700  0.47706100  0.89968400  1
  C  288  1  0.40871900  0.47619100  0.79663800  1
  C  291  1  0.40446300  0.35635800  0.79510000  1
  C  293  1  0.43257900  0.49140700  0.96208900  1
  C  295  1  0.04158800  0.22371200  0.56742900  1
  C  296  1  0.02385600  0.20981900  0.57004800  1
  C  297  1  0.02974900  0.19148600  0.57481200  1
  C  298  1  0.05358000  0.18551400  0.57653000  1
  C  299  1  0.07110700  0.19964900  0.57365100  1
  C  300  1  0.06538700  0.21799400  0.56897000  1
  C  301  1  0.05962400  0.16931500  0.58680000  1
  C  302  1  0.05544600  0.18706300  0.61335000  1
  C  303  1  0.07161400  0.20603400  0.62646500  1
  C  304  1  0.06688700  0.22459800  0.64966600  1
  C  305  1  0.04517300  0.22573300  0.66100400  1
  C  306  1  0.02869000  0.20725000  0.64815600  1
  C  307  1  0.03361600  0.18863500  0.62491300  1
  C  308  1  0.04512200  0.14628700  0.57700600  1
  C  309  1  0.08493700  0.15957600  0.58084900  1
  C  310  1  0.10089700  0.15967500  0.59782500  1
  C  311  1  0.12520200  0.15500000  0.59289000  1
  C  312  1  0.13446100  0.14889300  0.57028700  1
  C  313  1  0.11815100  0.14551300  0.55233100  1
  C  314  1  0.09387800  0.15006300  0.55736000  1
  C  315  1  0.03370800  0.13499400  0.55444500  1
  C  316  1  0.02140500  0.11318300  0.54563900  1
  C  317  1  0.02026700  0.10107900  0.55871600  1
  C  318  1  0.03242600  0.11173500  0.58076400  1
  C  319  1  0.04471500  0.13340800  0.58940200  1
  C  336  1  0.15868000  0.14819900  0.56589700  1
  C  337  1  0.03557600  0.24276000  0.56420300  1
  C  340  1  0.03958600  0.24458900  0.68361900  1
  C  342  1  0.00826700  0.07940100  0.55091600  1
  C  344  1  0.04158100  0.47196200  0.65923500  1
  C  345  1  0.02385200  0.46936500  0.64272700  1
  C  346  1  0.02974900  0.46461100  0.61963400  1
  C  347  1  0.05358200  0.46286000  0.61193700  1
  C  348  1  0.07110200  0.46567600  0.62893400  1
  C  349  1  0.06538200  0.47037600  0.65196600  1
  C  350  1  0.05962500  0.45259500  0.58546800  1
  C  351  1  0.05545600  0.42604600  0.57668100  1
  C  352  1  0.07164600  0.41290700  0.58247900  1
  C  353  1  0.06690600  0.38970800  0.57784300  1
  C  354  1  0.04517700  0.37839100  0.56766800  1
  C  355  1  0.02868500  0.39125700  0.56206800  1
  C  356  1  0.03361200  0.41450300  0.56670500  1
  C  357  1  0.04513800  0.46239000  0.57222600  1
  C  358  1  0.08493800  0.45855100  0.58168600  1
  C  359  1  0.10089000  0.44158200  0.56479500  1
  C  360  1  0.12519200  0.44651700  0.56503000  1
  C  361  1  0.13446100  0.46910300  0.58155200  1
  C  362  1  0.11816000  0.48706500  0.59614400  1
  C  363  1  0.09389000  0.48203300  0.59569200  1
  C  364  1  0.03372300  0.48495200  0.58349900  1
  C  365  1  0.02140900  0.49375400  0.57049700  1
  C  366  1  0.02024700  0.48066600  0.54531600  1
  C  367  1  0.03239000  0.45860900  0.53392100  1
  C  368  1  0.04469200  0.44997400  0.54695300  1
  C  385  1  0.15868200  0.47348300  0.58525100  1
  C  386  1  0.03556200  0.47519300  0.68151000  1
  C  389  1  0.03958800  0.35577200  0.56390200  1
  C  391  1  0.00823200  0.48846000  0.53144200  1
  C  393  1  0.04157900  0.38016400  0.81568700  1
  C  394  1  0.02384500  0.39666300  0.82959900  1
  C  395  1  0.02973800  0.41976500  0.84792000  1
  C  396  1  0.05357000  0.42746200  0.85389000  1
  C  397  1  0.07109600  0.41045400  0.83973900  1
  C  398  1  0.06537900  0.38743300  0.82138300  1
  C  399  1  0.05960900  0.45393100  0.87008500  1
  C  400  1  0.05543900  0.46271300  0.85232000  1
  C  401  1  0.07161400  0.45688700  0.83336400  1
  C  402  1  0.06687300  0.46152600  0.81480500  1
  C  403  1  0.04515900  0.47173600  0.81368200  1
  C  404  1  0.02868600  0.47738100  0.83217700  1
  C  405  1  0.03360700  0.47271800  0.85077000  1
  C  406  1  0.04512200  0.46717400  0.89312100  1
  C  407  1  0.08492400  0.45771900  0.87981900  1
  C  408  1  0.10088500  0.47459100  0.87971000  1
  C  409  1  0.12518800  0.47434300  0.88439400  1
  C  410  1  0.13444900  0.45786000  0.89051700  1
  C  411  1  0.11814100  0.44329200  0.89391600  1
  C  412  1  0.09387200  0.44374000  0.88932700  1
  C  413  1  0.03369000  0.45590200  0.90440400  1
  C  414  1  0.02136800  0.46890400  0.92620100  1
  C  415  1  0.02023300  0.49408600  0.93830800  1
  C  416  1  0.03239200  0.50548200  0.92765300  1
  C  417  1  0.04469200  0.49244800  0.90598800  1
  C  434  1  0.15866800  0.45417100  0.89122500  1
  C  435  1  0.03556600  0.35789500  0.79663200  1
  C  438  1  0.03956900  0.47550400  0.79483200  1
  C  440  1  0.00821400  0.50796100  0.95997300  1
  C  442  1  0.54157400  0.82681400  0.46075400  1
  C  443  1  0.52384900  0.84073300  0.45816900  1
  C  444  1  0.52975400  0.85908000  0.45342900  1
  C  445  1  0.55358800  0.86506400  0.45171600  1
  C  446  1  0.57109700  0.85088500  0.45455600  1
  C  447  1  0.56537300  0.83252100  0.45920700  1
  C  448  1  0.55963300  0.88124300  0.44143000  1
  C  449  1  0.55547200  0.86348500  0.41488200  1
  C  450  1  0.57163200  0.84451000  0.40175500  1
  C  451  1  0.56689200  0.82594000  0.37856100  1
  C  452  1  0.54518100  0.82481300  0.36722600  1
  C  453  1  0.52870800  0.84330500  0.38007200  1
  C  454  1  0.53363200  0.86190400  0.40332400  1
  C  455  1  0.54513800  0.90427400  0.45121400  1
  C  456  1  0.58494700  0.89097500  0.44738100  1
  C  457  1  0.60091800  0.89085300  0.43040200  1
  C  458  1  0.62521800  0.89555200  0.43534200  1
  C  459  1  0.63447400  0.90168800  0.45795300  1
  C  460  1  0.61816600  0.90505300  0.47590700  1
  C  461  1  0.59389600  0.90047000  0.47086400  1
  C  462  1  0.53372400  0.91557200  0.47377600  1
  C  463  1  0.52141100  0.93737600  0.48257600  1
  C  464  1  0.52027200  0.94947700  0.46949600  1
  C  465  1  0.53242800  0.93881800  0.44744600  1
  C  466  1  0.54472300  0.91714700  0.43881200  1
  C  483  1  0.65869400  0.90242600  0.46236400  1
  C  484  1  0.53555200  0.80774900  0.46394900  1
  C  487  1  0.53959400  0.80596000  0.34460600  1
  C  489  1  0.50825700  0.97114500  0.47728700  1
  C  491  1  0.54157500  0.57857500  0.36898700  1
  C  492  1  0.52384700  0.58116600  0.38549100  1
  C  493  1  0.52975100  0.58591600  0.40858200  1
  C  494  1  0.55358100  0.58764200  0.41628800  1
  C  495  1  0.57109000  0.58482400  0.39927600  1
  C  496  1  0.56537500  0.58012000  0.37624200  1
  C  497  1  0.55962000  0.59793600  0.44275600  1
  C  498  1  0.55545300  0.62448100  0.45153800  1
  C  499  1  0.57161300  0.63760900  0.44569200  1
  C  500  1  0.56687100  0.66080100  0.45030900  1
  C  501  1  0.54515600  0.67213400  0.46051400  1
  C  502  1  0.52868100  0.65928300  0.46615000  1
  C  503  1  0.53360900  0.63603300  0.46150300  1
  C  504  1  0.54512600  0.58815500  0.45600400  1
  C  505  1  0.58493500  0.59199200  0.44654600  1
  C  506  1  0.60089900  0.60897800  0.46340400  1
  C  507  1  0.62519900  0.60404000  0.46318900  1
  C  508  1  0.63446300  0.58144200  0.44668600  1
  C  509  1  0.61816000  0.56347600  0.43210800  1
  C  510  1  0.59389000  0.56851200  0.43255900  1
  C  511  1  0.53372000  0.56558700  0.44474200  1
  C  512  1  0.52140700  0.55679000  0.45774900  1
  C  513  1  0.52026500  0.56987400  0.48293000  1
  C  514  1  0.53241300  0.59192900  0.49431800  1
  C  515  1  0.54470300  0.60056300  0.48127800  1
  C  532  1  0.65868400  0.57705300  0.44299700  1
  C  533  1  0.53555700  0.57536100  0.34671900  1
  C  536  1  0.53956200  0.69474600  0.46426600  1
  C  538  1  0.50825800  0.56208000  0.49680800  1
  C  540  1  0.54159100  0.67040200  0.21252300  1
  C  541  1  0.52386100  0.65386400  0.19867600  1
  C  542  1  0.52976300  0.63077100  0.18033900  1
  C  543  1  0.55360000  0.62310400  0.17431000  1
  C  544  1  0.57111400  0.64015000  0.18841500  1
  C  545  1  0.56539300  0.66317800  0.20675300  1
  C  546  1  0.55961300  0.59662500  0.15813900  1
  C  547  1  0.55542600  0.58784300  0.17590100  1
  C  548  1  0.57155800  0.59377500  0.19491800  1
  C  549  1  0.56682000  0.58915500  0.21349100  1
  C  550  1  0.54515400  0.57884300  0.21456100  1
  C  551  1  0.52871100  0.57312100  0.19602600  1
  C  552  1  0.53363200  0.57776400  0.17742100  1
  C  553  1  0.54511200  0.58339100  0.13511000  1
  C  554  1  0.58493200  0.59281500  0.14840900  1
  C  555  1  0.60090400  0.57600100  0.14861300  1
  C  556  1  0.62520800  0.57624300  0.14392800  1
  C  557  1  0.63446000  0.59267900  0.13773800  1
  C  558  1  0.61814600  0.60719400  0.13427000  1
  C  559  1  0.59386500  0.60671500  0.13880600  1
  C  560  1  0.53364600  0.59466200  0.12384400  1
  C  561  1  0.52134000  0.58165600  0.10203600  1
  C  562  1  0.52024900  0.55647300  0.08990400  1
  C  563  1  0.53245600  0.54507800  0.10053200  1
  C  564  1  0.54474600  0.55811600  0.12220500  1
  C  581  1  0.65867900  0.59637900  0.13704100  1
  C  582  1  0.53558000  0.69267000  0.23157800  1
  C  585  1  0.53956700  0.57507500  0.23341300  1
  C  587  1  0.50824400  0.54259500  0.06822900  1
  C  589  1  0.89556500  0.58082400  0.26975700  1
  C  591  1  0.87510700  0.59287800  0.30655600  1
  C  592  1  0.89306100  0.58249600  0.31364700  1
  C  594  1  0.91340400  0.57052700  0.27694700  1
  C  596  1  0.85425600  0.60507400  0.32143900  1
  C  602  1  0.89557800  0.72535600  0.45857800  1
  C  604  1  0.87513400  0.75008300  0.44649300  1
  C  605  1  0.89308100  0.76756300  0.45688400  1
  C  607  1  0.91341400  0.74284700  0.46887900  1
  C  609  1  0.85429300  0.75275900  0.43427800  1
  C  615  1  0.89557800  0.76962200  0.31406500  1
  C  617  1  0.87511200  0.73282900  0.28931500  1
  C  618  1  0.89307500  0.72573000  0.27184900  1
  C  620  1  0.91342900  0.76242000  0.29658800  1
  C  622  1  0.85425100  0.71795500  0.28662000  1
  C  628  1  0.39552100  0.46970800  0.75849100  1
  C  630  1  0.37508000  0.45761800  0.72167500  1
  C  631  1  0.39302400  0.46801500  0.71459100  1
  C  633  1  0.41335100  0.48001700  0.75130500  1
  C  635  1  0.35424400  0.44539500  0.70678000  1
  C  641  1  0.39553100  0.32519800  0.56965600  1
  C  643  1  0.37510200  0.30047800  0.58176100  1
  C  644  1  0.39304200  0.28299300  0.57135600  1
  C  646  1  0.41335900  0.30770000  0.55934000  1
  C  648  1  0.35427200  0.29780900  0.59399300  1
  C  654  1  0.39551700  0.28089400  0.71418100  1
  C  656  1  0.37504800  0.31768500  0.73893100  1
  C  657  1  0.39301400  0.32478700  0.75639600  1
  C  659  1  0.41336600  0.28809400  0.73166000  1
  C  661  1  0.35418700  0.33256000  0.74162700  1
  C  667  1  0.04854700  0.32594500  0.75852500  1
  C  669  1  0.06906100  0.30081200  0.72188200  1
  C  670  1  0.05102700  0.28343500  0.71493700  1
  C  672  1  0.03062200  0.30856100  0.75147700  1
  C  674  1  0.08999500  0.29785800  0.70700500  1
  C  680  1  0.04855900  0.28086200  0.57034700  1
  C  682  1  0.06907200  0.31750400  0.58185000  1
  C  683  1  0.05102900  0.32445300  0.57143100  1
  C  685  1  0.03062400  0.28791500  0.56002400  1
  C  687  1  0.09001300  0.33237700  0.59376000  1
  C  693  1  0.04852000  0.46902000  0.71345700  1
  C  695  1  0.06901400  0.45748900  0.73858500  1
  C  696  1  0.05099400  0.46794800  0.75596900  1
  C  698  1  0.03061000  0.47939000  0.73085300  1
  C  700  1  0.08993100  0.44554000  0.74152900  1
  C  706  1  0.54856300  0.72461400  0.26968700  1
  C  708  1  0.56905600  0.74972800  0.30634900  1
  C  709  1  0.55102900  0.76711000  0.31328800  1
  C  711  1  0.53064200  0.74200200  0.27673000  1
  C  713  1  0.58997800  0.75267100  0.32123800  1
  C  719  1  0.54852400  0.76963800  0.45778800  1
  C  721  1  0.56900700  0.73297100  0.44624000  1
  C  722  1  0.55099000  0.72604800  0.45670600  1
  C  724  1  0.53061400  0.76261100  0.46815800  1
  C  726  1  0.58991900  0.71807100  0.43427900  1
  C  732  1  0.54852400  0.58153800  0.31477800  1
  C  734  1  0.56900300  0.59310100  0.28966800  1
  C  735  1  0.55099000  0.58263000  0.27227500  1
  C  737  1  0.53061900  0.57116100  0.29737600  1
  C  739  1  0.58990900  0.60507200  0.28673500  1
  C  745  1  0.69797900  0.58816200  0.45624100  1
  C  747  1  0.73289800  0.57850700  0.43189600  1
  C  748  1  0.74733700  0.58684100  0.45238400  1
  C  750  1  0.71244700  0.59685300  0.47655100  1
  C  752  1  0.74261300  0.56904300  0.40767600  1
  C  758  1  0.69798900  0.90453700  0.45124400  1
  C  760  1  0.73290600  0.88988100  0.46094100  1
  C  761  1  0.74734800  0.90200800  0.45257800  1
  C  763  1  0.71246100  0.91612800  0.44252200  1
  C  765  1  0.74261800  0.87515200  0.47043700  1
  C  771  1  0.69797500  0.58314100  0.13492600  1
  C  773  1  0.73289200  0.60749500  0.14957200  1
  C  774  1  0.74733400  0.58700900  0.13741700  1
  C  776  1  0.71244500  0.56283300  0.12329700  1
  C  778  1  0.74260400  0.63171900  0.16431000  1
  C  784  1  0.19797700  0.46240200  0.57199800  1
  C  786  1  0.23289200  0.47202300  0.59634100  1
  C  787  1  0.24733400  0.46374900  0.57586300  1
  C  789  1  0.21244600  0.45376100  0.55169400  1
  C  791  1  0.24260400  0.48144000  0.62055700  1
  C  797  1  0.19797700  0.14603100  0.57698000  1
  C  799  1  0.23289400  0.16072600  0.56732700  1
  C  800  1  0.24733500  0.14854600  0.57562800  1
  C  802  1  0.21244800  0.13439400  0.58564800  1
  C  804  1  0.24260600  0.17550300  0.55788400  1
  C  810  1  0.19796300  0.46740700  0.89336000  1
  C  812  1  0.23288000  0.44305700  0.87867500  1
  C  813  1  0.24732100  0.46354100  0.89084400  1
  C  815  1  0.21243400  0.48771500  0.90499000  1
  C  817  1  0.24259200  0.41883700  0.86391500  1
  C  823  1  0.98556000  0.51771100  0.52796300  1
  C  825  1  0.97124200  0.51496000  0.49149400  1
  C  826  1  0.96076500  0.53791500  0.50450900  1
  C  828  1  0.97541500  0.54057800  0.54061300  1
  C  830  1  0.97100700  0.50047000  0.46525000  1
  C  836  1  0.98557200  0.04668400  0.52167900  1
  C  838  1  0.97128400  0.01295200  0.52442300  1
  C  839  1  0.96081100  0.00300800  0.50146500  1
  C  841  1  0.97538900  0.03648700  0.49883200  1
  C  843  1  0.97107600  0.00119000  0.53890400  1
  C  849  1  0.98554000  0.51144200  0.99270400  1
  C  851  1  0.97123600  0.54791300  0.02642800  1
  C  852  1  0.96077400  0.53489900  0.03637600  1
  C  854  1  0.97539100  0.49879100  0.00291700  1
  C  856  1  0.97101000  0.57415700  0.03818500  1
  C  862  1  0.48555800  0.53284300  0.50028700  1
  C  864  1  0.47128300  0.53557300  0.53676000  1
  C  865  1  0.46079300  0.51262500  0.52374200  1
  C  867  1  0.47537500  0.50999600  0.48763200  1
  C  869  1  0.47110100  0.55003700  0.56300600  1
  C  875  1  0.48558000  0.00387300  0.50653800  1
  C  877  1  0.47123400  0.03757600  0.50378000  1
  C  878  1  0.46076500  0.04752000  0.52673900  1
  C  880  1  0.47543600  0.01408500  0.52940500  1
  C  882  1  0.47098300  0.04932500  0.48928600  1
  C  888  1  0.48551800  0.53912200  0.03553100  1
  C  890  1  0.47126700  0.50265200  0.00177300  1
  C  891  1  0.46071700  0.51567400  0.99187600  1
  C  893  1  0.47531100  0.55178200  0.02535600  1
  C  895  1  0.47110300  0.47640400  0.98997100  1
  N  590  1  0.87727500  0.59145800  0.28499800  1
  N  593  1  0.91146700  0.57175900  0.29841900  1
  N  600  1  0.89467300  0.58103300  0.24941900  1
  N  601  1  0.89163600  0.58360400  0.33462800  1
  N  603  1  0.87729900  0.72995000  0.44792300  1
  N  606  1  0.91147800  0.76308300  0.46764000  1
  N  613  1  0.89468900  0.70480800  0.45836900  1
  N  614  1  0.89165300  0.78743600  0.45577900  1
  N  616  1  0.87728100  0.75438800  0.30945400  1
  N  619  1  0.91149000  0.74095000  0.27634700  1
  N  626  1  0.89468900  0.78995900  0.33461200  1
  N  627  1  0.89164300  0.70475400  0.25197100  1
  N  629  1  0.37724400  0.45905000  0.74324000  1
  N  632  1  0.41141900  0.47877700  0.72982900  1
  N  639  1  0.39462600  0.46951400  0.77883700  1
  N  640  1  0.39159900  0.46690800  0.69360900  1
  N  642  1  0.37726200  0.32061100  0.58032700  1
  N  645  1  0.41142800  0.28746700  0.56058300  1
  N  652  1  0.39463300  0.34573800  0.56985000  1
  N  653  1  0.39161700  0.26311800  0.57245900  1
  N  655  1  0.37721800  0.29612700  0.71879500  1
  N  658  1  0.41142800  0.30956600  0.75189900  1
  N  665  1  0.39462800  0.26055500  0.69363400  1
  N  666  1  0.39158900  0.34576700  0.77627100  1
  N  668  1  0.06689900  0.32110600  0.74330400  1
  N  671  1  0.03255500  0.28815900  0.73014500  1
  N  678  1  0.04950000  0.34658900  0.77873200  1
  N  679  1  0.05249100  0.26339900  0.69412400  1
  N  681  1  0.06691500  0.29608100  0.58072000  1
  N  684  1  0.03255100  0.30924800  0.56095700  1
  N  691  1  0.04951900  0.26065100  0.57077400  1
  N  692  1  0.05249000  0.34526700  0.57221000  1
  N  694  1  0.06685800  0.45861500  0.71828800  1
  N  697  1  0.03253700  0.47846000  0.75125600  1
  N  704  1  0.04948400  0.46858500  0.69281400  1
  N  705  1  0.05245400  0.46717400  0.77600700  1
  N  707  1  0.56690300  0.72944200  0.28491900  1
  N  710  1  0.53256900  0.76239900  0.29806900  1
  N  717  1  0.54952600  0.70398000  0.24947000  1
  N  718  1  0.55249300  0.78714600  0.33410400  1
  N  720  1  0.56685500  0.75439700  0.44737300  1
  N  723  1  0.53253900  0.74127800  0.46722400  1
  N  730  1  0.54948800  0.78984800  0.45735900  1
  N  731  1  0.55245600  0.70524100  0.45594100  1
  N  733  1  0.56685100  0.59196200  0.30995700  1
  N  736  1  0.53254300  0.57210000  0.27697800  1
  N  743  1  0.54948900  0.58195800  0.33541200  1
  N  744  1  0.55245100  0.58340800  0.25223900  1
  N  746  1  0.70900200  0.57960400  0.43484500  1
  N  749  1  0.73631700  0.59577400  0.47385800  1
  N  756  1  0.67454500  0.58981800  0.45836300  1
  N  757  1  0.77080300  0.58655100  0.45049100  1
  N  759  1  0.70901300  0.89172800  0.45983400  1
  N  762  1  0.73632900  0.91451700  0.44360900  1
  N  769  1  0.67455700  0.90498500  0.44957200  1
  N  770  1  0.77081300  0.90040100  0.45286700  1
  N  772  1  0.70899700  0.60454200  0.14773600  1
  N  775  1  0.73631500  0.56553200  0.12489700  1
  N  782  1  0.67454300  0.58101800  0.13445000  1
  N  783  1  0.77079900  0.58890300  0.13902100  1
  N  785  1  0.20899900  0.47092000  0.59338900  1
  N  788  1  0.23631700  0.45484900  0.55439100  1
  N  795  1  0.17454300  0.46074300  0.56987200  1
  N  796  1  0.27080100  0.46404700  0.57775900  1
  N  798  1  0.20899900  0.15888200  0.56843600  1
  N  801  1  0.23631700  0.13599800  0.58455500  1
  N  808  1  0.17454500  0.14557600  0.57864800  1
  N  809  1  0.27080100  0.15014500  0.57533100  1
  N  811  1  0.20898500  0.44601100  0.88052000  1
  N  814  1  0.23630500  0.48501600  0.90338500  1
  N  821  1  0.17453100  0.46953400  0.89381900  1
  N  822  1  0.27078700  0.46164300  0.88925200  1
  N  824  1  0.98299100  0.50617400  0.50385200  1
  N  827  1  0.96381200  0.54967900  0.52854300  1
  N  834  1  0.99741800  0.50858700  0.53953300  1
  N  835  1  0.94996800  0.54980200  0.49513100  1
  N  837  1  0.98302500  0.03410000  0.53320900  1
  N  840  1  0.96380000  0.01530900  0.48972600  1
  N  847  1  0.99741700  0.06738600  0.53080900  1
  N  848  1  0.94998100  0.98176100  0.48959900  1
  N  850  1  0.98297900  0.53555300  0.00528000  1
  N  853  1  0.96379500  0.51086100  0.02409200  1
  N  860  1  0.99739700  0.49987200  0.97200800  1
  N  861  1  0.94995800  0.54427400  0.05763100  1
  N  863  1  0.48302700  0.54436200  0.52440200  1
  N  866  1  0.46378500  0.50088700  0.49970000  1
  N  873  1  0.49741300  0.54197000  0.48871700  1
  N  874  1  0.44997300  0.50074400  0.53311300  1
  N  876  1  0.48299100  0.01643700  0.49499500  1
  N  879  1  0.46383100  0.03525600  0.53850700  1
  N  886  1  0.49743800  0.98317800  0.49741100  1
  N  887  1  0.44998000  0.06878900  0.53862600  1
  N  889  1  0.48301200  0.51500600  0.02291900  1
  N  892  1  0.46370700  0.53971500  0.00418400  1
  N  899  1  0.49737600  0.55069000  0.05622700  1
  N  900  1  0.44992200  0.50630100  0.97061200  1
