# generated using pymatgen
data_H24C47(N2O)4
_symmetry_space_group_name_H-M   'P 1'
_cell_length_a   33.59600000
_cell_length_b   59.55405000
_cell_length_c   59.55440000
_cell_angle_alpha   120.00058323
_cell_angle_beta   89.99780000
_cell_angle_gamma   90.00000003
_symmetry_Int_Tables_number   1
_chemical_formula_structural   H24C47(N2O)4
_chemical_formula_sum   'H288 C564 N96 O48'
_cell_volume   103190.75886606
_cell_formula_units_Z   12
loop_
 _symmetry_equiv_pos_site_id
 _symmetry_equiv_pos_as_xyz
  1  'x, y, z'
loop_
 _atom_site_type_symbol
 _atom_site_label
 _atom_site_symmetry_multiplicity
 _atom_site_fract_x
 _atom_site_fract_y
 _atom_site_fract_z
 _atom_site_occupancy
  H  25  1  0.88007400  0.91636700  0.29760700  1
  H  26  1  0.81906500  0.93305000  0.29337800  1
  H  27  1  0.67333600  0.93304200  0.29331800  1
  H  28  1  0.61230200  0.91635300  0.29751300  1
  H  29  1  0.66844000  0.84981400  0.28899100  1
  H  30  1  0.82393000  0.84972800  0.28883700  1
  H  31  1  0.74441300  0.85379300  0.23862600  1
  H  32  1  0.74623500  0.90488000  0.33937800  1
  H  33  1  0.74631700  0.82219700  0.33645700  1
  H  34  1  0.74610900  0.86077700  0.37550400  1
  H  37  1  0.74624100  0.93408100  0.30731300  1
  H  38  1  0.74617300  0.91750200  0.27293100  1
  H  40  1  0.72027900  0.80364300  0.28898900  1
  H  41  1  0.77308100  0.80384300  0.28895500  1
  H  45  1  0.89684100  0.85295900  0.29174300  1
  H  46  1  0.59555300  0.85294800  0.29170200  1
  H  47  1  0.74620200  0.92699700  0.38761000  1
  H  49  1  0.74271400  0.82917800  0.19189200  1
  H  70  1  0.38007000  0.90789500  0.61643000  1
  H  71  1  0.31905100  0.89121600  0.62066500  1
  H  72  1  0.17332200  0.89121500  0.62072100  1
  H  73  1  0.11229100  0.90789800  0.61651900  1
  H  74  1  0.16842600  0.97442600  0.62501100  1
  H  75  1  0.32392000  0.97453000  0.62519000  1
  H  76  1  0.24434500  0.97045400  0.67538500  1
  H  77  1  0.24623800  0.91937200  0.57464000  1
  H  78  1  0.24606000  0.96347300  0.53851300  1
  H  81  1  0.24623800  0.89017100  0.60671200  1
  H  82  1  0.24616100  0.90675700  0.64109500  1
  H  86  1  0.39684000  0.97129600  0.62228100  1
  H  87  1  0.09554200  0.97130500  0.62232900  1
  H  88  1  0.24619700  0.89725300  0.52641000  1
  H  109  1  0.10953500  0.91029800  0.28979600  1
  H  110  1  0.17214900  0.89150800  0.27085400  1
  H  111  1  0.32023200  0.89153300  0.27088100  1
  H  112  1  0.38282900  0.91032600  0.28983200  1
  H  113  1  0.32327400  0.97362200  0.35084500  1
  H  114  1  0.16904500  0.97355100  0.35086700  1
  H  115  1  0.24677400  0.96941800  0.29607000  1
  H  116  1  0.24621200  0.91985000  0.34744800  1
  H  117  1  0.24631300  0.96551400  0.42808000  1
  H  120  1  0.24620900  0.88910600  0.28466000  1
  H  121  1  0.24619100  0.90604000  0.26725000  1
  H  125  1  0.09834000  0.97498300  0.34606800  1
  H  126  1  0.39405100  0.97499900  0.34609800  1
  H  127  1  0.24623300  0.89864000  0.37447400  1
  H  128  1  0.25371600  0.99332300  0.27378600  1
  H  153  1  0.60953400  0.91395200  0.62422300  1
  H  154  1  0.67214900  0.93274300  0.64316100  1
  H  155  1  0.82022800  0.93272100  0.64312900  1
  H  156  1  0.88282800  0.91392500  0.62418100  1
  H  157  1  0.82327900  0.85062200  0.56317200  1
  H  158  1  0.66904700  0.85069600  0.56315100  1
  H  159  1  0.74678000  0.85482900  0.61794700  1
  H  160  1  0.74621700  0.90439800  0.56656900  1
  H  161  1  0.74620600  0.82072200  0.48776000  1
  H  162  1  0.74630900  0.85873200  0.48593500  1
  H  165  1  0.74620600  0.93514200  0.62935300  1
  H  166  1  0.74618700  0.91821000  0.64676500  1
  H  168  1  0.77242200  0.80337400  0.51765600  1
  H  169  1  0.71960400  0.80341100  0.51756600  1
  H  173  1  0.59834800  0.84927100  0.56792000  1
  H  174  1  0.89405800  0.84925100  0.56790400  1
  H  175  1  0.74623200  0.92560800  0.53954300  1
  H  177  1  0.75372300  0.83092600  0.64022600  1
  H  190  1  0.74621800  0.99277200  0.50030400  1
  H  191  1  0.74621400  0.82921800  0.41417600  1
  H  206  1  0.24621800  0.83147800  0.41371500  1
  H  221  1  0.05191500  0.86860000  0.33968100  1
  H  222  1  0.94662800  0.95709600  0.28094000  1
  H  237  1  0.55191400  0.95565000  0.57433400  1
  H  238  1  0.44662800  0.86714800  0.63307400  1
  H  253  1  0.94051700  0.95566200  0.57434800  1
  H  254  1  0.04575700  0.86715100  0.63308800  1
  H  269  1  0.44051100  0.86858900  0.33967000  1
  H  270  1  0.54576500  0.95709400  0.28092600  1
  H  275  1  0.74440200  0.77211800  0.20032400  1
  H  276  1  0.74643600  0.77384100  0.24108900  1
  H  277  1  0.74743800  0.77312300  0.57558900  1
  H  278  1  0.74603100  0.77426200  0.53622600  1
  H  280  1  0.84611600  0.77468900  0.10176400  1
  H  308  1  0.88005100  0.24844800  0.95277100  1
  H  309  1  0.81904300  0.22754300  0.93609100  1
  H  310  1  0.67330400  0.22750000  0.93608500  1
  H  311  1  0.61227600  0.24838900  0.95277200  1
  H  312  1  0.66840700  0.30641800  0.01930000  1
  H  313  1  0.82389800  0.30634200  0.01939800  1
  H  314  1  0.74439400  0.25206500  0.01532800  1
  H  315  1  0.74438000  0.29544500  0.09700300  1
  H  316  1  0.74637800  0.33448600  0.09528100  1
  H  317  1  0.74620500  0.30173200  0.96424400  1
  H  318  1  0.74630000  0.38149600  0.04692600  1
  H  319  1  0.74609100  0.38196000  0.00834500  1
  H  322  1  0.74621900  0.24046100  0.93504300  1
  H  323  1  0.74614400  0.22266000  0.95162400  1
  H  325  1  0.72025800  0.35259100  0.06548400  1
  H  326  1  0.77306000  0.35233800  0.06527500  1
  H  330  1  0.89681900  0.30601400  0.01617100  1
  H  331  1  0.59552400  0.30598500  0.01617300  1
  H  332  1  0.74617800  0.32784400  0.94212600  1
  H  334  1  0.74298100  0.22994200  0.03996200  1
  H  359  1  0.88001900  0.57153100  0.62065900  1
  H  360  1  0.81901200  0.57575600  0.64156500  1
  H  361  1  0.67328300  0.57580400  0.64161200  1
  H  362  1  0.61226100  0.57159200  0.62072000  1
  H  363  1  0.66839500  0.58013300  0.56271400  1
  H  364  1  0.82388200  0.58029100  0.56278300  1
  H  365  1  0.74436400  0.63050700  0.61706200  1
  H  366  1  0.74436000  0.66880800  0.57368900  1
  H  367  1  0.74639600  0.62804200  0.53464600  1
  H  368  1  0.74618900  0.52975200  0.56739300  1
  H  369  1  0.74626200  0.53267500  0.48763100  1
  H  370  1  0.74603300  0.49362700  0.48716400  1
  H  373  1  0.74619500  0.56180700  0.62864800  1
  H  374  1  0.74611500  0.59619000  0.64646500  1
  H  376  1  0.72023000  0.58014400  0.51654900  1
  H  377  1  0.77303300  0.58017500  0.51677900  1
  H  381  1  0.89679600  0.57738900  0.56311000  1
  H  382  1  0.59551200  0.57742300  0.56313600  1
  H  383  1  0.74615300  0.48152100  0.54127800  1
  H  385  1  0.74266600  0.67724200  0.63918200  1
  H  390  1  0.24435100  0.05213300  0.71368500  1
  H  391  1  0.24639000  0.05041200  0.67292400  1
  H  392  1  0.24631900  0.00205500  0.57755900  1
  H  394  1  0.22032200  0.02062400  0.62501600  1
  H  395  1  0.27312300  0.02039600  0.62507000  1
  H  397  1  0.24306800  0.99508300  0.72213900  1
  H  422  1  0.38005200  0.57579300  0.96123200  1
  H  423  1  0.31904200  0.59669600  0.97791500  1
  H  424  1  0.17329800  0.59672400  0.97792400  1
  H  425  1  0.11227900  0.57582200  0.96124200  1
  H  426  1  0.16842300  0.51781700  0.89470100  1
  H  427  1  0.32390800  0.51788800  0.89461400  1
  H  428  1  0.24443200  0.57216500  0.89866700  1
  H  429  1  0.24441400  0.52876600  0.81699000  1
  H  430  1  0.24642600  0.48973300  0.81872500  1
  H  431  1  0.24620600  0.52250400  0.94976500  1
  H  432  1  0.24628600  0.44273700  0.86708400  1
  H  433  1  0.24608100  0.44227600  0.90566500  1
  H  436  1  0.24621200  0.58376700  0.97896300  1
  H  437  1  0.24614600  0.60157400  0.96238700  1
  H  439  1  0.22023800  0.47165500  0.84853400  1
  H  440  1  0.27304200  0.47187200  0.84872500  1
  H  444  1  0.39682500  0.51822600  0.89783300  1
  H  445  1  0.09553600  0.51823900  0.89783200  1
  H  446  1  0.24617600  0.49638900  0.97188200  1
  H  448  1  0.24278900  0.59427500  0.87401700  1
  H  473  1  0.37994800  0.25274700  0.29293100  1
  H  474  1  0.31870800  0.24842100  0.27221100  1
  H  475  1  0.17360500  0.24834600  0.27214800  1
  H  476  1  0.11232400  0.25263800  0.29284500  1
  H  477  1  0.16812800  0.24426200  0.35119500  1
  H  478  1  0.32414600  0.24411500  0.35113100  1
  H  479  1  0.24436300  0.19373700  0.29694800  1
  H  480  1  0.24435400  0.15544500  0.34033100  1
  H  481  1  0.24638700  0.19621500  0.37936900  1
  H  482  1  0.24618500  0.29449100  0.34660900  1
  H  483  1  0.24627100  0.29156400  0.42636700  1
  H  484  1  0.24607200  0.33061500  0.42684100  1
  H  487  1  0.24620600  0.26235700  0.28524100  1
  H  488  1  0.24611900  0.22796300  0.26744700  1
  H  490  1  0.22022700  0.24410600  0.39745900  1
  H  491  1  0.27303000  0.24407400  0.39722500  1
  H  495  1  0.39727700  0.24863800  0.35126200  1
  H  496  1  0.09500000  0.24857100  0.35121800  1
  H  497  1  0.24615500  0.34272300  0.37273000  1
  H  499  1  0.24265800  0.14701000  0.27483500  1
  H  524  1  0.10949000  0.57934200  0.62239900  1
  H  525  1  0.17210200  0.59828500  0.62255600  1
  H  526  1  0.32018200  0.59825100  0.62254200  1
  H  527  1  0.38278100  0.57930200  0.62238600  1
  H  528  1  0.32323000  0.51828900  0.62467200  1
  H  529  1  0.16899700  0.51826800  0.62457500  1
  H  530  1  0.24673300  0.57306300  0.67523700  1
  H  531  1  0.24740500  0.53071200  0.71459000  1
  H  532  1  0.24598300  0.49134600  0.67409000  1
  H  533  1  0.24616700  0.52168600  0.57429600  1
  H  534  1  0.24615800  0.44287600  0.57915800  1
  H  535  1  0.24626500  0.44105300  0.53932400  1
  H  538  1  0.24616100  0.58447400  0.60634000  1
  H  539  1  0.24614300  0.60188200  0.64068300  1
  H  541  1  0.27237000  0.47277300  0.62640500  1
  H  542  1  0.21955100  0.47268200  0.62627700  1
  H  546  1  0.09829500  0.52306600  0.63080800  1
  H  547  1  0.39400300  0.52302800  0.63078600  1
  H  548  1  0.24618500  0.49466200  0.52606000  1
  H  550  1  0.25373300  0.59534500  0.72141100  1
  H  575  1  0.10950800  0.24673500  0.95882600  1
  H  576  1  0.17212000  0.24658200  0.97761500  1
  H  577  1  0.32020600  0.24657900  0.97758700  1
  H  578  1  0.38280200  0.24673400  0.95879200  1
  H  579  1  0.32325400  0.24445400  0.89550000  1
  H  580  1  0.16902700  0.24454800  0.89557100  1
  H  581  1  0.24675900  0.19388800  0.89970700  1
  H  582  1  0.24740500  0.15453400  0.81800200  1
  H  583  1  0.24599100  0.19503500  0.81913700  1
  H  584  1  0.24619100  0.29482900  0.94927300  1
  H  585  1  0.24617900  0.28996600  0.86559900  1
  H  586  1  0.24628600  0.32979800  0.90360900  1
  H  589  1  0.24617900  0.26278600  0.98001500  1
  H  590  1  0.24616400  0.22844200  0.96308100  1
  H  592  1  0.27239300  0.24271600  0.84824700  1
  H  593  1  0.21957500  0.24284600  0.84828700  1
  H  597  1  0.09832200  0.23831900  0.89414000  1
  H  598  1  0.39403900  0.23830100  0.89411700  1
  H  599  1  0.24620900  0.34306500  0.97048400  1
  H  601  1  0.25367400  0.14770000  0.87581000  1
  H  606  1  0.24744100  0.05112300  0.33842600  1
  H  607  1  0.24603900  0.04998700  0.37779000  1
  H  608  1  0.24620600  0.00352600  0.42625800  1
  H  610  1  0.27242000  0.02087500  0.39635900  1
  H  611  1  0.21960100  0.02083900  0.39645400  1
  H  637  1  0.60989700  0.24406800  0.29107200  1
  H  638  1  0.67260100  0.22581000  0.29154100  1
  H  639  1  0.81967900  0.22583400  0.29154100  1
  H  640  1  0.88236800  0.24410100  0.29107800  1
  H  641  1  0.82382200  0.30552400  0.28890600  1
  H  642  1  0.66840700  0.30555000  0.28900400  1
  H  643  1  0.74674300  0.25118200  0.23879100  1
  H  644  1  0.74738400  0.29353400  0.19943400  1
  H  645  1  0.74596900  0.33289800  0.23993500  1
  H  646  1  0.74616600  0.30256000  0.33971700  1
  H  647  1  0.74615700  0.38136700  0.33485000  1
  H  648  1  0.74626600  0.38319300  0.37468400  1
  H  651  1  0.74615500  0.23981600  0.30777100  1
  H  652  1  0.74614200  0.22241500  0.27341400  1
  H  654  1  0.77236800  0.35147000  0.28760700  1
  H  655  1  0.71954900  0.35156100  0.28773800  1
  H  659  1  0.59760100  0.29937400  0.28141300  1
  H  660  1  0.89469500  0.29940200  0.28142300  1
  H  661  1  0.74618400  0.32958400  0.38795000  1
  H  663  1  0.75370000  0.22889900  0.19259000  1
  H  688  1  0.60951300  0.57750000  0.95517600  1
  H  689  1  0.67212800  0.57765100  0.93638700  1
  H  690  1  0.82021000  0.57764500  0.93640800  1
  H  691  1  0.88280700  0.57749300  0.95520200  1
  H  692  1  0.82325300  0.57978600  0.01850500  1
  H  693  1  0.66902000  0.57968900  0.01843200  1
  H  694  1  0.74676200  0.63035300  0.01430000  1
  H  695  1  0.74743300  0.66970000  0.09600400  1
  H  696  1  0.74600800  0.62920000  0.09486500  1
  H  697  1  0.74619100  0.52940700  0.96473100  1
  H  698  1  0.74618200  0.53427100  0.04840300  1
  H  699  1  0.74629100  0.49443600  0.01039300  1
  H  702  1  0.74618600  0.56144600  0.93398800  1
  H  703  1  0.74616900  0.59578800  0.95091700  1
  H  705  1  0.77239500  0.58151800  0.06575200  1
  H  706  1  0.71957600  0.58138900  0.06571700  1
  H  710  1  0.59831600  0.58591500  0.01986200  1
  H  711  1  0.89403300  0.58592200  0.01988200  1
  H  712  1  0.74620800  0.48117100  0.94351900  1
  H  714  1  0.75371400  0.67653900  0.03820200  1
  H  727  1  0.74619400  0.37476400  0.87635300  1
  H  728  1  0.74619000  0.45219300  0.03990600  1
  H  743  1  0.74617000  0.36883100  0.49435900  1
  H  744  1  0.74617000  0.45495300  0.41693000  1
  H  747  1  0.24622100  0.99503200  0.49984300  1
  H  760  1  0.24619400  0.44946900  0.03764900  1
  H  761  1  0.24619100  0.37204000  0.87409600  1
  H  776  1  0.24617000  0.45541700  0.41965200  1
  H  777  1  0.24616400  0.36929400  0.49708100  1
  H  792  1  0.05188800  0.33831500  0.00052300  1
  H  793  1  0.94661100  0.19107200  0.91202400  1
  H  808  1  0.05187300  0.52945100  0.53081100  1
  H  809  1  0.94657400  0.58819400  0.67805000  1
  H  824  1  0.55189400  0.48591700  0.91347600  1
  H  825  1  0.44661000  0.63316200  0.00197800  1
  H  840  1  0.55046800  0.29625400  0.38122500  1
  H  841  1  0.44686900  0.23046600  0.23285000  1
  H  856  1  0.94048900  0.48592100  0.91346900  1
  H  857  1  0.04574800  0.63316700  0.00197300  1
  H  872  1  0.94186100  0.29624300  0.38122800  1
  H  873  1  0.04542000  0.23044900  0.23283500  1
  H  888  1  0.44048500  0.33831400  0.00053400  1
  H  889  1  0.54574400  0.19106200  0.91202700  1
  H  904  1  0.44046700  0.52946400  0.53081300  1
  H  905  1  0.54572300  0.58820600  0.67805800  1
  H  918  1  0.64211300  0.71969400  0.14105100  1
  H  932  1  0.64211600  0.28860500  0.14941400  1
  H  933  1  0.84611500  0.19430900  0.09446100  1
  H  946  1  0.64207700  0.72808800  0.58053600  1
  H  947  1  0.84607100  0.76735900  0.67481900  1
  H  961  1  0.14217300  0.10451100  0.77288200  1
  H  962  1  0.34616700  0.04961400  0.81229700  1
  H  977  1  0.14210400  0.53562600  0.76452400  1
  H  978  1  0.34608700  0.62992300  0.81959100  1
  H  993  1  0.14207100  0.09616500  0.33347900  1
  H  994  1  0.34607500  0.05688900  0.23919400  1
  C  1  1  0.74627200  0.86404600  0.31396800  1
  C  2  1  0.74636100  0.83986300  0.31317300  1
  C  3  1  0.74628700  0.81489500  0.26428500  1
  C  4  1  0.74591800  0.83843800  0.26381100  1
  C  5  1  0.74479400  0.83687700  0.23917100  1
  C  6  1  0.74365800  0.81290600  0.21545400  1
  C  7  1  0.74477000  0.78991200  0.21680700  1
  C  8  1  0.74606600  0.79090500  0.24083400  1
  C  9  1  0.74630100  0.83941300  0.33646500  1
  C  10  1  0.74621100  0.86260400  0.36006300  1
  C  11  1  0.74623300  0.88735500  0.36263200  1
  C  12  1  0.74625800  0.88740500  0.33877100  1
  C  13  1  0.78482600  0.87766300  0.28883500  1
  C  14  1  0.78379000  0.90182900  0.28963100  1
  C  15  1  0.70860400  0.90188300  0.28971600  1
  C  16  1  0.70753800  0.87777000  0.28902500  1
  C  17  1  0.67286600  0.91510300  0.29172500  1
  C  18  1  0.63631700  0.90487000  0.29352400  1
  C  19  1  0.63305800  0.88044100  0.29171600  1
  C  20  1  0.66945500  0.86723800  0.28949100  1
  C  21  1  0.82291700  0.86713900  0.28931400  1
  C  22  1  0.85932000  0.88039600  0.29166200  1
  C  23  1  0.85607400  0.90484400  0.29351000  1
  C  24  1  0.81953400  0.91505900  0.29167000  1
  C  35  1  0.74616900  0.86441600  0.28875800  1
  C  36  1  0.74620300  0.91488900  0.28985500  1
  C  39  1  0.74654400  0.81445600  0.28886600  1
  C  42  1  0.59588400  0.87031500  0.29320300  1
  C  43  1  0.74621000  0.91018000  0.38729500  1
  C  44  1  0.89650600  0.87031000  0.29320900  1
  C  48  1  0.74240700  0.81244600  0.19177200  1
  C  50  1  0.24627400  0.96020700  0.60004900  1
  C  51  1  0.24637500  0.98438800  0.60084300  1
  C  52  1  0.24586300  0.98581200  0.65020100  1
  C  53  1  0.24471500  0.98737100  0.67484000  1
  C  54  1  0.24631000  0.98483800  0.57755100  1
  C  55  1  0.24620300  0.96164500  0.55395300  1
  C  56  1  0.24623600  0.93689700  0.55138600  1
  C  57  1  0.24626500  0.93684600  0.57524500  1
  C  58  1  0.28481400  0.94659500  0.62519100  1
  C  59  1  0.28378200  0.92242600  0.62439000  1
  C  60  1  0.20859700  0.92236400  0.62429800  1
  C  61  1  0.20752600  0.94647200  0.62497800  1
  C  62  1  0.17286100  0.90914200  0.62228100  1
  C  63  1  0.13630900  0.91937700  0.62049400  1
  C  64  1  0.13305000  0.94379700  0.62228300  1
  C  65  1  0.16944400  0.95700500  0.62451200  1
  C  66  1  0.32290800  0.95711800  0.62471000  1
  C  67  1  0.35931100  0.94385800  0.62235400  1
  C  68  1  0.35606700  0.91941300  0.62051300  1
  C  69  1  0.31952400  0.90918700  0.62232800  1
  C  79  1  0.24615200  0.95983600  0.62525800  1
  C  80  1  0.24619700  0.90936400  0.62416800  1
  C  83  1  0.09587600  0.95393300  0.62081700  1
  C  84  1  0.24620900  0.91407100  0.52672400  1
  C  85  1  0.39650000  0.95394300  0.62081100  1
  C  89  1  0.24616400  0.96051100  0.36204100  1
  C  90  1  0.24613400  0.98493800  0.38519600  1
  C  91  1  0.24597100  0.98511400  0.33661100  1
  C  92  1  0.24624700  0.98647100  0.31339400  1
  C  93  1  0.24621200  0.98607400  0.40929400  1
  C  94  1  0.24625300  0.96327300  0.41041700  1
  C  95  1  0.24623000  0.93836800  0.38827900  1
  C  96  1  0.24620900  0.93755300  0.36406800  1
  C  97  1  0.20760900  0.94544300  0.32294100  1
  C  98  1  0.20825200  0.92128400  0.29953600  1
  C  99  1  0.28411200  0.92131300  0.29954600  1
  C  100  1  0.28472200  0.94548800  0.32294000  1
  C  101  1  0.32044100  0.90885800  0.28792900  1
  C  102  1  0.35738600  0.91980200  0.29922100  1
  C  103  1  0.35934400  0.94364300  0.32267200  1
  C  104  1  0.32261400  0.95611000  0.33399200  1
  C  105  1  0.16972100  0.95604800  0.33400200  1
  C  106  1  0.13300800  0.94360500  0.32265300  1
  C  107  1  0.13497500  0.91976300  0.29920100  1
  C  108  1  0.17192900  0.90882300  0.28791300  1
  C  118  1  0.24614000  0.95919600  0.33598900  1
  C  119  1  0.24619100  0.90840400  0.28668300  1
  C  122  1  0.39555100  0.95614000  0.33342000  1
  C  123  1  0.24623300  0.91591800  0.39045100  1
  C  124  1  0.09681900  0.95611600  0.33341600  1
  C  129  1  0.74616900  0.86373600  0.55197500  1
  C  130  1  0.74613600  0.83930900  0.52881800  1
  C  131  1  0.74582000  0.81529400  0.55360600  1
  C  132  1  0.74597100  0.83913200  0.57740500  1
  C  133  1  0.74624100  0.83777700  0.60062300  1
  C  134  1  0.74665200  0.81394000  0.60080400  1
  C  135  1  0.74641400  0.79077900  0.57663200  1
  C  136  1  0.74584300  0.79146200  0.55342200  1
  C  137  1  0.74621100  0.83817200  0.50472100  1
  C  138  1  0.74625300  0.86097400  0.50359900  1
  C  139  1  0.74623200  0.88588000  0.52573600  1
  C  140  1  0.74621400  0.88669500  0.54995000  1
  C  141  1  0.70761000  0.87880600  0.59107700  1
  C  142  1  0.70825000  0.90296600  0.61448100  1
  C  143  1  0.78411100  0.90293400  0.61446900  1
  C  144  1  0.78472300  0.87876000  0.59107600  1
  C  145  1  0.82043900  0.91539200  0.62608500  1
  C  146  1  0.85738700  0.90444700  0.61479600  1
  C  147  1  0.85934100  0.88059200  0.59135600  1
  C  148  1  0.82261400  0.86813300  0.58002600  1
  C  149  1  0.66972300  0.86820100  0.58001500  1
  C  150  1  0.63300700  0.88064600  0.59136900  1
  C  151  1  0.63497200  0.90448800  0.61481900  1
  C  152  1  0.67192900  0.91542600  0.62610500  1
  C  163  1  0.74614100  0.86505100  0.57802700  1
  C  164  1  0.74619000  0.91584500  0.62733200  1
  C  167  1  0.74599400  0.81423100  0.52830600  1
  C  170  1  0.89555400  0.86810800  0.58059300  1
  C  171  1  0.74623300  0.90833000  0.52356600  1
  C  172  1  0.59682400  0.86813000  0.58060400  1
  C  176  1  0.74981400  0.81390100  0.62425600  1
  C  178  1  0.74621700  0.91208200  0.43256000  1
  C  179  1  0.74621700  0.93491600  0.45740300  1
  C  180  1  0.74621900  0.93374000  0.48045100  1
  C  181  1  0.74621900  0.91008700  0.48057700  1
  C  182  1  0.74621700  0.88753800  0.45599200  1
  C  183  1  0.74621700  0.88866000  0.43317800  1
  C  186  1  0.74621800  0.97300300  0.48945600  1
  C  189  1  0.74621400  0.84899400  0.42476600  1
  C  194  1  0.24621800  0.91216900  0.48145800  1
  C  195  1  0.24621500  0.88933200  0.45661500  1
  C  196  1  0.24621800  0.89050800  0.43356600  1
  C  197  1  0.24621800  0.91416200  0.43343900  1
  C  198  1  0.24621500  0.93671100  0.45802400  1
  C  199  1  0.24621800  0.93558900  0.48083800  1
  C  202  1  0.24621800  0.85124600  0.42456200  1
  C  205  1  0.24621500  0.97525500  0.48925100  1
  C  209  1  0.96430200  0.89527400  0.30180400  1
  C  210  1  0.99810200  0.89084800  0.31334500  1
  C  211  1  0.03153500  0.90720500  0.32078800  1
  C  212  1  0.03389800  0.92890700  0.31725500  1
  C  213  1  0.00044200  0.93313400  0.30549700  1
  C  214  1  0.96764600  0.91636200  0.29726500  1
  C  217  1  0.03935400  0.87839600  0.33147500  1
  C  220  1  0.96000900  0.94624400  0.28770400  1
  C  225  1  0.46429700  0.92897400  0.61221300  1
  C  226  1  0.49810200  0.93340100  0.60067300  1
  C  227  1  0.53153400  0.91704600  0.59322900  1
  C  228  1  0.53390300  0.89534200  0.59675900  1
  C  229  1  0.50044700  0.89111300  0.60851900  1
  C  230  1  0.46764600  0.90788400  0.61675000  1
  C  233  1  0.53935300  0.94585400  0.58254300  1
  C  236  1  0.46001100  0.87800200  0.62631100  1
  C  241  1  0.02809700  0.92896700  0.61221800  1
  C  242  1  0.99430900  0.93339700  0.60067500  1
  C  243  1  0.96087500  0.91704200  0.59322800  1
  C  244  1  0.95849500  0.89533800  0.59675700  1
  C  245  1  0.99195400  0.89110500  0.60851400  1
  C  246  1  0.02475100  0.90787800  0.61675200  1
  C  249  1  0.95307400  0.94586000  0.58255100  1
  C  252  1  0.03238300  0.87799900  0.62631600  1
  C  257  1  0.52810200  0.89528000  0.30179900  1
  C  258  1  0.49430900  0.89085100  0.31334300  1
  C  259  1  0.46087400  0.90720700  0.32078800  1
  C  260  1  0.45849900  0.92891200  0.31726000  1
  C  261  1  0.49195800  0.93314200  0.30550100  1
  C  262  1  0.52475600  0.91636900  0.29726300  1
  C  265  1  0.45306900  0.87838900  0.33146500  1
  C  268  1  0.53239100  0.94624700  0.28769800  1
  C  281  1  0.74983500  0.77090500  0.62520500  1
  C  283  1  0.74498600  0.76950600  0.14739000  1
  C  284  1  0.74624100  0.31715700  0.00507800  1
  C  285  1  0.74633600  0.34054600  0.02926000  1
  C  286  1  0.74623700  0.31662600  0.05422600  1
  C  287  1  0.74587300  0.29260700  0.03068200  1
  C  288  1  0.74476000  0.26952600  0.03224200  1
  C  289  1  0.74364700  0.26978400  0.05621500  1
  C  290  1  0.74472500  0.29413200  0.07920800  1
  C  291  1  0.74599700  0.31716600  0.07821500  1
  C  292  1  0.74628100  0.36428700  0.02970900  1
  C  293  1  0.74619000  0.36469200  0.00651800  1
  C  294  1  0.74620800  0.34250900  0.98176800  1
  C  295  1  0.74623000  0.31860100  0.98171800  1
  C  296  1  0.78479500  0.27840900  0.99146200  1
  C  297  1  0.78375900  0.25503500  0.96729900  1
  C  298  1  0.70857800  0.25506500  0.96723900  1
  C  299  1  0.70750700  0.27848900  0.99135100  1
  C  300  1  0.67283900  0.24386100  0.95401500  1
  C  301  1  0.63628700  0.25588500  0.96425200  1
  C  302  1  0.63302800  0.27850900  0.98868100  1
  C  303  1  0.66942200  0.28948200  0.00188900  1
  C  304  1  0.82288600  0.28941900  0.00197900  1
  C  305  1  0.85929200  0.27850000  0.98873100  1
  C  306  1  0.85604900  0.25589900  0.96428600  1
  C  307  1  0.81950200  0.24386600  0.95405100  1
  C  320  1  0.74613500  0.29157700  0.00470800  1
  C  321  1  0.74617600  0.24219600  0.95423500  1
  C  324  1  0.74651500  0.34164600  0.05466700  1
  C  327  1  0.59585400  0.29012000  0.99880700  1
  C  328  1  0.74618600  0.34434800  0.95894400  1
  C  329  1  0.89648000  0.29012900  0.99881800  1
  C  333  1  0.74251500  0.24656500  0.05668400  1
  C  335  1  0.74622500  0.55516400  0.55197200  1
  C  336  1  0.74631600  0.55595800  0.52858400  1
  C  337  1  0.74624200  0.60484600  0.55250400  1
  C  338  1  0.74587000  0.60532000  0.57652100  1
  C  339  1  0.74474600  0.62996100  0.59960100  1
  C  340  1  0.74361200  0.65367700  0.59934600  1
  C  341  1  0.74472700  0.65232500  0.57499900  1
  C  342  1  0.74601000  0.62829700  0.55196500  1
  C  343  1  0.74625200  0.53266600  0.50484000  1
  C  344  1  0.74615800  0.50906800  0.50443300  1
  C  345  1  0.74618500  0.50650000  0.52661500  1
  C  346  1  0.74621300  0.53035900  0.55052500  1
  C  347  1  0.78477700  0.58029600  0.59072000  1
  C  348  1  0.78373900  0.57950700  0.61409400  1
  C  349  1  0.70855400  0.57941300  0.61406000  1
  C  350  1  0.70748800  0.58011000  0.59064100  1
  C  351  1  0.67281300  0.57740600  0.62527000  1
  C  352  1  0.63625800  0.57563600  0.61325500  1
  C  353  1  0.63301300  0.57740700  0.59061300  1
  C  354  1  0.66940700  0.57965000  0.57964400  1
  C  355  1  0.82286900  0.57981700  0.57971800  1
  C  356  1  0.85927100  0.57747100  0.59062700  1
  C  357  1  0.85602300  0.57562100  0.61322500  1
  C  358  1  0.81948300  0.57746400  0.62528400  1
  C  371  1  0.74612000  0.58037400  0.57755200  1
  C  372  1  0.74615200  0.57927100  0.62692400  1
  C  375  1  0.74649600  0.58026500  0.52748300  1
  C  378  1  0.59583900  0.57592700  0.57900500  1
  C  379  1  0.74616100  0.48183600  0.52477500  1
  C  380  1  0.89645900  0.57592400  0.57899400  1
  C  384  1  0.74235900  0.67736000  0.62257000  1
  C  386  1  0.24624700  0.00935700  0.64972800  1
  C  387  1  0.24359500  0.01134300  0.69855600  1
  C  388  1  0.24467900  0.03433800  0.69720300  1
  C  389  1  0.24598800  0.03334700  0.67317700  1
  C  393  1  0.24656300  0.00979700  0.62514900  1
  C  396  1  0.24254200  0.01180500  0.72224000  1
  C  398  1  0.24624400  0.50707800  0.90893000  1
  C  399  1  0.24633100  0.48368800  0.88474900  1
  C  400  1  0.24627700  0.50760300  0.85978000  1
  C  401  1  0.24591400  0.53162300  0.88332100  1
  C  402  1  0.24481000  0.55469900  0.88175400  1
  C  403  1  0.24368200  0.55443500  0.85777900  1
  C  404  1  0.24478600  0.53008400  0.83478700  1
  C  405  1  0.24605400  0.50705400  0.83578600  1
  C  406  1  0.24627100  0.45994700  0.88430000  1
  C  407  1  0.24618500  0.45954200  0.90749100  1
  C  408  1  0.24620600  0.48172500  0.93223900  1
  C  409  1  0.24623000  0.50563400  0.93229000  1
  C  410  1  0.28480300  0.54582300  0.92255000  1
  C  411  1  0.28376100  0.56919800  0.94671000  1
  C  412  1  0.20857900  0.56916900  0.94676400  1
  C  413  1  0.20751400  0.54575000  0.92264900  1
  C  414  1  0.17283700  0.58037000  0.95998600  1
  C  415  1  0.13627900  0.56836400  0.94973700  1
  C  416  1  0.13303800  0.54572400  0.92532100  1
  C  417  1  0.16943500  0.53475400  0.91210900  1
  C  418  1  0.32289300  0.53481200  0.91203500  1
  C  419  1  0.35929900  0.54573400  0.92527700  1
  C  420  1  0.35605200  0.56834000  0.94972100  1
  C  421  1  0.31950300  0.58037000  0.95995600  1
  C  434  1  0.24614600  0.53265600  0.90929800  1
  C  435  1  0.24617600  0.58203500  0.95977100  1
  C  438  1  0.24651200  0.48258400  0.85934300  1
  C  441  1  0.09586400  0.53410900  0.91519500  1
  C  442  1  0.24618500  0.47988700  0.95506400  1
  C  443  1  0.39648800  0.53410800  0.91518800  1
  C  447  1  0.24243700  0.57764700  0.85730000  1
  C  449  1  0.24622100  0.26907000  0.36201600  1
  C  450  1  0.24631000  0.26828200  0.38541100  1
  C  451  1  0.24623800  0.21940700  0.36150200  1
  C  452  1  0.24586900  0.21893500  0.33748100  1
  C  453  1  0.24474400  0.19428700  0.31441100  1
  C  454  1  0.24361000  0.17057300  0.31467000  1
  C  455  1  0.24472900  0.17192700  0.33901800  1
  C  456  1  0.24601800  0.19595700  0.36204800  1
  C  457  1  0.24625000  0.29157400  0.40916000  1
  C  458  1  0.24616400  0.31517400  0.40957100  1
  C  459  1  0.24618500  0.31774100  0.38739000  1
  C  460  1  0.24620900  0.29388000  0.36347500  1
  C  461  1  0.28479100  0.24394000  0.32320600  1
  C  462  1  0.28370100  0.24468300  0.29980400  1
  C  463  1  0.20860300  0.24479000  0.29984500  1
  C  464  1  0.20747800  0.24413000  0.32328700  1
  C  465  1  0.17298900  0.24680200  0.28852300  1
  C  466  1  0.13636800  0.24870100  0.30047300  1
  C  467  1  0.13306400  0.24697400  0.32314700  1
  C  468  1  0.16931300  0.24467900  0.33423200  1
  C  469  1  0.32296200  0.24452700  0.33416700  1
  C  470  1  0.35922200  0.24690300  0.32312800  1
  C  471  1  0.35593600  0.24865400  0.30046700  1
  C  472  1  0.31931900  0.24674400  0.28851000  1
  C  485  1  0.24611900  0.24386900  0.33641600  1
  C  486  1  0.24615800  0.24489900  0.28698000  1
  C  489  1  0.24649200  0.24398300  0.38652200  1
  C  492  1  0.09578300  0.24884200  0.33469400  1
  C  493  1  0.24616100  0.34240700  0.38923300  1
  C  494  1  0.39650600  0.24886200  0.33471400  1
  C  498  1  0.24235400  0.14689100  0.29144800  1
  C  500  1  0.24611900  0.50709300  0.60036300  1
  C  501  1  0.24608700  0.48393600  0.60163300  1
  C  502  1  0.24577100  0.50872200  0.65043400  1
  C  503  1  0.24592000  0.53252200  0.65039500  1
  C  504  1  0.24620000  0.55573900  0.67496700  1
  C  505  1  0.24661900  0.55592400  0.69898700  1
  C  506  1  0.24638400  0.53175300  0.69797800  1
  C  507  1  0.24579800  0.50854200  0.67408600  1
  C  508  1  0.24616100  0.45983900  0.57867100  1
  C  509  1  0.24620600  0.45871600  0.55474700  1
  C  510  1  0.24618500  0.48085400  0.55197900  1
  C  511  1  0.24616400  0.50506700  0.57537900  1
  C  512  1  0.20756100  0.54619300  0.62439500  1
  C  513  1  0.20820400  0.56959800  0.62364100  1
  C  514  1  0.28406400  0.56958600  0.62365900  1
  C  515  1  0.28467500  0.54619200  0.62443900  1
  C  516  1  0.32039300  0.58120400  0.62282100  1
  C  517  1  0.35733800  0.56991400  0.62247600  1
  C  518  1  0.35929600  0.54646600  0.62287300  1
  C  519  1  0.32256600  0.53514100  0.62401200  1
  C  520  1  0.16967300  0.53513100  0.62393500  1
  C  521  1  0.13295700  0.54647200  0.62282300  1
  C  522  1  0.13492800  0.56993800  0.62246100  1
  C  523  1  0.17188200  0.58122500  0.62281000  1
  C  536  1  0.24609300  0.53314400  0.62509900  1
  C  537  1  0.24614300  0.58245000  0.62361400  1
  C  540  1  0.24594100  0.48342100  0.62619700  1
  C  543  1  0.39550600  0.53571300  0.62461300  1
  C  544  1  0.24618500  0.47868400  0.52735900  1
  C  545  1  0.09677400  0.53572000  0.62459500  1
  C  549  1  0.24979000  0.57938100  0.72247400  1
  C  551  1  0.24614300  0.26876200  0.90861200  1
  C  552  1  0.24611100  0.26749100  0.88418500  1
  C  553  1  0.24579500  0.21869100  0.86016900  1
  C  554  1  0.24595300  0.21873100  0.88400900  1
  C  555  1  0.24623800  0.19415900  0.88265600  1
  C  556  1  0.24665800  0.17014100  0.85882000  1
  C  557  1  0.24640200  0.17114800  0.83565700  1
  C  558  1  0.24582200  0.19503900  0.83633700  1
  C  559  1  0.24618500  0.29045200  0.88304900  1
  C  560  1  0.24622700  0.31437600  0.90585000  1
  C  561  1  0.24620600  0.31714300  0.93075600  1
  C  562  1  0.24618800  0.29374600  0.93157000  1
  C  563  1  0.20758500  0.24472900  0.92367900  1
  C  564  1  0.20822500  0.24548400  0.94783900  1
  C  565  1  0.28408500  0.24546700  0.94780900  1
  C  566  1  0.28469800  0.24468700  0.92363600  1
  C  567  1  0.32041400  0.24630500  0.96026400  1
  C  568  1  0.35736200  0.24665900  0.94932400  1
  C  569  1  0.35931700  0.24625600  0.92547400  1
  C  570  1  0.32259000  0.24511500  0.91301200  1
  C  571  1  0.16970000  0.24518400  0.91307300  1
  C  572  1  0.13298400  0.24627900  0.92551700  1
  C  573  1  0.13494900  0.24666600  0.94935700  1
  C  574  1  0.17190200  0.24631900  0.96029800  1
  C  587  1  0.24611900  0.24402500  0.90992600  1
  C  588  1  0.24616400  0.24551100  0.96071800  1
  C  591  1  0.24596500  0.24292700  0.85910700  1
  C  594  1  0.39553000  0.24451900  0.91298700  1
  C  595  1  0.24620900  0.34176400  0.95320700  1
  C  596  1  0.09679800  0.24453200  0.91300600  1
  C  600  1  0.24979200  0.14665100  0.85878500  1
  C  602  1  0.24581900  0.00895400  0.36041200  1
  C  603  1  0.24664900  0.01030900  0.31321300  1
  C  604  1  0.24641400  0.03346900  0.33738500  1
  C  605  1  0.24583400  0.03278700  0.36059400  1
  C  609  1  0.24599100  0.01001900  0.38571300  1
  C  612  1  0.24981900  0.01035000  0.28976200  1
  C  613  1  0.74611800  0.31714400  0.31364300  1
  C  614  1  0.74608500  0.34030500  0.31237800  1
  C  615  1  0.74577300  0.31552000  0.26358900  1
  C  616  1  0.74592800  0.29172200  0.26363800  1
  C  617  1  0.74621000  0.26850500  0.23906200  1
  C  618  1  0.74663600  0.26832300  0.21504100  1
  C  619  1  0.74637800  0.29249400  0.21604800  1
  C  620  1  0.74579400  0.31570300  0.23994000  1
  C  621  1  0.74616200  0.36440400  0.33533900  1
  C  622  1  0.74620500  0.36553000  0.35926300  1
  C  623  1  0.74618300  0.34339200  0.36203000  1
  C  624  1  0.74616300  0.31917900  0.33863200  1
  C  625  1  0.70746300  0.27804400  0.28964800  1
  C  626  1  0.70826800  0.25467200  0.29046500  1
  C  627  1  0.78399800  0.25468100  0.29044600  1
  C  628  1  0.78477500  0.27804300  0.28960500  1
  C  629  1  0.82010800  0.24287500  0.29124900  1
  C  630  1  0.85715900  0.25381500  0.29127500  1
  C  631  1  0.85949300  0.27710000  0.29060000  1
  C  632  1  0.82288400  0.28880300  0.28979900  1
  C  633  1  0.66935700  0.28881100  0.28986400  1
  C  634  1  0.63276600  0.27708200  0.29062000  1
  C  635  1  0.63510300  0.25379500  0.29129200  1
  C  636  1  0.67216400  0.24285900  0.29126400  1
  C  649  1  0.74609400  0.29109100  0.28892800  1
  C  650  1  0.74614200  0.24184400  0.29049700  1
  C  653  1  0.74594200  0.34082300  0.28781800  1
  C  656  1  0.89601700  0.28677100  0.28766800  1
  C  657  1  0.74618500  0.34556300  0.38665200  1
  C  658  1  0.59626200  0.28676500  0.28768500  1
  C  662  1  0.74977400  0.24487300  0.19154400  1
  C  664  1  0.74614300  0.55547500  0.00539100  1
  C  665  1  0.74610900  0.55674500  0.02981900  1
  C  666  1  0.74579100  0.60554600  0.05383300  1
  C  667  1  0.74594700  0.60550700  0.02999400  1
  C  668  1  0.74623200  0.63008200  0.03135300  1
  C  669  1  0.74664000  0.65410100  0.05518900  1
  C  670  1  0.74639500  0.65308900  0.07835000  1
  C  671  1  0.74582600  0.62919700  0.07766600  1
  C  672  1  0.74618600  0.53378200  0.03095300  1
  C  673  1  0.74623000  0.50985800  0.00815100  1
  C  674  1  0.74620800  0.50709100  0.98324600  1
  C  675  1  0.74618800  0.53048900  0.98243300  1
  C  676  1  0.70758700  0.57950800  0.99032400  1
  C  677  1  0.70822900  0.57875000  0.96616400  1
  C  678  1  0.78408900  0.57877000  0.96619400  1
  C  679  1  0.78469900  0.57955100  0.99036800  1
  C  680  1  0.82041800  0.57792600  0.95373400  1
  C  681  1  0.85736500  0.57757400  0.96467500  1
  C  682  1  0.85931700  0.57799700  0.98853400  1
  C  683  1  0.82258900  0.57912700  0.00099300  1
  C  684  1  0.66969900  0.57904700  0.00092700  1
  C  685  1  0.63298400  0.57795400  0.98848500  1
  C  686  1  0.63495100  0.57756900  0.96464500  1
  C  687  1  0.67190800  0.57791300  0.95370400  1
  C  700  1  0.74611600  0.58021000  0.00407700  1
  C  701  1  0.74616900  0.57872200  0.95328400  1
  C  704  1  0.74596700  0.58130900  0.05489700  1
  C  707  1  0.89552800  0.57971500  0.00101600  1
  C  708  1  0.74620900  0.48246900  0.96079500  1
  C  709  1  0.59679800  0.57970200  0.00099600  1
  C  713  1  0.74982300  0.67759100  0.05522800  1
  C  715  1  0.74619300  0.38771100  0.95704400  1
  C  716  1  0.74619300  0.38972100  0.93420800  1
  C  717  1  0.74619500  0.41394400  0.93538400  1
  C  718  1  0.74619500  0.43772400  0.95903800  1
  C  719  1  0.74619200  0.43569000  0.98158700  1
  C  720  1  0.74619400  0.41175200  0.98046400  1
  C  723  1  0.74619400  0.38368600  0.89612200  1
  C  726  1  0.74619100  0.44300500  0.02013000  1
  C  731  1  0.74616900  0.43657200  0.48140900  1
  C  732  1  0.74616900  0.41172800  0.47940100  1
  C  733  1  0.74617000  0.38867800  0.45517600  1
  C  734  1  0.74617000  0.38855300  0.43139700  1
  C  735  1  0.74616800  0.41313600  0.43343200  1
  C  736  1  0.74617100  0.43595100  0.45736900  1
  C  739  1  0.74617000  0.37967700  0.48543700  1
  C  742  1  0.74616800  0.44436400  0.42611600  1
  C  748  1  0.24619400  0.43652000  0.95695900  1
  C  749  1  0.24619100  0.43451200  0.97979400  1
  C  750  1  0.24619400  0.41028900  0.97861900  1
  C  751  1  0.24619400  0.38650900  0.95496300  1
  C  752  1  0.24619100  0.38854400  0.93241400  1
  C  753  1  0.24619400  0.41248100  0.93353800  1
  C  756  1  0.24619400  0.44054800  0.01788000  1
  C  759  1  0.24619100  0.38122700  0.89387100  1
  C  764  1  0.24616700  0.38767400  0.43260000  1
  C  765  1  0.24616700  0.41251800  0.43460800  1
  C  766  1  0.24617000  0.43556800  0.45883400  1
  C  767  1  0.24617000  0.43569300  0.48261200  1
  C  768  1  0.24616700  0.41111000  0.48057800  1
  C  769  1  0.24616700  0.38829500  0.45664100  1
  C  772  1  0.24617000  0.44457000  0.42857500  1
  C  775  1  0.24616700  0.37988300  0.48789400  1
  C  780  1  0.96427600  0.27376000  0.97384700  1
  C  781  1  0.99807500  0.28972800  0.97827300  1
  C  782  1  0.03150800  0.28081700  0.96191800  1
  C  783  1  0.03387700  0.25558100  0.94021500  1
  C  784  1  0.00042100  0.23959400  0.93598600  1
  C  785  1  0.96762300  0.24813300  0.95275900  1
  C  788  1  0.03932700  0.32031000  0.99072600  1
  C  791  1  0.95999000  0.20869000  0.92287700  1
  C  796  1  0.96425400  0.56732900  0.59536500  1
  C  797  1  0.99805700  0.55578700  0.57939700  1
  C  798  1  0.03148700  0.54834300  0.58830900  1
  C  799  1  0.03385000  0.55187600  0.61354400  1
  C  800  1  0.00039400  0.56363600  0.62953200  1
  C  801  1  0.96759600  0.57186700  0.62099100  1
  C  804  1  0.03930900  0.53765800  0.54881500  1
  C  807  1  0.95995600  0.58143100  0.66043500  1
  C  812  1  0.46427900  0.55047500  0.94015500  1
  C  813  1  0.49808100  0.53450500  0.93572900  1
  C  814  1  0.53151300  0.54341600  0.95208300  1
  C  815  1  0.53387700  0.56865200  0.97378600  1
  C  816  1  0.50042000  0.58463800  0.97801500  1
  C  817  1  0.46762500  0.57610000  0.96124300  1
  C  820  1  0.53933300  0.50392100  0.92327300  1
  C  823  1  0.45999000  0.61554500  0.99112500  1
  C  828  1  0.46419900  0.25519900  0.31653300  1
  C  829  1  0.49797900  0.26697300  0.33233600  1
  C  830  1  0.53161400  0.27357500  0.32287100  1
  C  831  1  0.53478700  0.26821800  0.29702000  1
  C  832  1  0.50197100  0.25513000  0.28084100  1
  C  833  1  0.46807400  0.24886000  0.29034000  1
  C  836  1  0.53833800  0.28697800  0.36307700  1
  C  839  1  0.46053800  0.23740700  0.25040500  1
  C  844  1  0.02807900  0.55048100  0.94015800  1
  C  845  1  0.99428700  0.53451100  0.93573200  1
  C  846  1  0.96085300  0.54342200  0.95208600  1
  C  847  1  0.95847500  0.56865600  0.97379200  1
  C  848  1  0.99193600  0.58464300  0.97802100  1
  C  849  1  0.02473300  0.57610600  0.96124800  1
  C  852  1  0.95304700  0.50392500  0.92326900  1
  C  855  1  0.03237100  0.61554900  0.99112600  1
  C  860  1  0.02810600  0.25518800  0.31651800  1
  C  861  1  0.99433600  0.26697000  0.33233000  1
  C  862  1  0.96070100  0.27357900  0.32287300  1
  C  863  1  0.95751800  0.26822700  0.29702200  1
  C  864  1  0.99033600  0.25513600  0.28083800  1
  C  865  1  0.02422700  0.24885600  0.29033000  1
  C  868  1  0.95398900  0.28697000  0.36307700  1
  C  871  1  0.03176100  0.23739800  0.25039300  1
  C  876  1  0.52807500  0.27375100  0.97384200  1
  C  877  1  0.49428300  0.28972300  0.97826900  1
  C  878  1  0.46085000  0.28081400  0.96191500  1
  C  879  1  0.45847800  0.25558000  0.94020900  1
  C  880  1  0.49193700  0.23959000  0.93597800  1
  C  881  1  0.52473300  0.24812600  0.95275200  1
  C  884  1  0.45304600  0.32030900  0.99073200  1
  C  887  1  0.53236700  0.20868200  0.92287300  1
  C  892  1  0.52805400  0.56733300  0.59537200  1
  C  893  1  0.49426200  0.55579000  0.57940100  1
  C  894  1  0.46082900  0.54834500  0.58831200  1
  C  895  1  0.45845100  0.55187500  0.61354700  1
  C  896  1  0.49191000  0.56363200  0.62953400  1
  C  897  1  0.52470900  0.57186900  0.62099600  1
  C  900  1  0.45302500  0.53766800  0.54881800  1
  C  903  1  0.53234700  0.58143400  0.66043900  1
  C  908  1  0.71730400  0.74920800  0.14054600  1
  C  909  1  0.71968200  0.72613100  0.11657100  1
  C  910  1  0.74987200  0.72153500  0.09822600  1
  C  911  1  0.77682800  0.74219600  0.10493200  1
  C  912  1  0.77431100  0.76526700  0.12875400  1
  C  915  1  0.66821700  0.72592000  0.13723700  1
  C  917  1  0.82238000  0.76730100  0.10665800  1
  C  920  1  0.74498300  0.24510100  0.09961700  1
  C  921  1  0.71730000  0.25856500  0.11991200  1
  C  922  1  0.71965900  0.25766900  0.14298800  1
  C  923  1  0.74983700  0.24391700  0.14759100  1
  C  924  1  0.77679600  0.22995400  0.12693100  1
  C  925  1  0.77429800  0.23070100  0.10385900  1
  C  928  1  0.66821400  0.27855600  0.14319000  1
  C  931  1  0.82236900  0.20658100  0.10184000  1
  C  936  1  0.74493700  0.72174200  0.62401300  1
  C  937  1  0.71725900  0.72858900  0.61056000  1
  C  938  1  0.71964300  0.75256400  0.61145600  1
  C  939  1  0.77678500  0.76419700  0.63916000  1
  C  940  1  0.77426300  0.74037800  0.63841200  1
  C  943  1  0.66817800  0.73190100  0.59057900  1
  C  945  1  0.82233400  0.76246900  0.66254000  1
  C  949  1  0.24502700  0.05473100  0.76664000  1
  C  950  1  0.21733900  0.07502000  0.77346000  1
  C  951  1  0.21967000  0.09809300  0.79743600  1
  C  952  1  0.24983400  0.10269600  0.81579700  1
  C  953  1  0.27680200  0.08204700  0.80911200  1
  C  954  1  0.27433100  0.05897400  0.78528900  1
  C  957  1  0.16825600  0.09828800  0.77672500  1
  C  960  1  0.32240200  0.05697700  0.80740300  1
  C  965  1  0.24493500  0.57911400  0.81436800  1
  C  966  1  0.21727100  0.56565600  0.79406000  1
  C  967  1  0.21965500  0.56657100  0.77099300  1
  C  968  1  0.24984600  0.58032900  0.76641100  1
  C  969  1  0.27679000  0.59428200  0.78708200  1
  C  970  1  0.27426300  0.59352100  0.81014500  1
  C  973  1  0.16820000  0.54567600  0.77075900  1
  C  976  1  0.32234300  0.61764900  0.81219600  1
  C  981  1  0.24493800  0.10250700  0.29000000  1
  C  982  1  0.21725600  0.09566200  0.30345600  1
  C  983  1  0.21964000  0.07168900  0.30255900  1
  C  984  1  0.24983400  0.05334600  0.28880900  1
  C  985  1  0.27678400  0.06005300  0.27485300  1
  C  986  1  0.27426300  0.08387200  0.27560100  1
  C  989  1  0.16817600  0.09235200  0.32343800  1
  C  992  1  0.32233700  0.06178000  0.25147400  1
  N  184  1  0.74621900  0.95792200  0.50028100  1
  N  187  1  0.74622000  0.86414400  0.41433600  1
  N  192  1  0.74621300  0.91212200  0.40997900  1
  N  193  1  0.74622600  0.90803300  0.50178600  1
  N  200  1  0.24621800  0.86632600  0.41373900  1
  N  203  1  0.24622700  0.96010500  0.49968100  1
  N  207  1  0.24621200  0.91213000  0.50404000  1
  N  208  1  0.24622400  0.91621300  0.41222900  1
  N  215  1  0.05675800  0.89917900  0.33250600  1
  N  218  1  0.94318600  0.92491100  0.28564200  1
  N  223  1  0.93085700  0.88148600  0.29744100  1
  N  224  1  0.06072900  0.94766000  0.32889200  1
  N  231  1  0.55676000  0.92507200  0.58151000  1
  N  234  1  0.44318400  0.89933600  0.62837200  1
  N  239  1  0.43085000  0.94276000  0.61657700  1
  N  240  1  0.56073400  0.87659000  0.58511900  1
  N  247  1  0.93565900  0.92507800  0.58151500  1
  N  250  1  0.04919700  0.89933600  0.62838600  1
  N  255  1  0.06152600  0.94276400  0.61658600  1
  N  256  1  0.93163400  0.87659600  0.58512300  1
  N  263  1  0.43565700  0.89917100  0.33250200  1
  N  266  1  0.54920600  0.92491000  0.28562900  1
  N  271  1  0.56153500  0.88148500  0.29743200  1
  N  272  1  0.43163500  0.94765400  0.32888700  1
  N  273  1  0.74375200  0.79209900  0.16918400  1
  N  274  1  0.75075800  0.79462000  0.62835600  1
  N  279  1  0.80333000  0.78078400  0.12939100  1
  N  721  1  0.74619500  0.40959000  0.91120300  1
  N  724  1  0.74619700  0.41742500  0.00497900  1
  N  729  1  0.74618900  0.36508900  0.95700200  1
  N  730  1  0.74620200  0.46098600  0.96109000  1
  N  737  1  0.74617100  0.36885300  0.45953300  1
  N  740  1  0.74617700  0.45479500  0.45169600  1
  N  745  1  0.74616500  0.45915400  0.50403100  1
  N  746  1  0.74617800  0.36734000  0.40813500  1
  N  754  1  0.24619400  0.41464300  0.00280000  1
  N  757  1  0.24619700  0.40680600  0.90902100  1
  N  762  1  0.24618800  0.45914300  0.95700100  1
  N  763  1  0.24620000  0.36324700  0.95291200  1
  N  770  1  0.24617000  0.45539500  0.45447800  1
  N  773  1  0.24617000  0.36945100  0.46231300  1
  N  778  1  0.24616400  0.36509000  0.40997800  1
  N  779  1  0.24617900  0.45690600  0.50587400  1
  N  786  1  0.05673400  0.30056000  0.96994400  1
  N  789  1  0.94316600  0.22796000  0.94421000  1
  N  794  1  0.93082900  0.28318400  0.98763800  1
  N  795  1  0.06070500  0.24846600  0.92146200  1
  N  802  1  0.05671300  0.53662600  0.56856600  1
  N  805  1  0.94313400  0.58349000  0.64116200  1
  N  810  1  0.93080900  0.57169100  0.58593900  1
  N  811  1  0.06068100  0.54024200  0.62066400  1
  N  818  1  0.55673600  0.52367200  0.94405700  1
  N  821  1  0.44316900  0.59627400  0.96979200  1
  N  826  1  0.43083800  0.54105100  0.92636500  1
  N  827  1  0.56070400  0.57576700  0.99254000  1
  N  834  1  0.55623300  0.28658100  0.34273600  1
  N  837  1  0.44267800  0.23764400  0.27063100  1
  N  842  1  0.43047500  0.25199600  0.32649300  1
  N  843  1  0.56018600  0.28105800  0.29037500  1
  N  850  1  0.93563400  0.52367200  0.94405000  1
  N  853  1  0.04918800  0.59628000  0.96979000  1
  N  858  1  0.06151100  0.54104800  0.92636400  1
  N  859  1  0.93161200  0.57576700  0.99253300  1
  N  866  1  0.93609000  0.28657900  0.34274200  1
  N  869  1  0.04961100  0.23762700  0.27061500  1
  N  874  1  0.06182400  0.25198300  0.32647700  1
  N  875  1  0.93208300  0.28105800  0.29037900  1
  N  882  1  0.43563300  0.30056300  0.96995100  1
  N  885  1  0.54918200  0.22795100  0.94421200  1
  N  890  1  0.56150500  0.28318000  0.98763700  1
  N  891  1  0.43161500  0.24846300  0.92146900  1
  N  898  1  0.43561200  0.53663100  0.56856300  1
  N  901  1  0.54916100  0.58350200  0.64117000  1
  N  906  1  0.56148400  0.57169900  0.58594100  1
  N  907  1  0.43158800  0.54024400  0.62065700  1
  N  913  1  0.68815400  0.71188300  0.11491300  1
  N  919  1  0.75078100  0.70097300  0.07451000  1
  N  926  1  0.68813000  0.27026700  0.15723100  1
  N  929  1  0.80333200  0.21583100  0.08835200  1
  N  934  1  0.74381500  0.24436700  0.07705500  1
  N  935  1  0.75073700  0.24077900  0.16816400  1
  N  941  1  0.68811800  0.75422300  0.59886700  1
  N  944  1  0.80328100  0.73973600  0.65328800  1
  N  948  1  0.74370300  0.69994600  0.62480700  1
  N  955  1  0.18814500  0.11233100  0.79906600  1
  N  958  1  0.30338500  0.04348400  0.78465800  1
  N  963  1  0.24385400  0.03218200  0.74480500  1
  N  964  1  0.25073900  0.12327300  0.83950200  1
  N  971  1  0.18813300  0.55397900  0.75673600  1
  N  974  1  0.30328400  0.60838700  0.82566800  1
  N  979  1  0.24374100  0.57982900  0.83691900  1
  N  980  1  0.25076300  0.58350400  0.74586200  1
  N  987  1  0.18811600  0.07003000  0.31515200  1
  N  990  1  0.30328100  0.08451200  0.26072400  1
  N  995  1  0.24370200  0.12430200  0.28920400  1
  N  996  1  0.25076000  0.02963400  0.28566500  1
  O  185  1  0.74621700  0.96002800  0.46283900  1
  O  188  1  0.74621200  0.86263800  0.45085300  1
  O  201  1  0.24621800  0.86422100  0.45118000  1
  O  204  1  0.24620900  0.96160900  0.46316300  1
  O  216  1  0.00229000  0.87242300  0.32034500  1
  O  219  1  0.99535400  0.95310300  0.30078500  1
  O  232  1  0.50229000  0.95182600  0.59367300  1
  O  235  1  0.49535700  0.87114500  0.61323100  1
  O  248  1  0.99013400  0.95182900  0.59368300  1
  O  251  1  0.99704200  0.87113900  0.61322900  1
  O  264  1  0.49013300  0.87242100  0.32033600  1
  O  267  1  0.49704800  0.95310700  0.30078400  1
  O  282  1  0.80717000  0.77884900  0.65475400  1
  O  722  1  0.74619300  0.37004300  0.90909600  1
  O  725  1  0.74618700  0.45544900  0.00648600  1
  O  738  1  0.74616900  0.40629400  0.49907800  1
  O  741  1  0.74616300  0.41827600  0.41367200  1
  O  755  1  0.24619100  0.45418800  0.00490500  1
  O  758  1  0.24618800  0.36878400  0.90751600  1
  O  771  1  0.24616700  0.41795300  0.41493300  1
  O  774  1  0.24616100  0.40597100  0.50033800  1
  O  787  1  0.00226600  0.31515300  0.99670000  1
  O  790  1  0.99533400  0.21491300  0.91601700  1
  O  803  1  0.00224800  0.54878700  0.55397100  1
  O  806  1  0.99530300  0.56835000  0.65421300  1
  O  819  1  0.50226900  0.50908100  0.91730200  1
  O  822  1  0.49533300  0.60932000  0.99798400  1
  O  835  1  0.50147400  0.27562800  0.35816700  1
  O  838  1  0.49755100  0.24841700  0.25549000  1
  O  851  1  0.99010900  0.50908600  0.91730000  1
  O  854  1  0.99702800  0.60932400  0.99798700  1
  O  867  1  0.99085300  0.27561900  0.35816100  1
  O  870  1  0.99475200  0.24841700  0.25548400  1
  O  883  1  0.49010700  0.31514700  0.99670100  1
  O  886  1  0.49702700  0.21490800  0.91601400  1
  O  899  1  0.49008600  0.54879700  0.55397800  1
  O  902  1  0.49700600  0.56834900  0.65421500  1
  O  914  1  0.68449000  0.74958700  0.15411400  1
  O  916  1  0.80721100  0.74313600  0.09027700  1
  O  927  1  0.68450400  0.27176700  0.11952800  1
  O  930  1  0.80718300  0.21436700  0.12600200  1
  O  942  1  0.68444500  0.71502300  0.59736900  1
  O  956  1  0.18457100  0.07463300  0.75985400  1
  O  959  1  0.30718900  0.08113200  0.82377700  1
  O  972  1  0.18447200  0.55244900  0.79442200  1
  O  975  1  0.30718000  0.60987800  0.78803400  1
  O  988  1  0.18444000  0.10922800  0.31664600  1
  O  991  1  0.30717100  0.04540100  0.25926000  1
