# generated using pymatgen
data_H6C10N3O
_symmetry_space_group_name_H-M   'P 1'
_cell_length_a   32.64490000
_cell_length_b   32.64490000
_cell_length_c   32.64490000
_cell_angle_alpha   90.00000000
_cell_angle_beta   90.00000000
_cell_angle_gamma   90.00000000
_symmetry_Int_Tables_number   1
_chemical_formula_structural   H6C10N3O
_chemical_formula_sum   'H288 C480 N144 O48'
_cell_volume   34789.32702830
_cell_formula_units_Z   48
loop_
 _symmetry_equiv_pos_site_id
 _symmetry_equiv_pos_as_xyz
  1  'x, y, z'
loop_
 _atom_site_type_symbol
 _atom_site_label
 _atom_site_symmetry_multiplicity
 _atom_site_fract_x
 _atom_site_fract_y
 _atom_site_fract_z
 _atom_site_occupancy
  H  7  1  0.19739600  0.39245400  0.40339000  1
  H  8  1  0.19145400  0.50017100  0.33422100  1
  H  15  1  0.06042300  0.26797000  0.42556200  1
  H  16  1  0.09102700  0.34835800  0.33225100  1
  H  19  1  0.07686200  0.41624300  0.30743900  1
  H  20  1  0.12966200  0.39051200  0.46917000  1
  H  27  1  0.31685500  0.62147600  0.90360600  1
  H  28  1  0.32242400  0.51371300  0.83445900  1
  H  35  1  0.45413600  0.74590000  0.92489600  1
  H  36  1  0.42338700  0.66495300  0.83222000  1
  H  39  1  0.43750200  0.59698800  0.80785200  1
  H  40  1  0.38452300  0.62389300  0.96950000  1
  H  47  1  0.81637700  0.89218700  0.11048100  1
  H  48  1  0.82199800  0.99979000  0.17985500  1
  H  55  1  0.95353500  0.76759700  0.08921000  1
  H  56  1  0.92266000  0.84837600  0.18201200  1
  H  59  1  0.93691000  0.91627900  0.20647500  1
  H  60  1  0.88420700  0.88980000  0.04473700  1
  H  67  1  0.69720900  0.12171100  0.61026200  1
  H  68  1  0.69185500  0.01403300  0.67955900  1
  H  75  1  0.55946900  0.24591400  0.58937000  1
  H  76  1  0.59058600  0.16487100  0.68174600  1
  H  79  1  0.57645500  0.09692800  0.70586300  1
  H  80  1  0.62964900  0.12442100  0.54423900  1
  H  87  1  0.40364700  0.19725000  0.39251500  1
  H  88  1  0.33434400  0.19146400  0.50014300  1
  H  95  1  0.42540900  0.06026800  0.26793700  1
  H  96  1  0.33229700  0.09098200  0.34847100  1
  H  99  1  0.30758000  0.07678900  0.41628000  1
  H  100  1  0.46934500  0.12947200  0.39039200  1
  H  107  1  0.90362500  0.31667200  0.62177000  1
  H  108  1  0.83432400  0.32195300  0.51408700  1
  H  115  1  0.92470600  0.45439000  0.74588200  1
  H  116  1  0.83220500  0.42334100  0.66491600  1
  H  119  1  0.80793400  0.43735500  0.59690600  1
  H  120  1  0.96961400  0.38426000  0.62429100  1
  H  127  1  0.11054900  0.81654200  0.89236100  1
  H  128  1  0.17977800  0.82241700  0.00004400  1
  H  135  1  0.08882000  0.95345200  0.76768300  1
  H  136  1  0.18189100  0.92283100  0.84830800  1
  H  139  1  0.20654700  0.93707000  0.91619000  1
  H  140  1  0.04481000  0.88430500  0.89015200  1
  H  147  1  0.61042100  0.69729500  0.12155600  1
  H  148  1  0.67940300  0.69154200  0.01369800  1
  H  155  1  0.58887400  0.56014000  0.24602200  1
  H  156  1  0.68161100  0.59071200  0.16505100  1
  H  159  1  0.70593700  0.57650700  0.09707200  1
  H  160  1  0.54439500  0.62965500  0.12389200  1
  H  167  1  0.39227000  0.40378500  0.19725900  1
  H  168  1  0.49984300  0.33433400  0.19184900  1
  H  175  1  0.26798900  0.42489400  0.05969000  1
  H  176  1  0.34868600  0.33219300  0.09091600  1
  H  179  1  0.41655600  0.30777000  0.07675900  1
  H  180  1  0.38981900  0.46956600  0.12949000  1
  H  187  1  0.62167200  0.90346900  0.31665600  1
  H  188  1  0.51400700  0.83416800  0.32213700  1
  H  195  1  0.74595500  0.92489900  0.45403500  1
  H  196  1  0.66510900  0.83215600  0.42321200  1
  H  199  1  0.59715700  0.80779000  0.43735200  1
  H  200  1  0.62395100  0.96941500  0.38436100  1
  H  207  1  0.89224500  0.11077200  0.81638300  1
  H  208  1  0.00002600  0.17985700  0.82231900  1
  H  215  1  0.76765500  0.08893400  0.95334200  1
  H  216  1  0.84828100  0.18201500  0.92272700  1
  H  219  1  0.91623900  0.20658200  0.93701700  1
  H  220  1  0.89013700  0.04494300  0.88418500  1
  H  227  1  0.12141900  0.61027400  0.69715100  1
  H  228  1  0.01355800  0.67924000  0.69129400  1
  H  235  1  0.24603800  0.58884300  0.56008200  1
  H  236  1  0.16502400  0.68154100  0.59065700  1
  H  239  1  0.09708100  0.70582300  0.57636300  1
  H  240  1  0.12390000  0.54428200  0.62951400  1
  H  247  1  0.14936700  0.44809200  0.87172400  1
  H  248  1  0.25035400  0.42864900  0.94799300  1
  H  255  1  0.02188600  0.32379700  0.81993000  1
  H  256  1  0.10225600  0.32975800  0.91844800  1
  H  259  1  0.16948500  0.30948200  0.94173200  1
  H  260  1  0.14863100  0.39564600  0.79460300  1
  H  267  1  0.36458700  0.56595700  0.37169100  1
  H  268  1  0.26338400  0.58545800  0.44766900  1
  H  275  1  0.49252200  0.68990000  0.32058600  1
  H  276  1  0.41173100  0.68405900  0.41874900  1
  H  279  1  0.34447100  0.70449700  0.44179700  1
  H  280  1  0.36556100  0.61899500  0.29446000  1
  H  287  1  0.64925100  0.06588900  0.14229600  1
  H  288  1  0.75013700  0.08532300  0.06588700  1
  H  295  1  0.52102800  0.18953000  0.19319700  1
  H  296  1  0.60167200  0.18381500  0.09493800  1
  H  299  1  0.66875500  0.20416400  0.07147200  1
  H  300  1  0.64837800  0.11953500  0.21935500  1
  H  307  1  0.86494800  0.94818600  0.64222100  1
  H  308  1  0.76364900  0.92895800  0.56629700  1
  H  315  1  0.99289100  0.82407800  0.69286600  1
  H  316  1  0.91192900  0.83001100  0.59487800  1
  H  319  1  0.84465400  0.80984900  0.57179300  1
  H  320  1  0.86596500  0.89459700  0.71942400  1
  H  327  1  0.94814600  0.64212900  0.86488700  1
  H  328  1  0.92894600  0.56621500  0.76358400  1
  H  335  1  0.82383600  0.69321800  0.99247800  1
  H  336  1  0.82980900  0.59510400  0.91163200  1
  H  339  1  0.80963800  0.57213900  0.84429200  1
  H  340  1  0.89508700  0.71936000  0.86572900  1
  H  347  1  0.06582500  0.14241200  0.64919900  1
  H  348  1  0.08523700  0.06624900  0.75028400  1
  H  355  1  0.18947900  0.19282200  0.52080800  1
  H  356  1  0.18356600  0.09474400  0.60166000  1
  H  359  1  0.20402500  0.07150000  0.66880400  1
  H  360  1  0.11982200  0.21951200  0.64813600  1
  H  367  1  0.56595400  0.37168800  0.36452000  1
  H  368  1  0.58532000  0.44804300  0.26359800  1
  H  375  1  0.69031700  0.31972300  0.49187800  1
  H  376  1  0.68446300  0.41822500  0.41148900  1
  H  379  1  0.70459500  0.44159200  0.34427800  1
  H  380  1  0.61811900  0.29455100  0.36524900  1
  H  387  1  0.44816900  0.87152800  0.14926700  1
  H  388  1  0.42877800  0.94788900  0.25019400  1
  H  395  1  0.32409700  0.82026100  0.02142000  1
  H  396  1  0.33003400  0.91863800  0.10192800  1
  H  399  1  0.30978200  0.94208700  0.16908100  1
  H  400  1  0.39521700  0.79448700  0.14836800  1
  H  407  1  0.14233200  0.64943200  0.06590100  1
  H  408  1  0.06577600  0.75021000  0.08526100  1
  H  415  1  0.19377200  0.52167500  0.18998500  1
  H  416  1  0.09534300  0.60212900  0.18407500  1
  H  419  1  0.07190800  0.66923900  0.20435700  1
  H  420  1  0.21933000  0.64857700  0.11860300  1
  H  427  1  0.64225400  0.86498800  0.94820100  1
  H  428  1  0.56640500  0.76363600  0.92895500  1
  H  435  1  0.69281100  0.99300200  0.82419100  1
  H  436  1  0.59485300  0.91198700  0.83011900  1
  H  439  1  0.57181800  0.84469700  0.80988000  1
  H  440  1  0.71946100  0.86600800  0.89457600  1
  H  447  1  0.87158900  0.14937000  0.44810700  1
  H  448  1  0.94801800  0.25022700  0.42860400  1
  H  455  1  0.82016600  0.02147900  0.32414600  1
  H  456  1  0.91862300  0.10189400  0.32998200  1
  H  459  1  0.94214200  0.16900900  0.30968100  1
  H  460  1  0.79454200  0.14854900  0.39514000  1
  H  467  1  0.37183200  0.36467600  0.56588400  1
  H  468  1  0.44758400  0.26329500  0.58535700  1
  H  475  1  0.32049500  0.49239300  0.68992200  1
  H  476  1  0.41864200  0.41157200  0.68418100  1
  H  479  1  0.44156700  0.34422300  0.70452100  1
  H  480  1  0.29448600  0.36551900  0.61882000  1
  H  488  1  0.22919500  0.47132100  0.48818400  1
  H  489  1  0.20169400  0.44294000  0.45683800  1
  H  490  1  0.28028700  0.51692400  0.46554300  1
  H  498  1  0.28455800  0.54283600  0.98848000  1
  H  499  1  0.31212600  0.57120500  0.95717100  1
  H  500  1  0.23353100  0.49718700  0.96572300  1
  H  508  1  0.78492600  0.97140900  0.02577800  1
  H  509  1  0.81220800  0.94282200  0.05712200  1
  H  510  1  0.73373900  0.01690600  0.04836900  1
  H  518  1  0.73002600  0.04322000  0.52545500  1
  H  519  1  0.70239600  0.07159200  0.55670600  1
  H  520  1  0.78091300  0.99740700  0.54834700  1
  H  528  1  0.48851200  0.22966500  0.47104500  1
  H  529  1  0.45720800  0.20199700  0.44274700  1
  H  530  1  0.46570600  0.28062300  0.51676100  1
  H  538  1  0.98833900  0.28495600  0.54256000  1
  H  539  1  0.95704200  0.31212900  0.57128800  1
  H  540  1  0.96565900  0.23381800  0.49698500  1
  H  548  1  0.02574300  0.78483100  0.97126200  1
  H  549  1  0.05710500  0.81234900  0.94290200  1
  H  550  1  0.04835600  0.73365600  0.01674900  1
  H  558  1  0.52553500  0.73008700  0.04319100  1
  H  559  1  0.55679800  0.70231300  0.07140800  1
  H  560  1  0.54843600  0.78104200  0.99744400  1
  H  568  1  0.47104800  0.48857300  0.22944100  1
  H  569  1  0.44251700  0.45726300  0.20205100  1
  H  570  1  0.51681000  0.46584400  0.28039000  1
  H  578  1  0.54281800  0.98822000  0.28461300  1
  H  579  1  0.57130900  0.95692000  0.31203400  1
  H  580  1  0.49722400  0.96550300  0.23350800  1
  H  588  1  0.97129200  0.02599700  0.78480100  1
  H  589  1  0.94285600  0.05734700  0.81223800  1
  H  590  1  0.01676900  0.04861000  0.73359500  1
  H  598  1  0.04333500  0.52531400  0.73019500  1
  H  599  1  0.07138000  0.55659300  0.70225200  1
  H  600  1  0.99754500  0.54822400  0.78109400  1
  H  608  1  0.71323600  0.98278900  0.98382100  1
  H  609  1  0.68755100  0.95456400  0.95092200  1
  H  610  1  0.77128500  0.02115700  0.96579100  1
  H  618  1  0.80231000  0.03013700  0.48335900  1
  H  619  1  0.82723000  0.05903400  0.45045100  1
  H  620  1  0.74371000  0.99233400  0.46604300  1
  H  628  1  0.30195900  0.48337500  0.53045700  1
  H  629  1  0.32718500  0.45479100  0.56341800  1
  H  630  1  0.24350700  0.52131300  0.54797300  1
  H  638  1  0.21103100  0.53006200  0.03063500  1
  H  639  1  0.18618000  0.55892700  0.06362700  1
  H  640  1  0.26968300  0.49221800  0.04780900  1
  H  648  1  0.98333100  0.71182100  0.98368600  1
  H  649  1  0.95041000  0.68663200  0.95502600  1
  H  650  1  0.96579400  0.77024700  0.02164900  1
  H  658  1  0.48340800  0.80235600  0.03012100  1
  H  659  1  0.45043900  0.82738300  0.05885400  1
  H  660  1  0.46611300  0.74371600  0.99235500  1
  H  668  1  0.53130300  0.30432800  0.48506900  1
  H  669  1  0.56431900  0.32869200  0.45579600  1
  H  670  1  0.54789300  0.24517700  0.52225400  1
  H  678  1  0.02978200  0.21420600  0.53212100  1
  H  679  1  0.06267500  0.18829800  0.56012800  1
  H  680  1  0.04807400  0.27197400  0.49338200  1
  H  688  1  0.98271500  0.98379700  0.71314500  1
  H  689  1  0.95453900  0.95086000  0.68744400  1
  H  690  1  0.02103600  0.96583100  0.77123300  1
  H  698  1  0.02929300  0.48292800  0.80363000  1
  H  699  1  0.05844700  0.44996400  0.82818900  1
  H  700  1  0.99194200  0.46608000  0.74462300  1
  H  708  1  0.48338700  0.53051800  0.30189300  1
  H  709  1  0.45479400  0.56346400  0.32711700  1
  H  710  1  0.52133500  0.54805000  0.24344400  1
  H  718  1  0.53164900  0.02996000  0.21340800  1
  H  719  1  0.55996300  0.06285700  0.18783400  1
  H  720  1  0.49311300  0.04795300  0.27139700  1
  H  728  1  0.96549400  0.36146000  0.35549900  1
  H  729  1  0.01572900  0.36776400  0.35655500  1
  H  730  1  0.93415900  0.29571600  0.35573800  1
  H  738  1  0.54926600  0.65214600  0.85652100  1
  H  739  1  0.49902800  0.64570700  0.85679000  1
  H  740  1  0.58041300  0.71799700  0.85683600  1
  H  748  1  0.04825800  0.86150800  0.15774200  1
  H  749  1  0.99801300  0.86779700  0.15746200  1
  H  750  1  0.07961700  0.79582200  0.15738300  1
  H  758  1  0.46475300  0.15162200  0.65748800  1
  H  759  1  0.51500600  0.14537900  0.65700400  1
  H  760  1  0.43333300  0.21736600  0.65740800  1
  H  768  1  0.35577400  0.96534400  0.36152100  1
  H  769  1  0.35656800  0.01558500  0.36785900  1
  H  770  1  0.35609900  0.93407400  0.29575300  1
  H  778  1  0.85658200  0.54930600  0.65184500  1
  H  779  1  0.85677200  0.49905000  0.64549200  1
  H  780  1  0.85691000  0.58056300  0.71768400  1
  H  788  1  0.15783000  0.04830300  0.86138200  1
  H  789  1  0.15731300  0.99806500  0.86768600  1
  H  790  1  0.15751600  0.07964000  0.79572400  1
  H  798  1  0.65739600  0.46510800  0.15206000  1
  H  799  1  0.65658100  0.51534300  0.14575600  1
  H  800  1  0.65758600  0.43373800  0.21779800  1
  H  808  1  0.36196200  0.35573100  0.96508000  1
  H  809  1  0.36823000  0.35628900  0.01534000  1
  H  810  1  0.29618000  0.35616300  0.93372100  1
  H  818  1  0.65217900  0.85644100  0.54907900  1
  H  819  1  0.64577700  0.85671400  0.49883500  1
  H  820  1  0.71800600  0.85680300  0.58027500  1
  H  828  1  0.86122300  0.15786500  0.04824500  1
  H  829  1  0.86758200  0.15738000  0.99801300  1
  H  830  1  0.79551300  0.15758600  0.07952200  1
  H  838  1  0.15199200  0.65763200  0.46510800  1
  H  839  1  0.14572200  0.65669200  0.51534000  1
  H  840  1  0.21768900  0.65780000  0.43370700  1
  H  848  1  0.11104400  0.21131400  0.88976300  1
  H  849  1  0.11890000  0.26091400  0.88367100  1
  H  850  1  0.04465900  0.18203800  0.89288800  1
  H  858  1  0.40288700  0.80243900  0.38881500  1
  H  859  1  0.39513700  0.75275600  0.38334100  1
  H  860  1  0.46916400  0.83185800  0.39208900  1
  H  868  1  0.61081900  0.30203700  0.12534600  1
  H  869  1  0.61845000  0.25233000  0.13072500  1
  H  870  1  0.54465500  0.33163000  0.12212300  1
  H  878  1  0.90258300  0.71179400  0.62480300  1
  H  879  1  0.89511500  0.76149800  0.63043300  1
  H  880  1  0.96869200  0.68198800  0.62154400  1
  H  888  1  0.71145400  0.62469900  0.90257400  1
  H  889  1  0.76114600  0.63028000  0.89492500  1
  H  890  1  0.68189900  0.62152500  0.96880500  1
  H  898  1  0.30183300  0.12510800  0.61090800  1
  H  899  1  0.25211000  0.13046000  0.61845000  1
  H  900  1  0.33154100  0.12175600  0.54479300  1
  H  908  1  0.80288300  0.38919800  0.40278600  1
  H  909  1  0.75327300  0.38323600  0.39489200  1
  H  910  1  0.83211300  0.39231000  0.46916400  1
  H  918  1  0.21167500  0.88942000  0.11090500  1
  H  919  1  0.26130400  0.88344400  0.11863000  1
  H  920  1  0.18220400  0.89260600  0.04461000  1
  H  928  1  0.12418300  0.61108600  0.30244100  1
  H  929  1  0.13025600  0.61885400  0.25282700  1
  H  930  1  0.12099100  0.54477500  0.33183200  1
  H  938  1  0.62540600  0.90287100  0.71177800  1
  H  939  1  0.63046700  0.89528000  0.76152900  1
  H  940  1  0.62224200  0.96903200  0.68211400  1
  H  948  1  0.88890900  0.11075600  0.21160200  1
  H  949  1  0.88323300  0.11856400  0.26125500  1
  H  950  1  0.89207900  0.04445100  0.18225200  1
  H  958  1  0.38926200  0.40259900  0.80240800  1
  H  959  1  0.38335900  0.39494400  0.75276200  1
  H  960  1  0.39247500  0.46883600  0.83196000  1
  C  1  1  0.14015900  0.40059600  0.37336400  1
  C  2  1  0.18097900  0.41173100  0.38500400  1
  C  3  1  0.20037300  0.44865900  0.37216600  1
  C  4  1  0.17831200  0.47355700  0.34455700  1
  C  5  1  0.13864700  0.46402700  0.33067700  1
  C  6  1  0.11966900  0.42784100  0.34555200  1
  C  9  1  0.12037500  0.36318100  0.38868900  1
  C  10  1  0.12436000  0.34824800  0.42998500  1
  C  11  1  0.10293600  0.31286700  0.44448700  1
  C  12  1  0.07625400  0.29343100  0.41646100  1
  C  13  1  0.07031900  0.30677700  0.37589400  1
  C  14  1  0.09400900  0.34030200  0.36231700  1
  C  21  1  0.37408000  0.61311700  0.87360500  1
  C  22  1  0.33321900  0.60211300  0.88526400  1
  C  23  1  0.31371300  0.56520700  0.87249000  1
  C  24  1  0.33566100  0.54027200  0.84481900  1
  C  25  1  0.37535200  0.54966400  0.83093300  1
  C  26  1  0.39449700  0.58573100  0.84587300  1
  C  29  1  0.39400700  0.65054400  0.88876200  1
  C  30  1  0.39004900  0.66578900  0.92995700  1
  C  31  1  0.41155600  0.70123100  0.94425300  1
  C  32  1  0.43830800  0.72035500  0.91606800  1
  C  33  1  0.44424800  0.70667500  0.87562300  1
  C  34  1  0.42045800  0.67316000  0.86224600  1
  C  41  1  0.87355600  0.90038400  0.14061300  1
  C  42  1  0.83273500  0.91147300  0.12891100  1
  C  43  1  0.81325500  0.94835800  0.14176600  1
  C  44  1  0.83522200  0.97324100  0.16945800  1
  C  45  1  0.87491000  0.96380000  0.18333500  1
  C  46  1  0.89398200  0.92768400  0.16842100  1
  C  49  1  0.89342400  0.86294100  0.12543600  1
  C  50  1  0.88955200  0.84780300  0.08419800  1
  C  51  1  0.91106900  0.81238200  0.06987400  1
  C  52  1  0.93770400  0.79313600  0.09808000  1
  C  53  1  0.94358500  0.80673000  0.13856200  1
  C  54  1  0.91977400  0.84022400  0.15196600  1
  C  61  1  0.63999100  0.11325700  0.64023600  1
  C  62  1  0.68088200  0.10231800  0.62860100  1
  C  63  1  0.70048700  0.06547300  0.64143600  1
  C  64  1  0.67856300  0.04053000  0.66912800  1
  C  65  1  0.63882700  0.04982300  0.68295300  1
  C  66  1  0.61961700  0.08582600  0.66795800  1
  C  69  1  0.61996000  0.15067200  0.62514000  1
  C  70  1  0.62385600  0.16607700  0.58399100  1
  C  71  1  0.60221100  0.20149100  0.56977700  1
  C  72  1  0.57535900  0.22036700  0.59804200  1
  C  73  1  0.56945600  0.20653000  0.63843400  1
  C  74  1  0.59343200  0.17312200  0.65172300  1
  C  81  1  0.37353500  0.14006400  0.40065700  1
  C  82  1  0.38524300  0.18086300  0.41180100  1
  C  83  1  0.37239600  0.20030800  0.44869900  1
  C  84  1  0.34471600  0.17828300  0.47356600  1
  C  85  1  0.33076600  0.13863300  0.46404600  1
  C  86  1  0.34566500  0.11963000  0.42788400  1
  C  89  1  0.38879600  0.12025700  0.36322100  1
  C  90  1  0.43007100  0.12419200  0.34821100  1
  C  91  1  0.44449300  0.10275500  0.31279700  1
  C  92  1  0.41639300  0.07610100  0.29342300  1
  C  93  1  0.37584800  0.07020900  0.30684500  1
  C  94  1  0.36235700  0.09392100  0.34038400  1
  C  101  1  0.87363200  0.37388700  0.61329400  1
  C  102  1  0.88524800  0.33298400  0.60239500  1
  C  103  1  0.87241600  0.31337600  0.56555600  1
  C  104  1  0.84473000  0.33526000  0.54059100  1
  C  105  1  0.83093900  0.37501200  0.54985400  1
  C  106  1  0.84591300  0.39424900  0.58585000  1
  C  109  1  0.88877400  0.39392400  0.65067800  1
  C  110  1  0.92993800  0.39000600  0.66602800  1
  C  111  1  0.94419800  0.41163600  0.70142400  1
  C  112  1  0.91597000  0.43848600  0.72035900  1
  C  113  1  0.87555000  0.44437600  0.70659200  1
  C  114  1  0.86222500  0.42045800  0.67315700  1
  C  121  1  0.14063700  0.87375200  0.90048500  1
  C  122  1  0.12894800  0.83294600  0.91163500  1
  C  123  1  0.14177000  0.81354900  0.94856900  1
  C  124  1  0.16942400  0.83557700  0.97344600  1
  C  125  1  0.18332800  0.87523100  0.96391300  1
  C  126  1  0.16844700  0.89423000  0.92774500  1
  C  129  1  0.12538900  0.89354000  0.86303900  1
  C  130  1  0.08412300  0.88958900  0.84800800  1
  C  131  1  0.06970700  0.91102600  0.81259100  1
  C  132  1  0.09781600  0.93765800  0.79320600  1
  C  133  1  0.13832400  0.94361300  0.80669700  1
  C  134  1  0.15183500  0.91988200  0.84021200  1
  C  141  1  0.64027900  0.64000900  0.11316200  1
  C  142  1  0.62870500  0.68089400  0.10216900  1
  C  143  1  0.64149500  0.70037700  0.06525700  1
  C  144  1  0.66905200  0.67833700  0.04027100  1
  C  145  1  0.68288600  0.63862700  0.04966700  1
  C  146  1  0.66795800  0.61953400  0.08576700  1
  C  149  1  0.62509700  0.62013100  0.15060200  1
  C  150  1  0.58390200  0.62413500  0.16582500  1
  C  151  1  0.56958100  0.60267100  0.20128100  1
  C  152  1  0.59773300  0.57592500  0.22045600  1
  C  153  1  0.63816200  0.56990600  0.20676500  1
  C  154  1  0.65158500  0.59367700  0.17325100  1
  C  161  1  0.40055000  0.37363300  0.14011200  1
  C  162  1  0.41158700  0.38534700  0.18094800  1
  C  163  1  0.44842300  0.37246900  0.20052600  1
  C  164  1  0.47331500  0.34474000  0.17859400  1
  C  165  1  0.46391400  0.33081800  0.13891500  1
  C  166  1  0.42786500  0.34578200  0.11976300  1
  C  169  1  0.36313800  0.38879600  0.12015000  1
  C  170  1  0.34792900  0.43001600  0.12397500  1
  C  171  1  0.31254500  0.44430900  0.10236000  1
  C  172  1  0.29346800  0.41607800  0.07562200  1
  C  173  1  0.30705900  0.37557500  0.06984800  1
  C  174  1  0.34051300  0.36223800  0.09374700  1
  C  181  1  0.61327600  0.87350100  0.37389000  1
  C  182  1  0.60231200  0.88510700  0.33300500  1
  C  183  1  0.56544600  0.87227500  0.31347100  1
  C  184  1  0.54052000  0.84459600  0.33541000  1
  C  185  1  0.54985400  0.83079600  0.37514600  1
  C  186  1  0.58589300  0.84576600  0.39430700  1
  C  189  1  0.65067200  0.88869400  0.39383800  1
  C  190  1  0.66587800  0.92990500  0.38990200  1
  C  191  1  0.70129300  0.94423100  0.41143400  1
  C  192  1  0.72042600  0.91605200  0.43818800  1
  C  193  1  0.70677900  0.87559600  0.44410700  1
  C  194  1  0.67329100  0.86219100  0.42029300  1
  C  201  1  0.90043600  0.14076600  0.87363200  1
  C  202  1  0.91154300  0.12914200  0.83279900  1
  C  203  1  0.94847100  0.14196900  0.81339900  1
  C  204  1  0.97340900  0.16953200  0.83547000  1
  C  205  1  0.96392800  0.18336000  0.87516100  1
  C  206  1  0.92773600  0.16850800  0.89414400  1
  C  209  1  0.86299700  0.12551500  0.89342700  1
  C  210  1  0.84798400  0.08424300  0.88948200  1
  C  211  1  0.81257800  0.06981700  0.91093100  1
  C  212  1  0.79317900  0.09793200  0.93755000  1
  C  213  1  0.80665400  0.13844700  0.94349000  1
  C  214  1  0.84017500  0.15196100  0.91977100  1
  C  221  1  0.11309300  0.64015900  0.63987100  1
  C  222  1  0.10204100  0.62854900  0.68072900  1
  C  223  1  0.06509800  0.64131100  0.70016900  1
  C  224  1  0.04014300  0.66889300  0.67811600  1
  C  225  1  0.04959700  0.68276900  0.63843100  1
  C  226  1  0.08572200  0.66784800  0.61937800  1
  C  229  1  0.15056700  0.62500500  0.62003000  1
  C  230  1  0.16580900  0.58381600  0.62403100  1
  C  231  1  0.20128600  0.56952000  0.60258500  1
  C  232  1  0.22046300  0.59769000  0.57585800  1
  C  233  1  0.20675900  0.63811600  0.56984500  1
  C  234  1  0.17323100  0.65151500  0.59361300  1
  C  241  1  0.15600500  0.38588000  0.89033300  1
  C  242  1  0.16719000  0.42829400  0.88813400  1
  C  243  1  0.20142500  0.44515400  0.90919400  1
  C  244  1  0.22494300  0.41782100  0.93305100  1
  C  245  1  0.21614100  0.37571600  0.93636500  1
  C  246  1  0.18176800  0.36001700  0.91487000  1
  C  249  1  0.11925600  0.36989900  0.86990100  1
  C  250  1  0.10493400  0.38355500  0.83060900  1
  C  251  1  0.06786200  0.36860000  0.81276200  1
  C  252  1  0.04771300  0.33608100  0.83292800  1
  C  253  1  0.06098300  0.32014800  0.87074700  1
  C  254  1  0.09506300  0.33917100  0.88951200  1
  C  261  1  0.35793700  0.62816300  0.39031000  1
  C  262  1  0.34669800  0.58577400  0.38800900  1
  C  263  1  0.31233700  0.56897800  0.40890700  1
  C  264  1  0.28881000  0.59629600  0.43276000  1
  C  265  1  0.29769400  0.63837300  0.43618200  1
  C  266  1  0.33213800  0.65405100  0.41478500  1
  C  269  1  0.39481900  0.64404000  0.37006100  1
  C  270  1  0.40918200  0.63047600  0.33075300  1
  C  271  1  0.44641000  0.64527800  0.31309400  1
  C  272  1  0.46661900  0.67764400  0.33345800  1
  C  273  1  0.45322600  0.69358200  0.37122800  1
  C  274  1  0.41903400  0.67463000  0.38984400  1
  C  281  1  0.65566200  0.12802300  0.12335300  1
  C  282  1  0.66701200  0.08566300  0.12578600  1
  C  283  1  0.70132600  0.06883700  0.10482700  1
  C  284  1  0.72471400  0.09613600  0.08081300  1
  C  285  1  0.71573900  0.13818600  0.07724900  1
  C  286  1  0.68129300  0.15385700  0.09864800  1
  C  289  1  0.61879900  0.14390200  0.14364600  1
  C  290  1  0.60461300  0.13044800  0.18305600  1
  C  291  1  0.56737000  0.14514300  0.20077300  1
  C  292  1  0.54695000  0.17732900  0.18031500  1
  C  293  1  0.56026000  0.19329800  0.14253200  1
  C  294  1  0.59444900  0.17438800  0.12386100  1
  C  301  1  0.85822400  0.88602300  0.62346100  1
  C  302  1  0.84701200  0.92842800  0.62588100  1
  C  303  1  0.81264000  0.94531600  0.60505700  1
  C  304  1  0.78905500  0.91805600  0.58119400  1
  C  305  1  0.79786200  0.87596300  0.57771100  1
  C  306  1  0.83236400  0.86022100  0.59896400  1
  C  309  1  0.89513300  0.87004200  0.64360200  1
  C  310  1  0.90952200  0.88349000  0.68293800  1
  C  311  1  0.94678900  0.86869100  0.70052100  1
  C  312  1  0.96697600  0.83636500  0.68005500  1
  C  313  1  0.95347300  0.82039000  0.64233700  1
  C  314  1  0.91929000  0.83942500  0.62377100  1
  C  321  1  0.88594700  0.62354100  0.85803400  1
  C  322  1  0.92838200  0.62581100  0.84693900  1
  C  323  1  0.94527900  0.60492200  0.81262400  1
  C  324  1  0.91801900  0.58113300  0.78896700  1
  C  325  1  0.87588100  0.57782200  0.79763300  1
  C  326  1  0.86013600  0.59911400  0.83211600  1
  C  329  1  0.86993500  0.64375500  0.89487900  1
  C  330  1  0.88348100  0.68304500  0.90930400  1
  C  331  1  0.86856000  0.70072300  0.94647100  1
  C  332  1  0.83615000  0.68034600  0.96660600  1
  C  333  1  0.82020900  0.64259100  0.95315800  1
  C  334  1  0.83924100  0.62399400  0.91899000  1
  C  341  1  0.12794500  0.12343700  0.65564400  1
  C  342  1  0.08559900  0.12596300  0.66701800  1
  C  343  1  0.06878700  0.10511200  0.70140300  1
  C  344  1  0.09607100  0.08112800  0.72484000  1
  C  345  1  0.13810700  0.07749700  0.71583700  1
  C  346  1  0.15377900  0.09879200  0.68133200  1
  C  349  1  0.14379800  0.14359300  0.61870400  1
  C  350  1  0.13044700  0.18301700  0.60446300  1
  C  351  1  0.14511400  0.20059900  0.56714000  1
  C  352  1  0.17724200  0.18001500  0.54674800  1
  C  353  1  0.19313400  0.14222200  0.56012800  1
  C  354  1  0.17419700  0.12366800  0.59436300  1
  C  361  1  0.62818800  0.39021500  0.35780500  1
  C  362  1  0.58575200  0.38805800  0.34666700  1
  C  363  1  0.56886800  0.40913900  0.31245400  1
  C  364  1  0.59618000  0.43302400  0.28894800  1
  C  365  1  0.63829700  0.43631400  0.29771200  1
  C  366  1  0.65403300  0.41475800  0.33203100  1
  C  369  1  0.64419600  0.36975500  0.39453700  1
  C  370  1  0.63046100  0.33050800  0.40891600  1
  C  371  1  0.64544600  0.31263700  0.44596300  1
  C  372  1  0.67803900  0.33273200  0.46604900  1
  C  373  1  0.69403600  0.37050900  0.45274200  1
  C  374  1  0.67501000  0.38930500  0.41867900  1
  C  381  1  0.38600300  0.89034500  0.15578200  1
  C  382  1  0.42838600  0.88796500  0.16707800  1
  C  383  1  0.44523100  0.90893000  0.20138500  1
  C  384  1  0.41794600  0.93294600  0.22478500  1
  C  385  1  0.37589700  0.93649400  0.21583400  1
  C  386  1  0.36017300  0.91499600  0.18147500  1
  C  389  1  0.37005500  0.86999300  0.11897100  1
  C  390  1  0.38361000  0.83065500  0.10467500  1
  C  391  1  0.36877500  0.81291200  0.06750000  1
  C  392  1  0.33635600  0.83319100  0.04729400  1
  C  393  1  0.32041200  0.87098300  0.06061500  1
  C  394  1  0.33942600  0.88969600  0.09472700  1
  C  401  1  0.12354700  0.65595600  0.12807500  1
  C  402  1  0.12585100  0.66720800  0.08568400  1
  C  403  1  0.10480400  0.70144900  0.06883200  1
  C  404  1  0.08077800  0.72484600  0.09611000  1
  C  405  1  0.07735800  0.71598400  0.13819500  1
  C  406  1  0.09888300  0.68163300  0.15390600  1
  C  409  1  0.14394600  0.61917300  0.14401600  1
  C  410  1  0.18325500  0.60485500  0.13039200  1
  C  411  1  0.20103100  0.56771300  0.14525600  1
  C  412  1  0.18080600  0.54752300  0.17771700  1
  C  413  1  0.14300700  0.56082300  0.19367200  1
  C  414  1  0.12428100  0.59493300  0.17466900  1
  C  421  1  0.62349800  0.85825800  0.88603900  1
  C  422  1  0.62592700  0.84704600  0.92843400  1
  C  423  1  0.60512400  0.81266100  0.94530400  1
  C  424  1  0.58128000  0.78905200  0.91805000  1
  C  425  1  0.57779100  0.79786200  0.87595700  1
  C  426  1  0.59901600  0.83238800  0.86022700  1
  C  429  1  0.64361700  0.89518200  0.87009100  1
  C  430  1  0.68296200  0.90957100  0.88352700  1
  C  431  1  0.70052700  0.94685100  0.86874300  1
  C  432  1  0.68001500  0.96707700  0.83647200  1
  C  433  1  0.64227000  0.95359600  0.82054900  1
  C  434  1  0.62374000  0.91937000  0.83953200  1
  C  441  1  0.89041000  0.15581300  0.38593800  1
  C  442  1  0.88807900  0.16712900  0.42831600  1
  C  443  1  0.90912300  0.20138900  0.44515700  1
  C  444  1  0.93309000  0.22479000  0.41782100  1
  C  445  1  0.93659800  0.21582300  0.37576800  1
  C  446  1  0.91510000  0.18144600  0.36008700  1
  C  449  1  0.87000500  0.11902400  0.37000600  1
  C  450  1  0.83064500  0.10479400  0.38356400  1
  C  451  1  0.81282900  0.06765600  0.36873200  1
  C  452  1  0.83311700  0.04735400  0.33637800  1
  C  453  1  0.87093000  0.06061000  0.32043300  1
  C  454  1  0.88968100  0.09472900  0.33939500  1
  C  461  1  0.39028800  0.35787300  0.62812300  1
  C  462  1  0.38808000  0.34672500  0.58570300  1
  C  463  1  0.40895900  0.31236200  0.56889200  1
  C  464  1  0.43268400  0.28871800  0.59622000  1
  C  465  1  0.43598000  0.29748900  0.63833600  1
  C  466  1  0.41464100  0.33197000  0.65401700  1
  C  469  1  0.37003700  0.39473900  0.64403400  1
  C  470  1  0.33075700  0.40913000  0.63041500  1
  C  471  1  0.31307800  0.44633700  0.64523200  1
  C  472  1  0.33338200  0.46649900  0.67766900  1
  C  473  1  0.37110600  0.45307000  0.69369000  1
  C  474  1  0.38975800  0.41890200  0.67471300  1
  C  481  1  0.29693900  0.52777100  0.40409400  1
  C  482  1  0.27666900  0.50658500  0.43617600  1
  C  483  1  0.24635300  0.47636600  0.42818100  1
  C  484  1  0.23890300  0.46514200  0.38662800  1
  C  491  1  0.21695100  0.48630600  0.90424400  1
  C  492  1  0.23722300  0.50749200  0.93635600  1
  C  493  1  0.26755500  0.53772600  0.92844300  1
  C  494  1  0.27506500  0.54884600  0.88688700  1
  C  501  1  0.71686900  0.02768300  0.10979100  1
  C  502  1  0.73727100  0.00653500  0.07773600  1
  C  503  1  0.76748400  0.97620900  0.08572500  1
  C  504  1  0.77473500  0.96489300  0.12728000  1
  C  511  1  0.79729300  0.98656900  0.60984200  1
  C  512  1  0.77721300  0.00782600  0.57766800  1
  C  513  1  0.74684000  0.03803400  0.58553500  1
  C  514  1  0.73919500  0.04917800  0.62705400  1
  C  521  1  0.40419500  0.29702800  0.52765700  1
  C  522  1  0.43634400  0.27688800  0.50644400  1
  C  523  1  0.42843800  0.24652000  0.47625000  1
  C  524  1  0.38691200  0.23888400  0.46509900  1
  C  531  1  0.90421000  0.21695600  0.48631600  1
  C  532  1  0.93630700  0.23734500  0.50741500  1
  C  533  1  0.92839100  0.26752900  0.53778800  1
  C  534  1  0.88686300  0.27475400  0.54917700  1
  C  541  1  0.10980000  0.71697700  0.02768900  1
  C  542  1  0.07774100  0.73729800  0.00647400  1
  C  543  1  0.08573800  0.76760600  0.97624300  1
  C  544  1  0.12731400  0.77502300  0.96509800  1
  C  551  1  0.60994300  0.79731400  0.98653800  1
  C  552  1  0.57776300  0.77727400  0.00782100  1
  C  553  1  0.58563300  0.74682500  0.03794300  1
  C  554  1  0.62716200  0.73908700  0.04898000  1
  C  561  1  0.52763900  0.40441000  0.29705400  1
  C  562  1  0.50644100  0.43648800  0.27678200  1
  C  563  1  0.47613000  0.42856100  0.24653500  1
  C  564  1  0.46483600  0.38704700  0.23908700  1
  C  571  1  0.48641700  0.90402600  0.21687500  1
  C  572  1  0.50758100  0.93614400  0.23713900  1
  C  573  1  0.53785800  0.92822300  0.26742000  1
  C  574  1  0.54906400  0.88667300  0.27483000  1
  C  581  1  0.02762100  0.11006500  0.71690000  1
  C  582  1  0.00643700  0.07798300  0.73720000  1
  C  583  1  0.97618400  0.08597300  0.76748700  1
  C  584  1  0.96498500  0.12754200  0.77485700  1
  C  591  1  0.98651400  0.60970700  0.79730800  1
  C  592  1  0.00785100  0.57757000  0.77726200  1
  C  593  1  0.03791200  0.58544600  0.74674900  1
  C  594  1  0.04881000  0.62699000  0.73888200  1
  C  601  1  0.79320900  0.03016900  0.90548100  1
  C  602  1  0.76942300  0.01071000  0.93630700  1
  C  603  1  0.73878700  0.98136400  0.92669700  1
  C  604  1  0.73592000  0.96758300  0.88539800  1
  C  611  1  0.72085200  0.98382400  0.40596300  1
  C  612  1  0.74512500  0.00297600  0.43661700  1
  C  613  1  0.77556200  0.03246400  0.42682400  1
  C  614  1  0.77764200  0.04689300  0.38569600  1
  C  621  1  0.22086700  0.52995200  0.60810800  1
  C  622  1  0.24504800  0.51073600  0.57742000  1
  C  623  1  0.27556400  0.48131600  0.58717700  1
  C  624  1  0.27785600  0.46717900  0.62839000  1
  C  631  1  0.29295200  0.48390800  0.10774000  1
  C  632  1  0.26842600  0.50294600  0.07720600  1
  C  633  1  0.23794500  0.53234400  0.08711700  1
  C  634  1  0.23611300  0.54680000  0.12823600  1
  C  641  1  0.90567100  0.79288400  0.03025800  1
  C  642  1  0.93635600  0.76870900  0.01104900  1
  C  643  1  0.92660500  0.73819300  0.98162500  1
  C  644  1  0.88543800  0.73589500  0.96734400  1
  C  651  1  0.40604300  0.72083900  0.98381800  1
  C  652  1  0.43667500  0.74515000  0.00296400  1
  C  653  1  0.42685700  0.77564100  0.03238800  1
  C  654  1  0.38568400  0.77772700  0.04666200  1
  C  661  1  0.60767600  0.22128400  0.53025800  1
  C  662  1  0.57727000  0.24615800  0.51145000  1
  C  663  1  0.58727500  0.27648200  0.48192300  1
  C  664  1  0.62826700  0.27776200  0.46704400  1
  C  671  1  0.10843300  0.29358300  0.48416200  1
  C  672  1  0.07756400  0.26999500  0.50378800  1
  C  673  1  0.08716900  0.23927400  0.53304300  1
  C  674  1  0.12853000  0.23613000  0.54658200  1
  C  681  1  0.03007500  0.90554200  0.79320000  1
  C  682  1  0.01061300  0.93634000  0.76938000  1
  C  683  1  0.98129400  0.92668800  0.73873200  1
  C  684  1  0.96753400  0.88538300  0.73588900  1
  C  691  1  0.98373500  0.40616800  0.72115500  1
  C  692  1  0.00267300  0.43668100  0.74578400  1
  C  693  1  0.03216600  0.42676200  0.77617100  1
  C  694  1  0.04692800  0.38573600  0.77777000  1
  C  701  1  0.53000700  0.60820000  0.22085300  1
  C  702  1  0.51077300  0.57750000  0.24500500  1
  C  703  1  0.48134700  0.58724700  0.27552200  1
  C  704  1  0.46723100  0.62846300  0.27784700  1
  C  711  1  0.48415600  0.10820500  0.29344700  1
  C  712  1  0.50362300  0.07741300  0.26962300  1
  C  713  1  0.53294200  0.08709800  0.23898900  1
  C  714  1  0.54679700  0.12837600  0.23619700  1
  C  721  1  0.96576600  0.23955300  0.35333900  1
  C  722  1  0.96240600  0.28267100  0.35162000  1
  C  723  1  0.99779300  0.30792000  0.35257600  1
  C  724  1  0.03700000  0.28869400  0.35364800  1
  C  731  1  0.54859500  0.77407300  0.85361100  1
  C  732  1  0.55217900  0.73093000  0.85227800  1
  C  733  1  0.51685900  0.70557800  0.85286000  1
  C  734  1  0.47753600  0.72463200  0.85327100  1
  C  741  1  0.04806000  0.73960200  0.16059300  1
  C  742  1  0.05143800  0.78276300  0.16193000  1
  C  743  1  0.01601100  0.80796800  0.16134100  1
  C  744  1  0.97680900  0.78863000  0.16092500  1
  C  751  1  0.46484800  0.27348700  0.66087600  1
  C  752  1  0.46151200  0.23034700  0.66213800  1
  C  753  1  0.49696300  0.20518000  0.66132300  1
  C  754  1  0.53620100  0.22444400  0.66088200  1
  C  761  1  0.35351400  0.96565900  0.23957800  1
  C  762  1  0.35185900  0.96230800  0.28271800  1
  C  763  1  0.35267400  0.99767000  0.30800600  1
  C  764  1  0.35354400  0.03689500  0.28882200  1
  C  771  1  0.85344800  0.54874800  0.77374800  1
  C  772  1  0.85224800  0.55234700  0.73062400  1
  C  773  1  0.85281700  0.51699100  0.70532700  1
  C  774  1  0.85313900  0.47768600  0.72443300  1
  C  781  1  0.16042700  0.04817800  0.73946700  1
  C  782  1  0.16191000  0.05145100  0.78263500  1
  C  783  1  0.16122400  0.01603000  0.80784500  1
  C  784  1  0.16059800  0.97684300  0.78849800  1
  C  791  1  0.66078400  0.46539000  0.27388100  1
  C  792  1  0.66214100  0.46195600  0.23075500  1
  C  793  1  0.66112400  0.49739500  0.20557900  1
  C  794  1  0.66047200  0.53664500  0.22483000  1
  C  801  1  0.24003500  0.35320100  0.96533100  1
  C  802  1  0.28316000  0.35173400  0.96193400  1
  C  803  1  0.30841300  0.35245400  0.99732100  1
  C  804  1  0.28919900  0.35312100  0.03654200  1
  C  811  1  0.77410400  0.85361400  0.54849400  1
  C  812  1  0.73096400  0.85225400  0.55205000  1
  C  813  1  0.70563600  0.85282000  0.51671200  1
  C  814  1  0.72472100  0.85324900  0.47740400  1
  C  821  1  0.73932300  0.16054700  0.04789500  1
  C  822  1  0.78247500  0.16200100  0.05131100  1
  C  823  1  0.80772300  0.16131500  0.01591500  1
  C  824  1  0.78842400  0.16072900  0.97669600  1
  C  831  1  0.27383000  0.66084800  0.46521300  1
  C  832  1  0.23069200  0.66228500  0.46191700  1
  C  833  1  0.20553800  0.66121900  0.49736800  1
  C  834  1  0.22482300  0.66044700  0.53659300  1
  C  841  1  0.98932000  0.21514300  0.89130100  1
  C  842  1  0.03233800  0.21088600  0.89376700  1
  C  843  1  0.05856100  0.24544300  0.89061200  1
  C  844  1  0.04017400  0.28487700  0.88671200  1
  C  851  1  0.52459700  0.79881200  0.39112400  1
  C  852  1  0.48154900  0.80304800  0.39332400  1
  C  853  1  0.45541600  0.76840300  0.39044100  1
  C  854  1  0.47388800  0.72894200  0.38714200  1
  C  861  1  0.48911500  0.29876200  0.12296800  1
  C  862  1  0.53218200  0.30286100  0.12081400  1
  C  863  1  0.55821000  0.26812400  0.12358200  1
  C  864  1  0.53956400  0.22873100  0.12679500  1
  C  871  1  0.02427400  0.71465500  0.62232800  1
  C  872  1  0.98120500  0.71073400  0.62017400  1
  C  873  1  0.95530200  0.74554500  0.62319200  1
  C  874  1  0.97401600  0.78489900  0.62650600  1
  C  881  1  0.71473400  0.62254800  0.02431900  1
  C  882  1  0.71068200  0.62034600  0.98125400  1
  C  883  1  0.74537300  0.62327400  0.95518300  1
  C  884  1  0.78477300  0.62667800  0.97373700  1
  C  891  1  0.29871500  0.12261100  0.48923200  1
  C  892  1  0.30278800  0.12042600  0.53228600  1
  C  893  1  0.26800800  0.12323400  0.55824700  1
  C  894  1  0.22860900  0.12637000  0.53959800  1
  C  901  1  0.79900500  0.39092800  0.52453000  1
  C  902  1  0.80326600  0.39326300  0.48148500  1
  C  903  1  0.76871200  0.39020200  0.45523900  1
  C  904  1  0.72927600  0.38638200  0.47365500  1
  C  911  1  0.21523000  0.89132900  0.98922500  1
  C  912  1  0.21102700  0.89373700  0.03225300  1
  C  913  1  0.24568400  0.89056300  0.05834300  1
  C  914  1  0.28510300  0.88687800  0.03983500  1
  C  921  1  0.12252800  0.48937000  0.29883800  1
  C  922  1  0.12008200  0.53239600  0.30300900  1
  C  923  1  0.12323000  0.55854700  0.26839800  1
  C  924  1  0.12707000  0.54008200  0.22899500  1
  C  931  1  0.62286700  0.02458100  0.71497300  1
  C  932  1  0.62079900  0.98151100  0.71087200  1
  C  933  1  0.62345800  0.95550700  0.74563400  1
  C  934  1  0.62641400  0.97410800  0.78506400  1
  C  941  1  0.89090300  0.98903800  0.21532900  1
  C  942  1  0.89320400  0.03208700  0.21107600  1
  C  943  1  0.89028400  0.05825600  0.24569600  1
  C  944  1  0.88675800  0.03976500  0.28513100  1
  C  951  1  0.39140600  0.52428800  0.79908500  1
  C  952  1  0.39367600  0.48124300  0.80316200  1
  C  953  1  0.39053900  0.45520200  0.76846700  1
  C  954  1  0.38695800  0.47376800  0.72906700  1
  N  485  1  0.26270800  0.48465500  0.35811800  1
  N  486  1  0.28927900  0.51379600  0.36573600  1
  N  487  1  0.22380600  0.46229600  0.46029900  1
  N  495  1  0.25125600  0.52948000  0.85830400  1
  N  496  1  0.22464100  0.50037300  0.86591900  1
  N  497  1  0.29004600  0.55180200  0.96059200  1
  N  505  1  0.75080400  0.98426200  0.15576800  1
  N  506  1  0.72430700  0.01346900  0.14811000  1
  N  507  1  0.79016700  0.96225000  0.05365300  1
  N  515  1  0.76286800  0.02970100  0.65570200  1
  N  516  1  0.78946900  0.00055000  0.64817300  1
  N  517  1  0.72446900  0.05217300  0.55333100  1
  N  525  1  0.35830100  0.26254500  0.48464600  1
  N  526  1  0.36584600  0.28916400  0.51376200  1
  N  527  1  0.46062400  0.22411600  0.46211600  1
  N  535  1  0.85830700  0.25085000  0.52987200  1
  N  536  1  0.86591900  0.22437000  0.50063000  1
  N  537  1  0.96047300  0.29018400  0.55176200  1
  N  545  1  0.15581600  0.75115700  0.98451700  1
  N  546  1  0.14814400  0.72458300  0.01364000  1
  N  547  1  0.05363300  0.79021000  0.96222800  1
  N  555  1  0.65583100  0.76270500  0.02947800  1
  N  556  1  0.64829200  0.78936500  0.00039000  1
  N  557  1  0.55341600  0.72446900  0.05208400  1
  N  565  1  0.48438000  0.35848500  0.26282100  1
  N  566  1  0.51358500  0.36607300  0.28934300  1
  N  567  1  0.46200500  0.46069400  0.22405000  1
  N  575  1  0.52970100  0.85809500  0.25100400  1
  N  576  1  0.50052900  0.86569800  0.22444600  1
  N  577  1  0.55189400  0.96034400  0.28998100  1
  N  585  1  0.98440300  0.15605900  0.75100300  1
  N  586  1  0.01356200  0.14841500  0.72444800  1
  N  587  1  0.96220100  0.05387900  0.79012100  1
  N  595  1  0.02924900  0.65565000  0.76245400  1
  N  596  1  0.00023400  0.64807500  0.78917800  1
  N  597  1  0.05211700  0.55321100  0.72446300  1
  N  605  1  0.76233100  0.98552100  0.85824200  1
  N  606  1  0.78852200  0.01466700  0.86716900  1
  N  607  1  0.71161600  0.97083900  0.95655500  1
  N  615  1  0.75078000  0.02920700  0.35880700  1
  N  616  1  0.72479400  0.99989100  0.36780100  1
  N  617  1  0.80333600  0.04253800  0.45628900  1
  N  625  1  0.25104300  0.48481100  0.65534100  1
  N  626  1  0.22496200  0.51403200  0.64631600  1
  N  627  1  0.30319500  0.47115500  0.55760700  1
  N  635  1  0.26316600  0.52931200  0.15503500  1
  N  636  1  0.28915700  0.50004200  0.14590300  1
  N  637  1  0.20997200  0.54226600  0.05779200  1
  N  645  1  0.85847500  0.76261300  0.98513500  1
  N  646  1  0.86745100  0.78866900  0.01439200  1
  N  647  1  0.95620000  0.71060500  0.97142700  1
  N  655  1  0.35879500  0.75081400  0.02909300  1
  N  656  1  0.36785900  0.72477600  0.99984200  1
  N  657  1  0.45631400  0.80342500  0.04246300  1
  N  665  1  0.65488100  0.25039000  0.48432400  1
  N  666  1  0.64570700  0.22454100  0.51371300  1
  N  667  1  0.55822300  0.30486100  0.47232300  1
  N  675  1  0.15573400  0.26240700  0.52852100  1
  N  676  1  0.14680400  0.28867100  0.49944500  1
  N  677  1  0.05721800  0.21225900  0.54368700  1
  N  685  1  0.98547200  0.85825500  0.76232800  1
  N  686  1  0.01459900  0.86721500  0.78853200  1
  N  687  1  0.97078100  0.95652700  0.71153000  1
  N  695  1  0.02944300  0.35900000  0.75063000  1
  N  696  1  0.00007800  0.36808200  0.72472100  1
  N  697  1  0.04193900  0.45596800  0.80432600  1
  N  705  1  0.48489100  0.65543300  0.25106800  1
  N  706  1  0.51411200  0.64641100  0.22498400  1
  N  707  1  0.47116500  0.55766800  0.30313100  1
  N  715  1  0.52882500  0.15547500  0.26265500  1
  N  716  1  0.49967100  0.14652000  0.28882800  1
  N  717  1  0.54340300  0.05730700  0.21172200  1
  N  725  1  0.03725000  0.24691100  0.35292200  1
  N  726  1  0.00434800  0.22405300  0.35305700  1
  N  727  1  0.99264600  0.34913000  0.35597600  1
  N  735  1  0.47722400  0.76640600  0.85201200  1
  N  736  1  0.51001000  0.78942000  0.85240700  1
  N  737  1  0.52207300  0.66440200  0.85658800  1
  N  745  1  0.97662600  0.74688600  0.16220500  1
  N  746  1  0.00954700  0.72405900  0.16180300  1
  N  747  1  0.02110500  0.84916600  0.15764700  1
  N  755  1  0.53629600  0.26619900  0.66225100  1
  N  756  1  0.50338400  0.28903200  0.66196600  1
  N  757  1  0.49189700  0.16398600  0.65757100  1
  N  765  1  0.35269600  0.03717500  0.24704700  1
  N  766  1  0.35294700  0.00428100  0.22418000  1
  N  767  1  0.35613000  0.99250900  0.34921000  1
  N  775  1  0.85180000  0.47742000  0.76621000  1
  N  776  1  0.85218900  0.51021800  0.78920900  1
  N  777  1  0.85661000  0.52213100  0.66414800  1
  N  785  1  0.16173400  0.97667500  0.74675500  1
  N  786  1  0.16140000  0.00962200  0.72396700  1
  N  787  1  0.15762000  0.02114700  0.84905000  1
  N  795  1  0.66172400  0.53678600  0.26659400  1
  N  796  1  0.66158400  0.50389900  0.28947000  1
  N  797  1  0.65736800  0.49226700  0.16439200  1
  N  805  1  0.24742200  0.35212300  0.03679800  1
  N  806  1  0.22454800  0.35242900  0.00390700  1
  N  807  1  0.34961700  0.35599200  0.99223000  1
  N  815  1  0.76649400  0.85201200  0.47711700  1
  N  816  1  0.78948400  0.85242200  0.50992100  1
  N  817  1  0.66445700  0.85652100  0.52189800  1
  N  825  1  0.74668100  0.16189300  0.97646300  1
  N  826  1  0.72381700  0.16155600  0.00936100  1
  N  827  1  0.84891800  0.15768000  0.02107600  1
  N  835  1  0.26658300  0.66164500  0.53668200  1
  N  836  1  0.28939500  0.66154100  0.50375500  1
  N  837  1  0.16434200  0.65752500  0.49225800  1
  N  845  1  0.99841800  0.28608600  0.88576900  1
  N  846  1  0.97471400  0.25385400  0.88749700  1
  N  847  1  0.09962700  0.23882000  0.88805100  1
  N  855  1  0.51565200  0.72781500  0.38655400  1
  N  856  1  0.53930400  0.76009800  0.38804600  1
  N  857  1  0.41435900  0.77493400  0.38751000  1
  N  865  1  0.49780900  0.22769800  0.12728400  1
  N  866  1  0.47427700  0.26007900  0.12586700  1
  N  867  1  0.59928300  0.27455400  0.12656800  1
  N  875  1  0.01578700  0.78573800  0.62707000  1
  N  876  1  0.03922000  0.75329200  0.62552300  1
  N  877  1  0.91421400  0.73923100  0.62618700  1
  N  885  1  0.78581100  0.62737300  0.01550000  1
  N  886  1  0.75345400  0.62583500  0.03904900  1
  N  887  1  0.73893100  0.62608900  0.91410400  1
  N  895  1  0.22768000  0.12696000  0.49782100  1
  N  896  1  0.26007600  0.12557000  0.47430100  1
  N  897  1  0.27436700  0.12627100  0.59932600  1
  N  905  1  0.72802300  0.38571200  0.51539800  1
  N  906  1  0.76025800  0.38743600  0.53909600  1
  N  907  1  0.77536600  0.38754000  0.41418500  1
  N  915  1  0.28617700  0.88614600  0.99807100  1
  N  916  1  0.25388500  0.88780900  0.97444100  1
  N  917  1  0.23915600  0.88778800  0.09941300  1
  N  925  1  0.12799300  0.49832400  0.22786900  1
  N  926  1  0.12628500  0.47468400  0.26015100  1
  N  927  1  0.12584100  0.59962300  0.27495100  1
  N  935  1  0.62691000  0.01588300  0.78604100  1
  N  936  1  0.62560200  0.03942500  0.75366200  1
  N  937  1  0.62649700  0.91443200  0.73925600  1
  N  945  1  0.88616100  0.99801300  0.28632200  1
  N  946  1  0.88771400  0.97435300  0.25404600  1
  N  947  1  0.88746600  0.09931300  0.23911400  1
  N  955  1  0.38628800  0.51553300  0.72806900  1
  N  956  1  0.38794800  0.53909000  0.76041400  1
  N  957  1  0.38769700  0.41412700  0.77494000  1
  O  17  1  0.07906600  0.42302200  0.33673300  1
  O  18  1  0.14747800  0.36908400  0.45772300  1
  O  37  1  0.43515300  0.59034100  0.83716400  1
  O  38  1  0.36677800  0.64522000  0.95775900  1
  O  57  1  0.93461600  0.92300600  0.17717700  1
  O  58  1  0.86639400  0.86846800  0.05637300  1
  O  77  1  0.57891800  0.09028400  0.67656000  1
  O  78  1  0.64730000  0.14570700  0.55619200  1
  O  97  1  0.33685900  0.07901700  0.42311100  1
  O  98  1  0.45785500  0.14729800  0.36899500  1
  O  117  1  0.83725600  0.43493500  0.59031700  1
  O  118  1  0.95773100  0.36659700  0.64560600  1
  O  137  1  0.17725100  0.93483900  0.92295400  1
  O  138  1  0.05633800  0.86647300  0.86878000  1
  O  157  1  0.67662700  0.57887500  0.09041600  1
  O  158  1  0.55612100  0.64740700  0.14522500  1
  O  177  1  0.42329800  0.33706100  0.07910400  1
  O  178  1  0.36848700  0.45783300  0.14723600  1
  O  197  1  0.59047600  0.83709400  0.43497500  1
  O  198  1  0.64529000  0.95768800  0.36662100  1
  O  217  1  0.92295100  0.17727600  0.93476300  1
  O  218  1  0.86875900  0.05647000  0.86636000  1
  O  237  1  0.09040700  0.67652000  0.57872500  1
  O  238  1  0.14521100  0.55602000  0.64728400  1
  O  257  1  0.17730100  0.31841800  0.91401800  1
  O  258  1  0.12685100  0.41122900  0.80838200  1
  O  277  1  0.33674200  0.69563500  0.41403800  1
  O  278  1  0.38707800  0.60312100  0.30831800  1
  O  297  1  0.67662400  0.19543700  0.09923500  1
  O  298  1  0.62699900  0.10339800  0.20558300  1
  O  317  1  0.83694000  0.81863100  0.59958300  1
  O  318  1  0.88731600  0.91064900  0.70551100  1
  O  337  1  0.81853600  0.59988900  0.83657000  1
  O  338  1  0.91090300  0.70547700  0.88727600  1
  O  357  1  0.19535000  0.09930200  0.67658700  1
  O  358  1  0.10355000  0.20567800  0.62690100  1
  O  377  1  0.69563800  0.41389100  0.33644500  1
  O  378  1  0.60265500  0.30834000  0.38710800  1
  O  397  1  0.31858600  0.91433100  0.17689000  1
  O  398  1  0.41102600  0.80827100  0.12675500  1
  O  417  1  0.09962700  0.67711400  0.19549900  1
  O  418  1  0.20558400  0.62687700  0.10288300  1
  O  437  1  0.59962000  0.83700200  0.81864400  1
  O  438  1  0.70555700  0.88734700  0.91065500  1
  O  457  1  0.91440100  0.17686400  0.31850000  1
  O  458  1  0.80829900  0.12692900  0.41096500  1
  O  477  1  0.41381700  0.33651900  0.69560400  1
  O  478  1  0.30836700  0.38705900  0.60299500  1
