# generated using pymatgen
data_SiH18(C17N3)2
_symmetry_space_group_name_H-M   'P 1'
_cell_length_a   31.91080000
_cell_length_b   31.91080000
_cell_length_c   37.49670000
_cell_angle_alpha   90.00000000
_cell_angle_beta   90.00000000
_cell_angle_gamma   90.00000000
_symmetry_Int_Tables_number   1
_chemical_formula_structural   SiH18(C17N3)2
_chemical_formula_sum   'Si24 H432 C816 N144'
_cell_volume   38182.85798678
_cell_formula_units_Z   24
loop_
 _symmetry_equiv_pos_site_id
 _symmetry_equiv_pos_as_xyz
  1  'x, y, z'
loop_
 _atom_site_type_symbol
 _atom_site_label
 _atom_site_symmetry_multiplicity
 _atom_site_fract_x
 _atom_site_fract_y
 _atom_site_fract_z
 _atom_site_occupancy
  Si  7  1  0.12165000  0.12246600  0.12154900  1
  Si  48  1  0.62151900  0.12166900  0.62223000  1
  Si  89  1  0.12127100  0.62260700  0.62168900  1
  Si  130  1  0.62104900  0.62183600  0.12235000  1
  Si  171  1  0.87161600  0.37194900  0.37212600  1
  Si  212  1  0.87146000  0.87193600  0.87250500  1
  Si  253  1  0.37146900  0.37236600  0.87155000  1
  Si  294  1  0.37127200  0.87235600  0.37161900  1
  Si  479  1  0.12165000  0.43584000  0.17488700  1
  Si  520  1  0.62151900  0.43504300  0.67556800  1
  Si  561  1  0.12127100  0.93598100  0.67502700  1
  Si  602  1  0.62104900  0.93521000  0.17568800  1
  Si  643  1  0.87161600  0.68532300  0.42546400  1
  Si  684  1  0.87146000  0.18531000  0.92584300  1
  Si  725  1  0.37146900  0.68574000  0.92488800  1
  Si  766  1  0.37127200  0.18573000  0.42495700  1
  Si  951  1  0.12165000  0.74921300  0.22822500  1
  Si  992  1  0.62151900  0.74841600  0.72890600  1
  Si  1033  1  0.12127100  0.24935400  0.72836500  1
  Si  1074  1  0.62104900  0.24858300  0.22902600  1
  Si  1115  1  0.87161600  0.99869600  0.47880200  1
  Si  1156  1  0.87146000  0.49868300  0.97918100  1
  Si  1197  1  0.37146900  0.99911300  0.97822600  1
  Si  1238  1  0.37127200  0.49910300  0.47829500  1
  H  26  1  0.00159900  0.14701200  0.19466300  1
  H  27  1  0.04249600  0.10688500  0.15436500  1
  H  28  1  0.09609100  0.23960500  0.19792300  1
  H  29  1  0.13766300  0.19933000  0.15806300  1
  H  30  1  0.20090600  0.13726100  0.15436500  1
  H  31  1  0.24104100  0.09728200  0.19500800  1
  H  32  1  0.14618900  0.00488700  0.19746000  1
  H  33  1  0.10557500  0.04496900  0.15694700  1
  H  34  1  0.13493400  0.04301700  0.08805000  1
  H  35  1  0.09419000  0.00457800  0.04651500  1
  H  36  1  0.00476000  0.10221900  0.04424300  1
  H  37  1  0.04527000  0.14084900  0.08571600  1
  H  38  1  0.10995400  0.20367300  0.09034300  1
  H  39  1  0.19702900  0.10370000  0.08453000  1
  H  40  1  0.23878300  0.14350700  0.04465700  1
  H  41  1  0.15255400  0.24363100  0.05110600  1
  H  67  1  0.72949500  0.09975700  0.70789100  1
  H  68  1  0.68797600  0.14143000  0.66897300  1
  H  69  1  0.65776400  0.99304800  0.68121400  1
  H  70  1  0.61600100  0.03423600  0.64226400  1
  H  71  1  0.55614700  0.10052100  0.66956700  1
  H  72  1  0.51425200  0.14108900  0.70886400  1
  H  73  1  0.58279300  0.24956300  0.68131500  1
  H  74  1  0.62543000  0.20927900  0.64247700  1
  H  75  1  0.60260100  0.18887500  0.57577800  1
  H  76  1  0.64386900  0.22806400  0.53542200  1
  H  77  1  0.74883000  0.15255900  0.55999500  1
  H  78  1  0.70815800  0.11405200  0.60078500  1
  H  79  1  0.64231500  0.05693000  0.57411400  1
  H  80  1  0.53384700  0.12600900  0.60235900  1
  H  81  1  0.49385100  0.08590700  0.56176600  1
  H  82  1  0.60200900  0.01731700  0.53314000  1
  H  108  1  0.23018100  0.64621300  0.53722000  1
  H  109  1  0.18889400  0.60393000  0.57578900  1
  H  110  1  0.15621000  0.75170700  0.56294000  1
  H  111  1  0.11471800  0.70987800  0.60169800  1
  H  112  1  0.05319300  0.64443900  0.57717800  1
  H  113  1  0.01291700  0.60550900  0.53559000  1
  H  114  1  0.08798900  0.49883400  0.55490400  1
  H  115  1  0.12833100  0.53735700  0.59658000  1
  H  116  1  0.10179600  0.55312300  0.66543100  1
  H  117  1  0.14258400  0.51229300  0.70517600  1
  H  118  1  0.24791300  0.58857400  0.68385700  1
  H  119  1  0.20759300  0.62927200  0.64412800  1
  H  120  1  0.14233100  0.68750000  0.66963900  1
  H  121  1  0.03447900  0.61645500  0.64340300  1
  H  122  1  0.99472200  0.65601500  0.68459000  1
  H  123  1  0.10228000  0.72670600  0.71109100  1
  H  149  1  0.49522700  0.59161100  0.05752100  1
  H  150  1  0.53548600  0.63081700  0.09860100  1
  H  151  1  0.60026000  0.51525500  0.03535700  1
  H  152  1  0.64082300  0.55432300  0.07649200  1
  H  153  1  0.70577000  0.61249100  0.09713700  1
  H  154  1  0.74614200  0.65277800  0.05715600  1
  H  155  1  0.64340200  0.73417700  0.04095100  1
  H  156  1  0.60249100  0.69357600  0.08076900  1
  H  157  1  0.62993300  0.70591400  0.14951300  1
  H  158  1  0.58972500  0.74426800  0.19147400  1
  H  159  1  0.51125000  0.63920000  0.20704200  1
  H  160  1  0.55136500  0.60048300  0.16522900  1
  H  161  1  0.61275700  0.53566100  0.14473300  1
  H  162  1  0.69077800  0.64022100  0.16607400  1
  H  163  1  0.73204300  0.59819200  0.20484400  1
  H  164  1  0.65423900  0.49405200  0.18373500  1
  H  190  1  0.89279100  0.26576300  0.28492900  1
  H  191  1  0.85185800  0.30559900  0.32521500  1
  H  192  1  0.99947100  0.33774700  0.31155000  1
  H  193  1  0.95894400  0.37762700  0.35179100  1
  H  194  1  0.89047200  0.43844000  0.32487400  1
  H  195  1  0.84914100  0.47688200  0.28401100  1
  H  196  1  0.74427400  0.40167900  0.30948000  1
  H  197  1  0.78503800  0.36379800  0.35067000  1
  H  198  1  0.80475200  0.39213600  0.41831900  1
  H  199  1  0.76342100  0.35094400  0.45779400  1
  H  200  1  0.83624000  0.24432700  0.43306400  1
  H  201  1  0.87768300  0.28498300  0.39343900  1
  H  202  1  0.93614600  0.35093700  0.42019100  1
  H  203  1  0.86875500  0.46013500  0.39100200  1
  H  204  1  0.91185000  0.50060700  0.42932500  1
  H  205  1  0.97807500  0.39156900  0.45927700  1
  H  231  1  0.84878700  0.97930100  0.78653200  1
  H  232  1  0.88982000  0.94114800  0.82778900  1
  H  233  1  0.74686200  0.89751700  0.80507000  1
  H  234  1  0.78730900  0.85995300  0.84684400  1
  H  235  1  0.85410200  0.79955900  0.83118100  1
  H  236  1  0.89637900  0.75847600  0.79258900  1
  H  237  1  0.99738800  0.84207500  0.80792100  1
  H  238  1  0.95590700  0.88265600  0.84720200  1
  H  239  1  0.93974000  0.85240000  0.91729300  1
  H  240  1  0.98152600  0.89372800  0.95603000  1
  H  241  1  0.90732500  0.99983600  0.93270800  1
  H  242  1  0.86471900  0.95864300  0.89436600  1
  H  243  1  0.80139900  0.89306400  0.91494600  1
  H  244  1  0.87973600  0.78742500  0.89913700  1
  H  245  1  0.83759300  0.74815000  0.93921000  1
  H  246  1  0.75967900  0.85346600  0.95520600  1
  H  272  1  0.39745800  0.49021300  0.94691700  1
  H  273  1  0.35556000  0.44933300  0.90778300  1
  H  274  1  0.49230900  0.39799700  0.94348200  1
  H  275  1  0.45122900  0.35743700  0.90369400  1
  H  276  1  0.38894900  0.29695700  0.90931400  1
  H  277  1  0.34863400  0.25704500  0.95021000  1
  H  278  1  0.25070500  0.34582000  0.94334600  1
  H  279  1  0.29077400  0.38594700  0.90265400  1
  H  280  1  0.29624100  0.35352600  0.83430400  1
  H  281  1  0.25481900  0.39319600  0.79398400  1
  H  282  1  0.34180900  0.49272000  0.79964800  1
  H  283  1  0.38372200  0.45318800  0.83977700  1
  H  284  1  0.44676700  0.39077000  0.83431200  1
  H  285  1  0.35892800  0.29148800  0.84015000  1
  H  286  1  0.39961700  0.25241900  0.79900500  1
  H  287  1  0.48711700  0.35159500  0.79313800  1
  H  313  1  0.34863100  0.76702200  0.45933900  1
  H  314  1  0.38985200  0.80489900  0.41805200  1
  H  315  1  0.24520200  0.84545900  0.43677100  1
  H  316  1  0.28583700  0.88269700  0.39500200  1
  H  317  1  0.35309300  0.94284000  0.41489700  1
  H  318  1  0.39514200  0.98374400  0.45381300  1
  H  319  1  0.49793100  0.90340800  0.43486200  1
  H  320  1  0.45670100  0.86308300  0.39528000  1
  H  321  1  0.43763200  0.89266600  0.32519400  1
  H  322  1  0.47983400  0.85165800  0.28659600  1
  H  323  1  0.41032800  0.74370400  0.31391500  1
  H  324  1  0.36706700  0.78459600  0.35188100  1
  H  325  1  0.30365800  0.85049500  0.32683100  1
  H  326  1  0.37733000  0.95831400  0.34752900  1
  H  327  1  0.33481100  0.99764200  0.30786400  1
  H  328  1  0.26177700  0.89009600  0.28674000  1
  H  335  1  0.95919500  0.03994800  0.03725900  1
  H  344  1  0.78642900  0.21232000  0.54330000  1
  H  353  1  0.28351200  0.52353100  0.69585800  1
  H  362  1  0.46051400  0.70017600  0.21060800  1
  H  371  1  0.20663300  0.78583000  0.45326100  1
  H  380  1  0.70699200  0.46236700  0.29305700  1
  H  389  1  0.53379100  0.29067600  0.78636400  1
  H  398  1  0.96057400  0.54580800  0.53228900  1
  H  407  1  0.78437900  0.71561000  0.04533100  1
  H  416  1  0.28383600  0.03482100  0.20288400  1
  H  425  1  0.21066600  0.27956200  0.95002600  1
  H  434  1  0.70730200  0.95713300  0.78987100  1
  H  443  1  0.46366100  0.01553400  0.54998400  1
  H  452  1  0.96339400  0.72548100  0.69604700  1
  H  461  1  0.03313200  0.27135700  0.29875700  1
  H  470  1  0.46035800  0.52477200  0.04626700  1
  H  498  1  0.00159900  0.46038600  0.24800100  1
  H  499  1  0.04249600  0.42025900  0.20770300  1
  H  500  1  0.09609100  0.55297900  0.25126100  1
  H  501  1  0.13766300  0.51270400  0.21140100  1
  H  502  1  0.20090600  0.45063500  0.20770300  1
  H  503  1  0.24104100  0.41065600  0.24834600  1
  H  504  1  0.14618900  0.31826100  0.25079800  1
  H  505  1  0.10557500  0.35834300  0.21028500  1
  H  506  1  0.13493400  0.35639100  0.14138800  1
  H  507  1  0.09419000  0.31795200  0.09985300  1
  H  508  1  0.00476000  0.41559300  0.09758100  1
  H  509  1  0.04527000  0.45422300  0.13905400  1
  H  510  1  0.10995400  0.51704700  0.14368100  1
  H  511  1  0.19702900  0.41707400  0.13786800  1
  H  512  1  0.23878300  0.45688100  0.09799500  1
  H  513  1  0.15255400  0.55700500  0.10444400  1
  H  539  1  0.72949500  0.41313100  0.76122900  1
  H  540  1  0.68797600  0.45480400  0.72231100  1
  H  541  1  0.65776400  0.30642200  0.73455200  1
  H  542  1  0.61600100  0.34761000  0.69560200  1
  H  543  1  0.55614700  0.41389500  0.72290500  1
  H  544  1  0.51425200  0.45446300  0.76220200  1
  H  545  1  0.58279300  0.56293700  0.73465300  1
  H  546  1  0.62543000  0.52265300  0.69581500  1
  H  547  1  0.60260100  0.50224900  0.62911600  1
  H  548  1  0.64386900  0.54143800  0.58876000  1
  H  549  1  0.74883000  0.46593300  0.61333300  1
  H  550  1  0.70815800  0.42742600  0.65412300  1
  H  551  1  0.64231500  0.37030400  0.62745200  1
  H  552  1  0.53384700  0.43938300  0.65569700  1
  H  553  1  0.49385100  0.39928100  0.61510400  1
  H  554  1  0.60200900  0.33069100  0.58647800  1
  H  580  1  0.23018100  0.95958700  0.59055800  1
  H  581  1  0.18889400  0.91730400  0.62912700  1
  H  582  1  0.15621000  0.06508050  0.61627800  1
  H  583  1  0.11471800  0.02325150  0.65503600  1
  H  584  1  0.05319300  0.95781300  0.63051600  1
  H  585  1  0.01291700  0.91888300  0.58892800  1
  H  586  1  0.08798900  0.81220800  0.60824200  1
  H  587  1  0.12833100  0.85073100  0.64991800  1
  H  588  1  0.10179600  0.86649700  0.71876900  1
  H  589  1  0.14258400  0.82566700  0.75851400  1
  H  590  1  0.24791300  0.90194800  0.73719500  1
  H  591  1  0.20759300  0.94264600  0.69746600  1
  H  592  1  0.14233100  0.00087353  0.72297700  1
  H  593  1  0.03447900  0.92982900  0.69674100  1
  H  594  1  0.99472200  0.96938900  0.73792800  1
  H  595  1  0.10228000  0.04007950  0.76442900  1
  H  621  1  0.49522700  0.90498500  0.11085900  1
  H  622  1  0.53548600  0.94419100  0.15193900  1
  H  623  1  0.60026000  0.82862900  0.08869500  1
  H  624  1  0.64082300  0.86769700  0.12983000  1
  H  625  1  0.70577000  0.92586500  0.15047500  1
  H  626  1  0.74614200  0.96615200  0.11049400  1
  H  627  1  0.64340200  0.04755050  0.09428900  1
  H  628  1  0.60249100  0.00694953  0.13410700  1
  H  629  1  0.62993300  0.01928750  0.20285100  1
  H  630  1  0.58972500  0.05764150  0.24481200  1
  H  631  1  0.51125000  0.95257400  0.26038000  1
  H  632  1  0.55136500  0.91385700  0.21856700  1
  H  633  1  0.61275700  0.84903500  0.19807100  1
  H  634  1  0.69077800  0.95359500  0.21941200  1
  H  635  1  0.73204300  0.91156600  0.25818200  1
  H  636  1  0.65423900  0.80742600  0.23707300  1
  H  662  1  0.89279100  0.57913700  0.33826700  1
  H  663  1  0.85185800  0.61897300  0.37855300  1
  H  664  1  0.99947100  0.65112100  0.36488800  1
  H  665  1  0.95894400  0.69100100  0.40512900  1
  H  666  1  0.89047200  0.75181400  0.37821200  1
  H  667  1  0.84914100  0.79025600  0.33734900  1
  H  668  1  0.74427400  0.71505300  0.36281800  1
  H  669  1  0.78503800  0.67717200  0.40400800  1
  H  670  1  0.80475200  0.70551000  0.47165700  1
  H  671  1  0.76342100  0.66431800  0.51113200  1
  H  672  1  0.83624000  0.55770100  0.48640200  1
  H  673  1  0.87768300  0.59835700  0.44677700  1
  H  674  1  0.93614600  0.66431100  0.47352900  1
  H  675  1  0.86875500  0.77350900  0.44434000  1
  H  676  1  0.91185000  0.81398100  0.48266300  1
  H  677  1  0.97807500  0.70494300  0.51261500  1
  H  703  1  0.84878700  0.29267500  0.83987000  1
  H  704  1  0.88982000  0.25452200  0.88112700  1
  H  705  1  0.74686200  0.21089100  0.85840800  1
  H  706  1  0.78730900  0.17332700  0.90018200  1
  H  707  1  0.85410200  0.11293300  0.88451900  1
  H  708  1  0.89637900  0.07184950  0.84592700  1
  H  709  1  0.99738800  0.15544900  0.86125900  1
  H  710  1  0.95590700  0.19603000  0.90054000  1
  H  711  1  0.93974000  0.16577400  0.97063100  1
  H  712  1  0.98152600  0.20710200  0.00936803  1
  H  713  1  0.90732500  0.31321000  0.98604600  1
  H  714  1  0.86471900  0.27201700  0.94770400  1
  H  715  1  0.80139900  0.20643800  0.96828400  1
  H  716  1  0.87973600  0.10079900  0.95247500  1
  H  717  1  0.83759300  0.06152350  0.99254800  1
  H  718  1  0.75967900  0.16684000  0.00854403  1
  H  744  1  0.39745800  0.80358700  0.00025503  1
  H  745  1  0.35556000  0.76270700  0.96112100  1
  H  746  1  0.49230900  0.71137100  0.99682000  1
  H  747  1  0.45122900  0.67081100  0.95703200  1
  H  748  1  0.38894900  0.61033100  0.96265200  1
  H  749  1  0.34863400  0.57041900  0.00354803  1
  H  750  1  0.25070500  0.65919400  0.99668400  1
  H  751  1  0.29077400  0.69932100  0.95599200  1
  H  752  1  0.29624100  0.66690000  0.88764200  1
  H  753  1  0.25481900  0.70657000  0.84732200  1
  H  754  1  0.34180900  0.80609400  0.85298600  1
  H  755  1  0.38372200  0.76656200  0.89311500  1
  H  756  1  0.44676700  0.70414400  0.88765000  1
  H  757  1  0.35892800  0.60486200  0.89348800  1
  H  758  1  0.39961700  0.56579300  0.85234300  1
  H  759  1  0.48711700  0.66496900  0.84647600  1
  H  785  1  0.34863100  0.08039550  0.51267700  1
  H  786  1  0.38985200  0.11827300  0.47139000  1
  H  787  1  0.24520200  0.15883300  0.49010900  1
  H  788  1  0.28583700  0.19607100  0.44834000  1
  H  789  1  0.35309300  0.25621400  0.46823500  1
  H  790  1  0.39514200  0.29711800  0.50715100  1
  H  791  1  0.49793100  0.21678200  0.48820000  1
  H  792  1  0.45670100  0.17645700  0.44861800  1
  H  793  1  0.43763200  0.20604000  0.37853200  1
  H  794  1  0.47983400  0.16503200  0.33993400  1
  H  795  1  0.41032800  0.05707750  0.36725300  1
  H  796  1  0.36706700  0.09796950  0.40521900  1
  H  797  1  0.30365800  0.16386900  0.38016900  1
  H  798  1  0.37733000  0.27168800  0.40086700  1
  H  799  1  0.33481100  0.31101600  0.36120200  1
  H  800  1  0.26177700  0.20347000  0.34007800  1
  H  807  1  0.95919500  0.35332200  0.09059700  1
  H  816  1  0.78642900  0.52569400  0.59663800  1
  H  825  1  0.28351200  0.83690500  0.74919600  1
  H  834  1  0.46051400  0.01354950  0.26394600  1
  H  843  1  0.20663300  0.09920350  0.50659900  1
  H  852  1  0.70699200  0.77574100  0.34639500  1
  H  861  1  0.53379100  0.60405000  0.83970200  1
  H  870  1  0.96057400  0.85918200  0.58562700  1
  H  879  1  0.78437900  0.02898350  0.09866900  1
  H  888  1  0.28383600  0.34819500  0.25622200  1
  H  897  1  0.21066600  0.59293600  0.00336403  1
  H  906  1  0.70730200  0.27050700  0.84320900  1
  H  915  1  0.46366100  0.32890800  0.60332200  1
  H  924  1  0.96339400  0.03885450  0.74938500  1
  H  933  1  0.03313200  0.58473100  0.35209500  1
  H  942  1  0.46035800  0.83814600  0.09960500  1
  H  970  1  0.00159900  0.77375900  0.30133900  1
  H  971  1  0.04249600  0.73363200  0.26104100  1
  H  972  1  0.09609100  0.86635200  0.30459900  1
  H  973  1  0.13766300  0.82607700  0.26473900  1
  H  974  1  0.20090600  0.76400800  0.26104100  1
  H  975  1  0.24104100  0.72402900  0.30168400  1
  H  976  1  0.14618900  0.63163400  0.30413600  1
  H  977  1  0.10557500  0.67171600  0.26362300  1
  H  978  1  0.13493400  0.66976400  0.19472600  1
  H  979  1  0.09419000  0.63132500  0.15319100  1
  H  980  1  0.00476000  0.72896600  0.15091900  1
  H  981  1  0.04527000  0.76759600  0.19239200  1
  H  982  1  0.10995400  0.83042000  0.19701900  1
  H  983  1  0.19702900  0.73044700  0.19120600  1
  H  984  1  0.23878300  0.77025400  0.15133300  1
  H  985  1  0.15255400  0.87037800  0.15778200  1
  H  1011  1  0.72949500  0.72650400  0.81456700  1
  H  1012  1  0.68797600  0.76817700  0.77564900  1
  H  1013  1  0.65776400  0.61979500  0.78789000  1
  H  1014  1  0.61600100  0.66098300  0.74894000  1
  H  1015  1  0.55614700  0.72726800  0.77624300  1
  H  1016  1  0.51425200  0.76783600  0.81554000  1
  H  1017  1  0.58279300  0.87631000  0.78799100  1
  H  1018  1  0.62543000  0.83602600  0.74915300  1
  H  1019  1  0.60260100  0.81562200  0.68245400  1
  H  1020  1  0.64386900  0.85481100  0.64209800  1
  H  1021  1  0.74883000  0.77930600  0.66666667  1
  H  1022  1  0.70815800  0.74079900  0.70746100  1
  H  1023  1  0.64231500  0.68367700  0.68079000  1
  H  1024  1  0.53384700  0.75275600  0.70903500  1
  H  1025  1  0.49385100  0.71265400  0.66844200  1
  H  1026  1  0.60200900  0.64406400  0.63981600  1
  H  1052  1  0.23018100  0.27296000  0.64389600  1
  H  1053  1  0.18889400  0.23067700  0.68246500  1
  H  1054  1  0.15621000  0.37845400  0.66961600  1
  H  1055  1  0.11471800  0.33662500  0.70837400  1
  H  1056  1  0.05319300  0.27118600  0.68385400  1
  H  1057  1  0.01291700  0.23225600  0.64226600  1
  H  1058  1  0.08798900  0.12558100  0.66158000  1
  H  1059  1  0.12833100  0.16410400  0.70325600  1
  H  1060  1  0.10179600  0.17987000  0.77210700  1
  H  1061  1  0.14258400  0.13904000  0.81185200  1
  H  1062  1  0.24791300  0.21532100  0.79053300  1
  H  1063  1  0.20759300  0.25601900  0.75080400  1
  H  1064  1  0.14233100  0.31424700  0.77631500  1
  H  1065  1  0.03447900  0.24320200  0.75007900  1
  H  1066  1  0.99472200  0.28276200  0.79126600  1
  H  1067  1  0.10228000  0.35345300  0.81776700  1
  H  1093  1  0.49522700  0.21835800  0.16419700  1
  H  1094  1  0.53548600  0.25756400  0.20527700  1
  H  1095  1  0.60026000  0.14200200  0.14203300  1
  H  1096  1  0.64082300  0.18107000  0.18316800  1
  H  1097  1  0.70577000  0.23923800  0.20381300  1
  H  1098  1  0.74614200  0.27952500  0.16383200  1
  H  1099  1  0.64340200  0.36092400  0.14762700  1
  H  1100  1  0.60249100  0.32032300  0.18744500  1
  H  1101  1  0.62993300  0.33266100  0.25618900  1
  H  1102  1  0.58972500  0.37101500  0.29815000  1
  H  1103  1  0.51125000  0.26594700  0.31371800  1
  H  1104  1  0.55136500  0.22723000  0.27190500  1
  H  1105  1  0.61275700  0.16240800  0.25140900  1
  H  1106  1  0.69077800  0.26696800  0.27275000  1
  H  1107  1  0.73204300  0.22493900  0.31152000  1
  H  1108  1  0.65423900  0.12079900  0.29041100  1
  H  1134  1  0.89279100  0.89251000  0.39160500  1
  H  1135  1  0.85185800  0.93234600  0.43189100  1
  H  1136  1  0.99947100  0.96449400  0.41822600  1
  H  1137  1  0.95894400  0.00437406  0.45846700  1
  H  1138  1  0.89047200  0.06518710  0.43155000  1
  H  1139  1  0.84914100  0.10362900  0.39068700  1
  H  1140  1  0.74427400  0.02842610  0.41615600  1
  H  1141  1  0.78503800  0.99054500  0.45734600  1
  H  1142  1  0.80475200  0.01888310  0.52499500  1
  H  1143  1  0.76342100  0.97769100  0.56447000  1
  H  1144  1  0.83624000  0.87107400  0.53974000  1
  H  1145  1  0.87768300  0.91173000  0.50011500  1
  H  1146  1  0.93614600  0.97768400  0.52686700  1
  H  1147  1  0.86875500  0.08688210  0.49767800  1
  H  1148  1  0.91185000  0.12735400  0.53600100  1
  H  1149  1  0.97807500  0.01831610  0.56595300  1
  H  1175  1  0.84878700  0.60604800  0.89320800  1
  H  1176  1  0.88982000  0.56789500  0.93446500  1
  H  1177  1  0.74686200  0.52426400  0.91174600  1
  H  1178  1  0.78730900  0.48670000  0.95352000  1
  H  1179  1  0.85410200  0.42630600  0.93785700  1
  H  1180  1  0.89637900  0.38522300  0.89926500  1
  H  1181  1  0.99738800  0.46882200  0.91459700  1
  H  1182  1  0.95590700  0.50940300  0.95387800  1
  H  1183  1  0.93974000  0.47914700  0.02396910  1
  H  1184  1  0.98152600  0.52047500  0.06270610  1
  H  1185  1  0.90732500  0.62658300  0.03938410  1
  H  1186  1  0.86471900  0.58539000  0.00104205  1
  H  1187  1  0.80139900  0.51981100  0.02162210  1
  H  1188  1  0.87973600  0.41417200  0.00581305  1
  H  1189  1  0.83759300  0.37489700  0.04588610  1
  H  1190  1  0.75967900  0.48021300  0.06188210  1
  H  1216  1  0.39745800  0.11696000  0.05359310  1
  H  1217  1  0.35556000  0.07608010  0.01445910  1
  H  1218  1  0.49230900  0.02474410  0.05015810  1
  H  1219  1  0.45122900  0.98418400  0.01037010  1
  H  1220  1  0.38894900  0.92370400  0.01599010  1
  H  1221  1  0.34863400  0.88379200  0.05688610  1
  H  1222  1  0.25070500  0.97256700  0.05002210  1
  H  1223  1  0.29077400  0.01269410  0.00933005  1
  H  1224  1  0.29624100  0.98027300  0.94098000  1
  H  1225  1  0.25481900  0.01994310  0.90066000  1
  H  1226  1  0.34180900  0.11946700  0.90632400  1
  H  1227  1  0.38372200  0.07993510  0.94645300  1
  H  1228  1  0.44676700  0.01751710  0.94098800  1
  H  1229  1  0.35892800  0.91823500  0.94682600  1
  H  1230  1  0.39961700  0.87916600  0.90568100  1
  H  1231  1  0.48711700  0.97834200  0.89981400  1
  H  1257  1  0.34863100  0.39376900  0.56601500  1
  H  1258  1  0.38985200  0.43164600  0.52472800  1
  H  1259  1  0.24520200  0.47220600  0.54344700  1
  H  1260  1  0.28583700  0.50944400  0.50167800  1
  H  1261  1  0.35309300  0.56958700  0.52157300  1
  H  1262  1  0.39514200  0.61049100  0.56048900  1
  H  1263  1  0.49793100  0.53015500  0.54153800  1
  H  1264  1  0.45670100  0.48983000  0.50195600  1
  H  1265  1  0.43763200  0.51941300  0.43187000  1
  H  1266  1  0.47983400  0.47840500  0.39327200  1
  H  1267  1  0.41032800  0.37045100  0.42059100  1
  H  1268  1  0.36706700  0.41134300  0.45855700  1
  H  1269  1  0.30365800  0.47724200  0.43350700  1
  H  1270  1  0.37733000  0.58506100  0.45420500  1
  H  1271  1  0.33481100  0.62438900  0.41454000  1
  H  1272  1  0.26177700  0.51684300  0.39341600  1
  H  1279  1  0.95919500  0.66666667  0.14393500  1
  H  1288  1  0.78642900  0.83906700  0.64997600  1
  H  1297  1  0.28351200  0.15027800  0.80253400  1
  H  1306  1  0.46051400  0.32692300  0.31728400  1
  H  1315  1  0.20663300  0.41257700  0.55993700  1
  H  1324  1  0.70699200  0.08911410  0.39973300  1
  H  1333  1  0.53379100  0.91742300  0.89304000  1
  H  1342  1  0.96057400  0.17255500  0.63896500  1
  H  1351  1  0.78437900  0.34235700  0.15200700  1
  H  1360  1  0.28383600  0.66156800  0.30956000  1
  H  1369  1  0.21066600  0.90630900  0.05670210  1
  H  1378  1  0.70730200  0.58388000  0.89654700  1
  H  1387  1  0.46366100  0.64228100  0.65666000  1
  H  1396  1  0.96339400  0.35222800  0.80272300  1
  H  1405  1  0.03313200  0.89810400  0.40543300  1
  H  1414  1  0.46035800  0.15151900  0.15294300  1
  C  1  1  0.20080200  0.19821200  0.04536200  1
  C  2  1  0.21235600  0.15702300  0.05500800  1
  C  3  1  0.18743700  0.13349600  0.07849400  1
  C  4  1  0.15080400  0.15085400  0.09389500  1
  C  5  1  0.13758800  0.19078800  0.08188300  1
  C  6  1  0.16242400  0.21427600  0.05825800  1
  C  8  1  0.09275300  0.09454800  0.09336500  1
  C  9  1  0.05567200  0.11166900  0.07857900  1
  C  10  1  0.03155400  0.08883200  0.05400400  1
  C  11  1  0.04466100  0.04889300  0.04212400  1
  C  12  1  0.08329800  0.03313600  0.05482300  1
  C  13  1  0.10707600  0.05568000  0.07986200  1
  C  14  1  0.15041500  0.09374300  0.14923200  1
  C  15  1  0.09284700  0.15065000  0.14961400  1
  C  16  1  0.05403600  0.13527300  0.16244900  1
  C  17  1  0.02972100  0.15892200  0.18630400  1
  C  18  1  0.04401600  0.19811000  0.19887400  1
  C  19  1  0.08437100  0.21178000  0.18867200  1
  C  20  1  0.10862800  0.18814500  0.16472100  1
  C  21  1  0.18920700  0.10887100  0.16228000  1
  C  22  1  0.21313500  0.08516700  0.18637700  1
  C  23  1  0.19844600  0.04623200  0.19933200  1
  C  24  1  0.15829500  0.03259800  0.18833900  1
  C  25  1  0.13450800  0.05612900  0.16396500  1
  C  42  1  0.54363700  0.04679300  0.54411100  1
  C  43  1  0.52490300  0.07871500  0.56481200  1
  C  44  1  0.54873800  0.10236500  0.58904800  1
  C  45  1  0.59192100  0.09411400  0.59419000  1
  C  46  1  0.61092700  0.06335400  0.57225000  1
  C  47  1  0.58718900  0.04000300  0.54776500  1
  C  49  1  0.65168500  0.14923600  0.59462500  1
  C  50  1  0.69418700  0.13888900  0.58833100  1
  C  51  1  0.71847100  0.16174400  0.56388100  1
  C  52  1  0.70118800  0.19550800  0.54432700  1
  C  53  1  0.65807400  0.20429200  0.54919400  1
  C  54  1  0.63367200  0.18123900  0.57343100  1
  C  55  1  0.59353200  0.15110800  0.65006400  1
  C  56  1  0.64920900  0.09169600  0.64983800  1
  C  57  1  0.68128000  0.11009300  0.67079700  1
  C  58  1  0.70605800  0.08558600  0.69366000  1
  C  59  1  0.69840900  0.04224100  0.69726100  1
  C  60  1  0.66451100  0.02427100  0.67855800  1
  C  61  1  0.64030300  0.04864600  0.65511000  1
  C  62  1  0.56212900  0.13200900  0.67130100  1
  C  63  1  0.53700600  0.15593000  0.69434000  1
  C  64  1  0.54337700  0.19952200  0.69774300  1
  C  65  1  0.57677300  0.21817700  0.67881600  1
  C  66  1  0.60149500  0.19432800  0.65535300  1
  C  83  1  0.04416500  0.69619900  0.70120500  1
  C  84  1  0.02557000  0.66372800  0.68102400  1
  C  85  1  0.04922900  0.64041600  0.65642800  1
  C  86  1  0.09205700  0.64956900  0.65039500  1
  C  87  1  0.11110200  0.68057100  0.67205300  1
  C  88  1  0.08753000  0.70363300  0.69686000  1
  C  90  1  0.15106800  0.59381400  0.64863200  1
  C  91  1  0.19350000  0.60386100  0.65560900  1
  C  92  1  0.21753300  0.57977800  0.67937400  1
  C  93  1  0.19985000  0.54530700  0.69768200  1
  C  94  1  0.15684800  0.53666400  0.69221700  1
  C  95  1  0.13280500  0.56070300  0.66841000  1
  C  96  1  0.09327700  0.59422100  0.59310700  1
  C  97  1  0.14913200  0.65305700  0.59461200  1
  C  98  1  0.18173600  0.63516000  0.57393800  1
  C  99  1  0.20636400  0.66002400  0.55125300  1
  C  100  1  0.19794500  0.70319400  0.54745800  1
  C  101  1  0.16350900  0.72063600  0.56580100  1
  C  102  1  0.13948600  0.69591100  0.58913100  1
  C  103  1  0.06064000  0.61351600  0.57342300  1
  C  104  1  0.03657900  0.59052700  0.54890400  1
  C  105  1  0.04570300  0.54799600  0.54191400  1
  C  106  1  0.08011400  0.52944400  0.55961900  1
  C  107  1  0.10348100  0.55214500  0.58483700  1
  C  124  1  0.69788200  0.54183200  0.19689700  1
  C  125  1  0.70743400  0.58456300  0.19170200  1
  C  126  1  0.68281500  0.60929500  0.16890300  1
  C  127  1  0.64910600  0.59159200  0.14943200  1
  C  128  1  0.63833800  0.54930300  0.15635700  1
  C  129  1  0.66237400  0.52475300  0.17981900  1
  C  131  1  0.59311500  0.65007100  0.15105300  1
  C  132  1  0.55958400  0.63104900  0.16981200  1
  C  133  1  0.53563600  0.65391900  0.19447800  1
  C  134  1  0.54575800  0.69594600  0.20258600  1
  C  135  1  0.58110400  0.71405800  0.18590300  1
  C  136  1  0.60440000  0.69151100  0.16053300  1
  C  137  1  0.65073500  0.65051300  0.09525800  1
  C  138  1  0.59166700  0.59490500  0.09377300  1
  C  139  1  0.54951900  0.60577500  0.08647900  1
  C  140  1  0.52557700  0.58265500  0.06195200  1
  C  141  1  0.54322300  0.54856900  0.04310900  1
  C  142  1  0.58610500  0.53946600  0.04862000  1
  C  143  1  0.60999300  0.56245200  0.07326100  1
  C  144  1  0.69233500  0.63886100  0.08666800  1
  C  145  1  0.71638700  0.66272500  0.06276700  1
  C  146  1  0.69953000  0.69862500  0.04591700  1
  C  147  1  0.65715000  0.70879700  0.05286500  1
  C  148  1  0.63304800  0.68490800  0.07675000  1
  C  165  1  0.95029500  0.45033600  0.44690300  1
  C  166  1  0.91734100  0.46906600  0.42744200  1
  C  167  1  0.89233000  0.44509700  0.40427800  1
  C  168  1  0.89959400  0.40164400  0.39976800  1
  C  169  1  0.93061500  0.38254400  0.42139900  1
  C  170  1  0.95582600  0.40653900  0.44429700  1
  C  172  1  0.84393300  0.34230100  0.40000000  1
  C  173  1  0.85319600  0.29945100  0.40598200  1
  C  174  1  0.82922900  0.27542100  0.42986100  1
  C  175  1  0.79516900  0.29354200  0.44822800  1
  C  176  1  0.78705200  0.33669400  0.44385200  1
  C  177  1  0.81167400  0.36089300  0.42063100  1
  C  178  1  0.84145100  0.39901500  0.34416300  1
  C  179  1  0.90156800  0.34421900  0.34449700  1
  C  180  1  0.88310800  0.31259400  0.32314300  1
  C  181  1  0.90725300  0.28912400  0.29902600  1
  C  182  1  0.95064000  0.29679000  0.29492400  1
  C  183  1  0.96867100  0.32975600  0.31491300  1
  C  184  1  0.94450400  0.35333500  0.33895700  1
  C  185  1  0.85941700  0.43070600  0.32260100  1
  C  186  1  0.83498900  0.45331600  0.29808200  1
  C  187  1  0.79189700  0.44437300  0.29333500  1
  C  188  1  0.77463000  0.41093600  0.31328300  1
  C  189  1  0.79897000  0.38847300  0.33795700  1
  C  206  1  0.79374600  0.79661000  0.94998100  1
  C  207  1  0.82953000  0.77860700  0.93400100  1
  C  208  1  0.85396100  0.80173700  0.90982000  1
  C  209  1  0.84323700  0.84349100  0.90085400  1
  C  210  1  0.80929900  0.86234700  0.91921800  1
  C  211  1  0.78441700  0.83903200  0.94289800  1
  C  213  1  0.89947200  0.90184100  0.89989700  1
  C  214  1  0.88984800  0.94450700  0.90625700  1
  C  215  1  0.91457000  0.96882100  0.92938700  1
  C  216  1  0.94956200  0.95116000  0.94688500  1
  C  217  1  0.95760000  0.90796800  0.94246000  1
  C  218  1  0.93257000  0.88357500  0.91973000  1
  C  219  1  0.90156500  0.84358800  0.84551900  1
  C  220  1  0.84187700  0.89852600  0.84385200  1
  C  221  1  0.85941000  0.93189700  0.82394600  1
  C  222  1  0.83519300  0.95431900  0.79915500  1
  C  223  1  0.79291900  0.94344500  0.79240200  1
  C  224  1  0.77645700  0.90810200  0.81038800  1
  C  225  1  0.80056500  0.88582500  0.83534700  1
  C  226  1  0.88455500  0.80863500  0.82728800  1
  C  227  1  0.90938700  0.78444500  0.80419800  1
  C  228  1  0.95169900  0.79510600  0.79775200  1
  C  229  1  0.96772500  0.83190600  0.81364400  1
  C  230  1  0.94301200  0.85588800  0.83696600  1
  C  247  1  0.44823000  0.29745500  0.79285800  1
  C  248  1  0.41014900  0.28141900  0.80649900  1
  C  249  1  0.38641100  0.30435500  0.83130900  1
  C  250  1  0.40021800  0.34394300  0.84362500  1
  C  251  1  0.43672000  0.36121900  0.82795200  1
  C  252  1  0.46080300  0.33800700  0.80361400  1
  C  254  1  0.34258000  0.40060100  0.84357500  1
  C  255  1  0.35610800  0.44031800  0.83125900  1
  C  256  1  0.33173100  0.46353900  0.80710200  1
  C  257  1  0.29341400  0.44744700  0.79416200  1
  C  258  1  0.28138500  0.40655800  0.80423800  1
  C  259  1  0.30603700  0.38319000  0.82804300  1
  C  260  1  0.34278600  0.34398000  0.89955500  1
  C  261  1  0.40051600  0.40081400  0.89923500  1
  C  262  1  0.38473100  0.43834300  0.91426300  1
  C  263  1  0.40923400  0.46237300  0.93774800  1
  C  264  1  0.44980700  0.44903900  0.94768500  1
  C  265  1  0.46408700  0.40977600  0.93524700  1
  C  266  1  0.43962800  0.38582200  0.91171900  1
  C  267  1  0.35952100  0.30744100  0.91556200  1
  C  268  1  0.33589500  0.28399200  0.94010000  1
  C  269  1  0.29502100  0.29663600  0.94987700  1
  C  270  1  0.27931600  0.33451000  0.93562300  1
  C  271  1  0.30314600  0.35821700  0.91144400  1
  C  288  1  0.29326000  0.94803900  0.29454800  1
  C  289  1  0.32782600  0.96668100  0.31189900  1
  C  290  1  0.35248200  0.94346600  0.33585000  1
  C  291  1  0.34320900  0.90094800  0.34324300  1
  C  292  1  0.31054600  0.88163500  0.32359600  1
  C  293  1  0.28550300  0.90497200  0.30006300  1
  C  295  1  0.39946900  0.84245400  0.34433700  1
  C  296  1  0.39136600  0.79924900  0.33923500  1
  C  297  1  0.41650400  0.77506600  0.31633100  1
  C  298  1  0.45039300  0.79336400  0.29774900  1
  C  299  1  0.45684500  0.83697600  0.30096500  1
  C  300  1  0.43148000  0.86120300  0.32355100  1
  C  301  1  0.40135000  0.90055600  0.39876500  1
  C  302  1  0.34135400  0.84578800  0.40005300  1
  C  303  1  0.35909400  0.81343900  0.42101800  1
  C  304  1  0.33474800  0.79119200  0.44583100  1
  C  305  1  0.29204700  0.80121700  0.45151700  1
  C  306  1  0.27519000  0.83545600  0.43230200  1
  C  307  1  0.29942900  0.85753300  0.40730700  1
  C  308  1  0.38384800  0.93443200  0.41811600  1
  C  309  1  0.40856000  0.95852700  0.44137200  1
  C  310  1  0.45127300  0.94879400  0.44688900  1
  C  311  1  0.46788800  0.91297500  0.42985900  1
  C  312  1  0.44332000  0.88915900  0.40631000  1
  C  329  1  0.97505100  0.97596000  0.96950800  1
  C  331  1  0.97609200  0.02397500  0.01853700  1
  C  332  1  0.02030800  0.02530900  0.01766400  1
  C  334  1  0.01946900  0.97756100  0.96818500  1
  C  336  1  0.04240300  0.95893800  0.94427400  1
  C  338  1  0.77026200  0.26896100  0.47128600  1
  C  340  1  0.76950700  0.22502500  0.52289600  1
  C  341  1  0.72566000  0.21955200  0.51997800  1
  C  343  1  0.72632700  0.26386600  0.46801100  1
  C  345  1  0.70379600  0.27956100  0.44236400  1
  C  347  1  0.26832500  0.47154500  0.77071200  1
  C  349  1  0.26712300  0.51261300  0.71732100  1
  C  350  1  0.22390400  0.52068500  0.72173700  1
  C  352  1  0.22491700  0.47942300  0.77537400  1
  C  354  1  0.20297300  0.46724300  0.80271500  1
  C  356  1  0.47615500  0.76873300  0.27516300  1
  C  358  1  0.47737400  0.71810400  0.22803600  1
  C  359  1  0.52156600  0.71942300  0.22713400  1
  C  361  1  0.52064100  0.76955700  0.27479700  1
  C  363  1  0.54374000  0.79051800  0.29713800  1
  C  365  1  0.22281100  0.72832300  0.52479000  1
  C  367  1  0.22356600  0.77281300  0.47351800  1
  C  368  1  0.26750500  0.77768900  0.47615100  1
  C  370  1  0.26681700  0.73302700  0.52787200  1
  C  372  1  0.28944600  0.71675300  0.55319500  1
  C  374  1  0.72269800  0.51686500  0.21974900  1
  C  376  1  0.72369200  0.47423100  0.27215200  1
  C  377  1  0.76738200  0.46798500  0.26875100  1
  C  379  1  0.76646400  0.51081100  0.21592800  1
  C  381  1  0.78879500  0.52546100  0.18971300  1
  C  383  1  0.51781800  0.22393200  0.72060400  1
  C  385  1  0.51679900  0.27353300  0.76847500  1
  C  386  1  0.47254800  0.27355100  0.76857300  1
  C  388  1  0.47334700  0.22409500  0.72030300  1
  C  390  1  0.45029900  0.20389900  0.69742300  1
  C  392  1  0.97607000  0.47481700  0.46961700  1
  C  394  1  0.97739900  0.52682700  0.51566300  1
  C  395  1  0.02150200  0.52440800  0.51744500  1
  C  397  1  0.02049900  0.47283900  0.47090200  1
  C  399  1  0.04366100  0.45068700  0.44945800  1
  C  401  1  0.76848800  0.77268100  0.97338000  1
  C  403  1  0.76755800  0.72868000  0.02501600  1
  C  404  1  0.72375400  0.72325900  0.02194700  1
  C  406  1  0.72450000  0.76764200  0.97011400  1
  C  408  1  0.70200900  0.78284700  0.94422900  1
  C  410  1  0.26776200  0.97201200  0.27133000  1
  C  412  1  0.26685900  0.01936600  0.22186100  1
  C  413  1  0.22269400  0.02174900  0.22328900  1
  C  415  1  0.22339800  0.97423700  0.27299400  1
  C  417  1  0.20052100  0.95623300  0.29728400  1
  C  419  1  0.22621400  0.22254300  0.02224100  1
  C  421  1  0.22727300  0.26659000  0.97053200  1
  C  422  1  0.27096900  0.27219800  0.97391900  1
  C  424  1  0.27012600  0.22828400  0.02590600  1
  C  426  1  0.29255100  0.21398600  0.05220000  1
  C  428  1  0.72351300  0.01732100  0.71994000  1
  C  430  1  0.72431200  0.97118100  0.77016300  1
  C  431  1  0.76838200  0.96730500  0.76800500  1
  C  433  1  0.76766700  0.01363900  0.71735800  1
  C  435  1  0.79039600  0.03106500  0.69266300  1
  C  437  1  0.47610200  0.97358800  0.47018200  1
  C  439  1  0.47860900  0.00893300  0.52656000  1
  C  440  1  0.51989900  0.02255800  0.51970400  1
  C  442  1  0.51751100  0.98757400  0.46304000  1
  C  444  1  0.53759800  0.98155400  0.43329100  1
  C  446  1  0.97663700  0.77018000  0.77464100  1
  C  448  1  0.97870800  0.73309300  0.71907300  1
  C  449  1  0.02042700  0.72055200  0.72555900  1
  C  451  1  0.01850700  0.75737300  0.78140900  1
  C  453  1  0.03911300  0.76489400  0.81064900  1
  C  455  1  0.01907800  0.22282400  0.22202900  1
  C  457  1  0.01731500  0.26207100  0.27644300  1
  C  458  1  0.97479100  0.27240400  0.27080000  1
  C  460  1  0.97642700  0.23326900  0.21605300  1
  C  462  1  0.95516800  0.22328100  0.18769500  1
  C  464  1  0.47484200  0.47405500  0.97058800  1
  C  466  1  0.47635900  0.51470600  0.02428800  1
  C  467  1  0.51910900  0.52423300  0.01895100  1
  C  469  1  0.51773600  0.48377900  0.96491600  1
  C  471  1  0.53930300  0.47289300  0.93696900  1
  C  473  1  0.20080200  0.51158600  0.09870000  1
  C  474  1  0.21235600  0.47039700  0.10834600  1
  C  475  1  0.18743700  0.44687000  0.13183200  1
  C  476  1  0.15080400  0.46422800  0.14723300  1
  C  477  1  0.13758800  0.50416200  0.13522100  1
  C  478  1  0.16242400  0.52765000  0.11159600  1
  C  480  1  0.09275300  0.40792200  0.14670300  1
  C  481  1  0.05567200  0.42504300  0.13191700  1
  C  482  1  0.03155400  0.40220600  0.10734200  1
  C  483  1  0.04466100  0.36226700  0.09546200  1
  C  484  1  0.08329800  0.34651000  0.10816100  1
  C  485  1  0.10707600  0.36905400  0.13320000  1
  C  486  1  0.15041500  0.40711700  0.20257000  1
  C  487  1  0.09284700  0.46402400  0.20295200  1
  C  488  1  0.05403600  0.44864700  0.21578700  1
  C  489  1  0.02972100  0.47229600  0.23964200  1
  C  490  1  0.04401600  0.51148400  0.25221200  1
  C  491  1  0.08437100  0.52515400  0.24201000  1
  C  492  1  0.10862800  0.50151900  0.21805900  1
  C  493  1  0.18920700  0.42224500  0.21561800  1
  C  494  1  0.21313500  0.39854100  0.23971500  1
  C  495  1  0.19844600  0.35960600  0.25267000  1
  C  496  1  0.15829500  0.34597200  0.24167700  1
  C  497  1  0.13450800  0.36950300  0.21730300  1
  C  514  1  0.54363700  0.36016700  0.59744900  1
  C  515  1  0.52490300  0.39208900  0.61815000  1
  C  516  1  0.54873800  0.41573900  0.64238600  1
  C  517  1  0.59192100  0.40748800  0.64752800  1
  C  518  1  0.61092700  0.37672800  0.62558800  1
  C  519  1  0.58718900  0.35337700  0.60110300  1
  C  521  1  0.65168500  0.46261000  0.64796300  1
  C  522  1  0.69418700  0.45226300  0.64166900  1
  C  523  1  0.71847100  0.47511800  0.61721900  1
  C  524  1  0.70118800  0.50888200  0.59766500  1
  C  525  1  0.65807400  0.51766600  0.60253200  1
  C  526  1  0.63367200  0.49461300  0.62676900  1
  C  527  1  0.59353200  0.46448200  0.70340200  1
  C  528  1  0.64920900  0.40507000  0.70317600  1
  C  529  1  0.68128000  0.42346700  0.72413500  1
  C  530  1  0.70605800  0.39896000  0.74699800  1
  C  531  1  0.69840900  0.35561500  0.75059900  1
  C  532  1  0.66451100  0.33764500  0.73189600  1
  C  533  1  0.64030300  0.36202000  0.70844800  1
  C  534  1  0.56212900  0.44538300  0.72463900  1
  C  535  1  0.53700600  0.46930400  0.74767800  1
  C  536  1  0.54337700  0.51289600  0.75108100  1
  C  537  1  0.57677300  0.53155100  0.73215400  1
  C  538  1  0.60149500  0.50770200  0.70869100  1
  C  555  1  0.04416500  0.00957253  0.75454300  1
  C  556  1  0.02557000  0.97710200  0.73436200  1
  C  557  1  0.04922900  0.95379000  0.70976600  1
  C  558  1  0.09205700  0.96294300  0.70373300  1
  C  559  1  0.11110200  0.99394500  0.72539100  1
  C  560  1  0.08753000  0.01700650  0.75019800  1
  C  562  1  0.15106800  0.90718800  0.70197000  1
  C  563  1  0.19350000  0.91723500  0.70894700  1
  C  564  1  0.21753300  0.89315200  0.73271200  1
  C  565  1  0.19985000  0.85868100  0.75102000  1
  C  566  1  0.15684800  0.85003800  0.74555500  1
  C  567  1  0.13280500  0.87407700  0.72174800  1
  C  568  1  0.09327700  0.90759500  0.64644500  1
  C  569  1  0.14913200  0.96643100  0.64795000  1
  C  570  1  0.18173600  0.94853400  0.62727600  1
  C  571  1  0.20636400  0.97339800  0.60459100  1
  C  572  1  0.19794500  0.01656750  0.60079600  1
  C  573  1  0.16350900  0.03400950  0.61913900  1
  C  574  1  0.13948600  0.00928453  0.64246900  1
  C  575  1  0.06064000  0.92689000  0.62676100  1
  C  576  1  0.03657900  0.90390100  0.60224200  1
  C  577  1  0.04570300  0.86137000  0.59525200  1
  C  578  1  0.08011400  0.84281800  0.61295700  1
  C  579  1  0.10348100  0.86551900  0.63817500  1
  C  596  1  0.69788200  0.85520600  0.25023500  1
  C  597  1  0.70743400  0.89793700  0.24504000  1
  C  598  1  0.68281500  0.92266900  0.22224100  1
  C  599  1  0.64910600  0.90496600  0.20277000  1
  C  600  1  0.63833800  0.86267700  0.20969500  1
  C  601  1  0.66237400  0.83812700  0.23315700  1
  C  603  1  0.59311500  0.96344500  0.20439100  1
  C  604  1  0.55958400  0.94442300  0.22315000  1
  C  605  1  0.53563600  0.96729300  0.24781600  1
  C  606  1  0.54575800  0.00931953  0.25592400  1
  C  607  1  0.58110400  0.02743150  0.23924100  1
  C  608  1  0.60440000  0.00488453  0.21387100  1
  C  609  1  0.65073500  0.96388700  0.14859600  1
  C  610  1  0.59166700  0.90827900  0.14711100  1
  C  611  1  0.54951900  0.91914900  0.13981700  1
  C  612  1  0.52557700  0.89602900  0.11529000  1
  C  613  1  0.54322300  0.86194300  0.09644700  1
  C  614  1  0.58610500  0.85284000  0.10195800  1
  C  615  1  0.60999300  0.87582600  0.12659900  1
  C  616  1  0.69233500  0.95223500  0.14000600  1
  C  617  1  0.71638700  0.97609900  0.11610500  1
  C  618  1  0.69953000  0.01199850  0.09925500  1
  C  619  1  0.65715000  0.02217050  0.10620300  1
  C  620  1  0.63304800  0.99828200  0.13008800  1
  C  637  1  0.95029500  0.76371000  0.50024100  1
  C  638  1  0.91734100  0.78244000  0.48078000  1
  C  639  1  0.89233000  0.75847100  0.45761600  1
  C  640  1  0.89959400  0.71501800  0.45310600  1
  C  641  1  0.93061500  0.69591800  0.47473700  1
  C  642  1  0.95582600  0.71991300  0.49763500  1
  C  644  1  0.84393300  0.65567500  0.45333800  1
  C  645  1  0.85319600  0.61282500  0.45932000  1
  C  646  1  0.82922900  0.58879500  0.48319900  1
  C  647  1  0.79516900  0.60691600  0.50156600  1
  C  648  1  0.78705200  0.65006800  0.49719000  1
  C  649  1  0.81167400  0.67426700  0.47396900  1
  C  650  1  0.84145100  0.71238900  0.39750100  1
  C  651  1  0.90156800  0.65759300  0.39783500  1
  C  652  1  0.88310800  0.62596800  0.37648100  1
  C  653  1  0.90725300  0.60249800  0.35236400  1
  C  654  1  0.95064000  0.61016400  0.34826200  1
  C  655  1  0.96867100  0.64313000  0.36825100  1
  C  656  1  0.94450400  0.66666667  0.39229500  1
  C  657  1  0.85941700  0.74408000  0.37593900  1
  C  658  1  0.83498900  0.76669000  0.35142000  1
  C  659  1  0.79189700  0.75774700  0.34667300  1
  C  660  1  0.77463000  0.72431000  0.36662100  1
  C  661  1  0.79897000  0.70184700  0.39129500  1
  C  678  1  0.79374600  0.10998400  0.00331903  1
  C  679  1  0.82953000  0.09198050  0.98733900  1
  C  680  1  0.85396100  0.11511100  0.96315800  1
  C  681  1  0.84323700  0.15686500  0.95419200  1
  C  682  1  0.80929900  0.17572100  0.97255600  1
  C  683  1  0.78441700  0.15240600  0.99623600  1
  C  685  1  0.89947200  0.21521500  0.95323500  1
  C  686  1  0.88984800  0.25788100  0.95959500  1
  C  687  1  0.91457000  0.28219500  0.98272500  1
  C  688  1  0.94956200  0.26453400  0.00022303  1
  C  689  1  0.95760000  0.22134200  0.99579800  1
  C  690  1  0.93257000  0.19694900  0.97306800  1
  C  691  1  0.90156500  0.15696200  0.89885700  1
  C  692  1  0.84187700  0.21190000  0.89719000  1
  C  693  1  0.85941000  0.24527100  0.87728400  1
  C  694  1  0.83519300  0.26769300  0.85249300  1
  C  695  1  0.79291900  0.25681900  0.84574000  1
  C  696  1  0.77645700  0.22147600  0.86372600  1
  C  697  1  0.80056500  0.19919900  0.88868500  1
  C  698  1  0.88455500  0.12200900  0.88062600  1
  C  699  1  0.90938700  0.09781850  0.85753600  1
  C  700  1  0.95169900  0.10848000  0.85109000  1
  C  701  1  0.96772500  0.14528000  0.86698200  1
  C  702  1  0.94301200  0.16926200  0.89030400  1
  C  719  1  0.44823000  0.61082900  0.84619600  1
  C  720  1  0.41014900  0.59479300  0.85983700  1
  C  721  1  0.38641100  0.61772900  0.88464700  1
  C  722  1  0.40021800  0.65731700  0.89696300  1
  C  723  1  0.43672000  0.67459300  0.88129000  1
  C  724  1  0.46080300  0.65138100  0.85695200  1
  C  726  1  0.34258000  0.71397500  0.89691300  1
  C  727  1  0.35610800  0.75369200  0.88459700  1
  C  728  1  0.33173100  0.77691300  0.86044000  1
  C  729  1  0.29341400  0.76082100  0.84750000  1
  C  730  1  0.28138500  0.71993200  0.85757600  1
  C  731  1  0.30603700  0.69656400  0.88138100  1
  C  732  1  0.34278600  0.65735400  0.95289300  1
  C  733  1  0.40051600  0.71418800  0.95257300  1
  C  734  1  0.38473100  0.75171700  0.96760100  1
  C  735  1  0.40923400  0.77574700  0.99108600  1
  C  736  1  0.44980700  0.76241300  0.00102303  1
  C  737  1  0.46408700  0.72315000  0.98858500  1
  C  738  1  0.43962800  0.69919600  0.96505700  1
  C  739  1  0.35952100  0.62081500  0.96890000  1
  C  740  1  0.33589500  0.59736600  0.99343800  1
  C  741  1  0.29502100  0.61001000  0.00321503  1
  C  742  1  0.27931600  0.64788400  0.98896100  1
  C  743  1  0.30314600  0.67159100  0.96478200  1
  C  760  1  0.29326000  0.26141300  0.34788600  1
  C  761  1  0.32782600  0.28005500  0.36523700  1
  C  762  1  0.35248200  0.25684000  0.38918800  1
  C  763  1  0.34320900  0.21432200  0.39658100  1
  C  764  1  0.31054600  0.19500900  0.37693400  1
  C  765  1  0.28550300  0.21834600  0.35340100  1
  C  767  1  0.39946900  0.15582800  0.39767500  1
  C  768  1  0.39136600  0.11262300  0.39257300  1
  C  769  1  0.41650400  0.08843950  0.36966900  1
  C  770  1  0.45039300  0.10673800  0.35108700  1
  C  771  1  0.45684500  0.15035000  0.35430300  1
  C  772  1  0.43148000  0.17457700  0.37688900  1
  C  773  1  0.40135000  0.21393000  0.45210300  1
  C  774  1  0.34135400  0.15916200  0.45339100  1
  C  775  1  0.35909400  0.12681300  0.47435600  1
  C  776  1  0.33474800  0.10456600  0.49916900  1
  C  777  1  0.29204700  0.11459100  0.50485500  1
  C  778  1  0.27519000  0.14883000  0.48564000  1
  C  779  1  0.29942900  0.17090700  0.46064500  1
  C  780  1  0.38384800  0.24780600  0.47145400  1
  C  781  1  0.40856000  0.27190100  0.49471000  1
  C  782  1  0.45127300  0.26216800  0.50022700  1
  C  783  1  0.46788800  0.22634900  0.48319700  1
  C  784  1  0.44332000  0.20253300  0.45964800  1
  C  801  1  0.97505100  0.28933400  0.02284600  1
  C  803  1  0.97609200  0.33734900  0.07187500  1
  C  804  1  0.02030800  0.33868300  0.07100200  1
  C  806  1  0.01946900  0.29093500  0.02152300  1
  C  808  1  0.04240300  0.27231200  0.99761200  1
  C  810  1  0.77026200  0.58233500  0.52462400  1
  C  812  1  0.76950700  0.53839900  0.57623400  1
  C  813  1  0.72566000  0.53292600  0.57331600  1
  C  815  1  0.72632700  0.57724000  0.52134900  1
  C  817  1  0.70379600  0.59293500  0.49570200  1
  C  819  1  0.26832500  0.78491900  0.82405000  1
  C  821  1  0.26712300  0.82598700  0.77065900  1
  C  822  1  0.22390400  0.83405900  0.77507500  1
  C  824  1  0.22491700  0.79279700  0.82871200  1
  C  826  1  0.20297300  0.78061700  0.85605300  1
  C  828  1  0.47615500  0.08210650  0.32850100  1
  C  830  1  0.47737400  0.03147750  0.28137400  1
  C  831  1  0.52156600  0.03279650  0.28047200  1
  C  833  1  0.52064100  0.08293050  0.32813500  1
  C  835  1  0.54374000  0.10389200  0.35047600  1
  C  837  1  0.22281100  0.04169650  0.57812800  1
  C  839  1  0.22356600  0.08618650  0.52685600  1
  C  840  1  0.26750500  0.09106250  0.52948900  1
  C  842  1  0.26681700  0.04640050  0.58121000  1
  C  844  1  0.28944600  0.03012650  0.60653300  1
  C  846  1  0.72269800  0.83023900  0.27308700  1
  C  848  1  0.72369200  0.78760500  0.32549000  1
  C  849  1  0.76738200  0.78135900  0.32208900  1
  C  851  1  0.76646400  0.82418500  0.26926600  1
  C  853  1  0.78879500  0.83883500  0.24305100  1
  C  855  1  0.51781800  0.53730600  0.77394200  1
  C  857  1  0.51679900  0.58690700  0.82181300  1
  C  858  1  0.47254800  0.58692500  0.82191100  1
  C  860  1  0.47334700  0.53746900  0.77364100  1
  C  862  1  0.45029900  0.51727300  0.75076100  1
  C  864  1  0.97607000  0.78819100  0.52295500  1
  C  866  1  0.97739900  0.84020100  0.56900100  1
  C  867  1  0.02150200  0.83778200  0.57078300  1
  C  869  1  0.02049900  0.78621300  0.52424000  1
  C  871  1  0.04366100  0.76406100  0.50279600  1
  C  873  1  0.76848800  0.08605450  0.02671800  1
  C  875  1  0.76755800  0.04205350  0.07835400  1
  C  876  1  0.72375400  0.03663250  0.07528500  1
  C  878  1  0.72450000  0.08101550  0.02345200  1
  C  880  1  0.70200900  0.09622050  0.99756700  1
  C  882  1  0.26776200  0.28538600  0.32466800  1
  C  884  1  0.26685900  0.33274000  0.27519900  1
  C  885  1  0.22269400  0.33512300  0.27662700  1
  C  887  1  0.22339800  0.28761100  0.32633200  1
  C  889  1  0.20052100  0.26960700  0.35062200  1
  C  891  1  0.22621400  0.53591700  0.07557900  1
  C  893  1  0.22727300  0.57996400  0.02387000  1
  C  894  1  0.27096900  0.58557200  0.02725700  1
  C  896  1  0.27012600  0.54165800  0.07924400  1
  C  898  1  0.29255100  0.52736000  0.10553800  1
  C  900  1  0.72351300  0.33069500  0.77327800  1
  C  902  1  0.72431200  0.28455500  0.82350100  1
  C  903  1  0.76838200  0.28067900  0.82134300  1
  C  905  1  0.76766700  0.32701300  0.77069600  1
  C  907  1  0.79039600  0.34443900  0.74600100  1
  C  909  1  0.47610200  0.28696200  0.52352000  1
  C  911  1  0.47860900  0.32230700  0.57989800  1
  C  912  1  0.51989900  0.33593200  0.57304200  1
  C  914  1  0.51751100  0.30094800  0.51637800  1
  C  916  1  0.53759800  0.29492800  0.48662900  1
  C  918  1  0.97663700  0.08355350  0.82797900  1
  C  920  1  0.97870800  0.04646650  0.77241100  1
  C  921  1  0.02042700  0.03392550  0.77889700  1
  C  923  1  0.01850700  0.07074650  0.83474700  1
  C  925  1  0.03911300  0.07826750  0.86398700  1
  C  927  1  0.01907800  0.53619800  0.27536700  1
  C  929  1  0.01731500  0.57544500  0.32978100  1
  C  930  1  0.97479100  0.58577800  0.32413800  1
  C  932  1  0.97642700  0.54664300  0.26939100  1
  C  934  1  0.95516800  0.53665500  0.24103300  1
  C  936  1  0.47484200  0.78742900  0.02392600  1
  C  938  1  0.47635900  0.82808000  0.07762600  1
  C  939  1  0.51910900  0.83760700  0.07228900  1
  C  941  1  0.51773600  0.79715300  0.01825400  1
  C  943  1  0.53930300  0.78626700  0.99030700  1
  C  945  1  0.20080200  0.82495900  0.15203800  1
  C  946  1  0.21235600  0.78377000  0.16168400  1
  C  947  1  0.18743700  0.76024300  0.18517000  1
  C  948  1  0.15080400  0.77760100  0.20057100  1
  C  949  1  0.13758800  0.81753500  0.18855900  1
  C  950  1  0.16242400  0.84102300  0.16493400  1
  C  952  1  0.09275300  0.72129500  0.20004100  1
  C  953  1  0.05567200  0.73841600  0.18525500  1
  C  954  1  0.03155400  0.71557900  0.16068000  1
  C  955  1  0.04466100  0.67564000  0.14880000  1
  C  956  1  0.08329800  0.65988300  0.16149900  1
  C  957  1  0.10707600  0.68242700  0.18653800  1
  C  958  1  0.15041500  0.72049000  0.25590800  1
  C  959  1  0.09284700  0.77739700  0.25629000  1
  C  960  1  0.05403600  0.76202000  0.26912500  1
  C  961  1  0.02972100  0.78566900  0.29298000  1
  C  962  1  0.04401600  0.82485700  0.30555000  1
  C  963  1  0.08437100  0.83852700  0.29534800  1
  C  964  1  0.10862800  0.81489200  0.27139700  1
  C  965  1  0.18920700  0.73561800  0.26895600  1
  C  966  1  0.21313500  0.71191400  0.29305300  1
  C  967  1  0.19844600  0.67297900  0.30600800  1
  C  968  1  0.15829500  0.65934500  0.29501500  1
  C  969  1  0.13450800  0.68287600  0.27064100  1
  C  986  1  0.54363700  0.67354000  0.65078700  1
  C  987  1  0.52490300  0.70546200  0.67148800  1
  C  988  1  0.54873800  0.72911200  0.69572400  1
  C  989  1  0.59192100  0.72086100  0.70086600  1
  C  990  1  0.61092700  0.69010100  0.67892600  1
  C  991  1  0.58718900  0.66675000  0.65444100  1
  C  993  1  0.65168500  0.77598300  0.70130100  1
  C  994  1  0.69418700  0.76563600  0.69500700  1
  C  995  1  0.71847100  0.78849100  0.67055700  1
  C  996  1  0.70118800  0.82225500  0.65100300  1
  C  997  1  0.65807400  0.83103900  0.65587000  1
  C  998  1  0.63367200  0.80798600  0.68010700  1
  C  999  1  0.59353200  0.77785500  0.75674000  1
  C  1000  1  0.64920900  0.71844300  0.75651400  1
  C  1001  1  0.68128000  0.73684000  0.77747300  1
  C  1002  1  0.70605800  0.71233300  0.80033600  1
  C  1003  1  0.69840900  0.66898800  0.80393700  1
  C  1004  1  0.66451100  0.65101800  0.78523400  1
  C  1005  1  0.64030300  0.67539300  0.76178600  1
  C  1006  1  0.56212900  0.75875600  0.77797700  1
  C  1007  1  0.53700600  0.78267700  0.80101600  1
  C  1008  1  0.54337700  0.82626900  0.80441900  1
  C  1009  1  0.57677300  0.84492400  0.78549200  1
  C  1010  1  0.60149500  0.82107500  0.76202900  1
  C  1027  1  0.04416500  0.32294600  0.80788100  1
  C  1028  1  0.02557000  0.29047500  0.78770000  1
  C  1029  1  0.04922900  0.26716300  0.76310400  1
  C  1030  1  0.09205700  0.27631600  0.75707100  1
  C  1031  1  0.11110200  0.30731800  0.77872900  1
  C  1032  1  0.08753000  0.33038000  0.80353600  1
  C  1034  1  0.15106800  0.22056100  0.75530800  1
  C  1035  1  0.19350000  0.23060800  0.76228500  1
  C  1036  1  0.21753300  0.20652500  0.78605000  1
  C  1037  1  0.19985000  0.17205400  0.80435800  1
  C  1038  1  0.15684800  0.16341100  0.79889300  1
  C  1039  1  0.13280500  0.18745000  0.77508600  1
  C  1040  1  0.09327700  0.22096800  0.69978300  1
  C  1041  1  0.14913200  0.27980400  0.70128800  1
  C  1042  1  0.18173600  0.26190700  0.68061400  1
  C  1043  1  0.20636400  0.28677100  0.65792900  1
  C  1044  1  0.19794500  0.32994100  0.65413400  1
  C  1045  1  0.16350900  0.34738300  0.67247700  1
  C  1046  1  0.13948600  0.32265800  0.69580700  1
  C  1047  1  0.06064000  0.24026300  0.68009900  1
  C  1048  1  0.03657900  0.21727400  0.65558000  1
  C  1049  1  0.04570300  0.17474300  0.64859000  1
  C  1050  1  0.08011400  0.15619100  0.66629500  1
  C  1051  1  0.10348100  0.17889200  0.69151300  1
  C  1068  1  0.69788200  0.16857900  0.30357300  1
  C  1069  1  0.70743400  0.21131000  0.29837800  1
  C  1070  1  0.68281500  0.23604200  0.27557900  1
  C  1071  1  0.64910600  0.21833900  0.25610800  1
  C  1072  1  0.63833800  0.17605000  0.26303300  1
  C  1073  1  0.66237400  0.15150000  0.28649500  1
  C  1075  1  0.59311500  0.27681800  0.25772900  1
  C  1076  1  0.55958400  0.25779600  0.27648800  1
  C  1077  1  0.53563600  0.28066600  0.30115400  1
  C  1078  1  0.54575800  0.32269300  0.30926200  1
  C  1079  1  0.58110400  0.34080500  0.29257900  1
  C  1080  1  0.60440000  0.31825800  0.26720900  1
  C  1081  1  0.65073500  0.27726000  0.20193400  1
  C  1082  1  0.59166700  0.22165200  0.20044900  1
  C  1083  1  0.54951900  0.23252200  0.19315500  1
  C  1084  1  0.52557700  0.20940200  0.16862800  1
  C  1085  1  0.54322300  0.17531600  0.14978500  1
  C  1086  1  0.58610500  0.16621300  0.15529600  1
  C  1087  1  0.60999300  0.18919900  0.17993700  1
  C  1088  1  0.69233500  0.26560800  0.19334400  1
  C  1089  1  0.71638700  0.28947200  0.16944300  1
  C  1090  1  0.69953000  0.32537200  0.15259300  1
  C  1091  1  0.65715000  0.33554400  0.15954100  1
  C  1092  1  0.63304800  0.31165500  0.18342600  1
  C  1109  1  0.95029500  0.07708310  0.55357900  1
  C  1110  1  0.91734100  0.09581310  0.53411800  1
  C  1111  1  0.89233000  0.07184410  0.51095400  1
  C  1112  1  0.89959400  0.02839110  0.50644400  1
  C  1113  1  0.93061500  0.00929106  0.52807500  1
  C  1114  1  0.95582600  0.03328610  0.55097300  1
  C  1116  1  0.84393300  0.96904800  0.50667600  1
  C  1117  1  0.85319600  0.92619800  0.51265800  1
  C  1118  1  0.82922900  0.90216800  0.53653700  1
  C  1119  1  0.79516900  0.92028900  0.55490400  1
  C  1120  1  0.78705200  0.96344100  0.55052800  1
  C  1121  1  0.81167400  0.98764000  0.52730700  1
  C  1122  1  0.84145100  0.02576210  0.45083900  1
  C  1123  1  0.90156800  0.97096600  0.45117300  1
  C  1124  1  0.88310800  0.93934100  0.42981900  1
  C  1125  1  0.90725300  0.91587100  0.40570200  1
  C  1126  1  0.95064000  0.92353700  0.40160000  1
  C  1127  1  0.96867100  0.95650300  0.42158900  1
  C  1128  1  0.94450400  0.98008200  0.44563300  1
  C  1129  1  0.85941700  0.05745310  0.42927700  1
  C  1130  1  0.83498900  0.08006310  0.40475800  1
  C  1131  1  0.79189700  0.07112010  0.40001100  1
  C  1132  1  0.77463000  0.03768310  0.41995900  1
  C  1133  1  0.79897000  0.01522010  0.44463300  1
  C  1150  1  0.79374600  0.42335700  0.05665710  1
  C  1151  1  0.82953000  0.40535400  0.04067710  1
  C  1152  1  0.85396100  0.42848400  0.01649610  1
  C  1153  1  0.84323700  0.47023800  0.00753005  1
  C  1154  1  0.80929900  0.48909400  0.02589410  1
  C  1155  1  0.78441700  0.46577900  0.04957410  1
  C  1157  1  0.89947200  0.52858800  0.00657305  1
  C  1158  1  0.88984800  0.57125400  0.01293310  1
  C  1159  1  0.91457000  0.59556800  0.03606310  1
  C  1160  1  0.94956200  0.57790700  0.05356110  1
  C  1161  1  0.95760000  0.53471500  0.04913610  1
  C  1162  1  0.93257000  0.51032200  0.02640610  1
  C  1163  1  0.90156500  0.47033500  0.95219500  1
  C  1164  1  0.84187700  0.52527300  0.95052800  1
  C  1165  1  0.85941000  0.55864400  0.93062200  1
  C  1166  1  0.83519300  0.58106600  0.90583100  1
  C  1167  1  0.79291900  0.57019200  0.89907800  1
  C  1168  1  0.77645700  0.53484900  0.91706400  1
  C  1169  1  0.80056500  0.51257200  0.94202300  1
  C  1170  1  0.88455500  0.43538200  0.93396400  1
  C  1171  1  0.90938700  0.41119200  0.91087400  1
  C  1172  1  0.95169900  0.42185300  0.90442800  1
  C  1173  1  0.96772500  0.45865300  0.92032000  1
  C  1174  1  0.94301200  0.48263500  0.94364200  1
  C  1191  1  0.44823000  0.92420200  0.89953400  1
  C  1192  1  0.41014900  0.90816600  0.91317500  1
  C  1193  1  0.38641100  0.93110200  0.93798500  1
  C  1194  1  0.40021800  0.97069000  0.95030100  1
  C  1195  1  0.43672000  0.98796600  0.93462800  1
  C  1196  1  0.46080300  0.96475400  0.91029000  1
  C  1198  1  0.34258000  0.02734810  0.95025100  1
  C  1199  1  0.35610800  0.06706510  0.93793500  1
  C  1200  1  0.33173100  0.09028610  0.91377800  1
  C  1201  1  0.29341400  0.07419410  0.90083800  1
  C  1202  1  0.28138500  0.03330510  0.91091400  1
  C  1203  1  0.30603700  0.00993706  0.93471900  1
  C  1204  1  0.34278600  0.97072700  0.00623105  1
  C  1205  1  0.40051600  0.02756110  0.00591105  1
  C  1206  1  0.38473100  0.06509010  0.02093910  1
  C  1207  1  0.40923400  0.08912010  0.04442410  1
  C  1208  1  0.44980700  0.07578610  0.05436110  1
  C  1209  1  0.46408700  0.03652310  0.04192310  1
  C  1210  1  0.43962800  0.01256910  0.01839510  1
  C  1211  1  0.35952100  0.93418800  0.02223810  1
  C  1212  1  0.33589500  0.91073900  0.04677610  1
  C  1213  1  0.29502100  0.92338300  0.05655310  1
  C  1214  1  0.27931600  0.96125700  0.04229910  1
  C  1215  1  0.30314600  0.98496400  0.01812010  1
  C  1232  1  0.29326000  0.57478600  0.40122400  1
  C  1233  1  0.32782600  0.59342800  0.41857500  1
  C  1234  1  0.35248200  0.57021300  0.44252600  1
  C  1235  1  0.34320900  0.52769500  0.44991900  1
  C  1236  1  0.31054600  0.50838200  0.43027200  1
  C  1237  1  0.28550300  0.53171900  0.40673900  1
  C  1239  1  0.39946900  0.46920100  0.45101300  1
  C  1240  1  0.39136600  0.42599600  0.44591100  1
  C  1241  1  0.41650400  0.40181300  0.42300700  1
  C  1242  1  0.45039300  0.42011100  0.40442500  1
  C  1243  1  0.45684500  0.46372300  0.40764100  1
  C  1244  1  0.43148000  0.48795000  0.43022700  1
  C  1245  1  0.40135000  0.52730300  0.50544100  1
  C  1246  1  0.34135400  0.47253500  0.50672900  1
  C  1247  1  0.35909400  0.44018600  0.52769400  1
  C  1248  1  0.33474800  0.41793900  0.55250700  1
  C  1249  1  0.29204700  0.42796400  0.55819300  1
  C  1250  1  0.27519000  0.46220300  0.53897800  1
  C  1251  1  0.29942900  0.48428000  0.51398300  1
  C  1252  1  0.38384800  0.56117900  0.52479200  1
  C  1253  1  0.40856000  0.58527400  0.54804800  1
  C  1254  1  0.45127300  0.57554100  0.55356500  1
  C  1255  1  0.46788800  0.53972200  0.53653500  1
  C  1256  1  0.44332000  0.51590600  0.51298600  1
  C  1273  1  0.97505100  0.60270700  0.07618410  1
  C  1275  1  0.97609200  0.65072200  0.12521300  1
  C  1276  1  0.02030800  0.65205600  0.12434000  1
  C  1278  1  0.01946900  0.60430800  0.07486110  1
  C  1280  1  0.04240300  0.58568500  0.05095010  1
  C  1282  1  0.77026200  0.89570800  0.57796200  1
  C  1284  1  0.76950700  0.85177200  0.62957200  1
  C  1285  1  0.72566000  0.84629900  0.62665400  1
  C  1287  1  0.72632700  0.89061300  0.57468700  1
  C  1289  1  0.70379600  0.90630800  0.54904000  1
  C  1291  1  0.26832500  0.09829210  0.87738800  1
  C  1293  1  0.26712300  0.13936000  0.82399700  1
  C  1294  1  0.22390400  0.14743200  0.82841300  1
  C  1296  1  0.22491700  0.10617000  0.88205000  1
  C  1298  1  0.20297300  0.09399010  0.90939100  1
  C  1300  1  0.47615500  0.39548000  0.38183900  1
  C  1302  1  0.47737400  0.34485100  0.33471200  1
  C  1303  1  0.52156600  0.34617000  0.33381000  1
  C  1305  1  0.52064100  0.39630400  0.38147300  1
  C  1307  1  0.54374000  0.41726500  0.40381400  1
  C  1309  1  0.22281100  0.35507000  0.63146600  1
  C  1311  1  0.22356600  0.39956000  0.58019400  1
  C  1312  1  0.26750500  0.40443600  0.58282700  1
  C  1314  1  0.26681700  0.35977400  0.63454800  1
  C  1316  1  0.28944600  0.34350000  0.65987100  1
  C  1318  1  0.72269800  0.14361200  0.32642500  1
  C  1320  1  0.72369200  0.10097800  0.37882800  1
  C  1321  1  0.76738200  0.09473210  0.37542700  1
  C  1323  1  0.76646400  0.13755800  0.32260400  1
  C  1325  1  0.78879500  0.15220800  0.29638900  1
  C  1327  1  0.51781800  0.85067900  0.82728000  1
  C  1329  1  0.51679900  0.90028000  0.87515100  1
  C  1330  1  0.47254800  0.90029800  0.87524900  1
  C  1332  1  0.47334700  0.85084200  0.82697900  1
  C  1334  1  0.45029900  0.83064600  0.80409900  1
  C  1336  1  0.97607000  0.10156400  0.57629300  1
  C  1338  1  0.97739900  0.15357400  0.62233900  1
  C  1339  1  0.02150200  0.15115500  0.62412100  1
  C  1341  1  0.02049900  0.09958610  0.57757800  1
  C  1343  1  0.04366100  0.07743410  0.55613400  1
  C  1345  1  0.76848800  0.39942800  0.08005610  1
  C  1347  1  0.76755800  0.35542700  0.13169200  1
  C  1348  1  0.72375400  0.35000600  0.12862300  1
  C  1350  1  0.72450000  0.39438900  0.07679010  1
  C  1352  1  0.70200900  0.40959400  0.05090510  1
  C  1354  1  0.26776200  0.59875900  0.37800600  1
  C  1356  1  0.26685900  0.64611300  0.32853700  1
  C  1357  1  0.22269400  0.64849600  0.32996500  1
  C  1359  1  0.22339800  0.60098400  0.37967000  1
  C  1361  1  0.20052100  0.58298000  0.40396000  1
  C  1363  1  0.22621400  0.84929000  0.12891700  1
  C  1365  1  0.22727300  0.89333700  0.07720810  1
  C  1366  1  0.27096900  0.89894500  0.08059510  1
  C  1368  1  0.27012600  0.85503100  0.13258200  1
  C  1370  1  0.29255100  0.84073300  0.15887600  1
  C  1372  1  0.72351300  0.64406800  0.82661600  1
  C  1374  1  0.72431200  0.59792800  0.87683900  1
  C  1375  1  0.76838200  0.59405200  0.87468100  1
  C  1377  1  0.76766700  0.64038600  0.82403400  1
  C  1379  1  0.79039600  0.65781200  0.79933900  1
  C  1381  1  0.47610200  0.60033500  0.57685800  1
  C  1383  1  0.47860900  0.63568000  0.63323600  1
  C  1384  1  0.51989900  0.64930500  0.62638000  1
  C  1386  1  0.51751100  0.61432100  0.56971600  1
  C  1388  1  0.53759800  0.60830100  0.53996700  1
  C  1390  1  0.97663700  0.39692700  0.88131700  1
  C  1392  1  0.97870800  0.35984000  0.82574900  1
  C  1393  1  0.02042700  0.34729900  0.83223500  1
  C  1395  1  0.01850700  0.38412000  0.88808500  1
  C  1397  1  0.03911300  0.39164100  0.91732500  1
  C  1399  1  0.01907800  0.84957100  0.32870500  1
  C  1401  1  0.01731500  0.88881800  0.38311900  1
  C  1402  1  0.97479100  0.89915100  0.37747600  1
  C  1404  1  0.97642700  0.86001600  0.32272900  1
  C  1406  1  0.95516800  0.85002800  0.29437100  1
  C  1408  1  0.47484200  0.10080200  0.07726410  1
  C  1410  1  0.47635900  0.14145300  0.13096400  1
  C  1411  1  0.51910900  0.15098000  0.12562700  1
  C  1413  1  0.51773600  0.11052600  0.07159210  1
  C  1415  1  0.53930300  0.09964010  0.04364510  1
  N  330  1  0.95554400  0.99947400  0.99479600  1
  N  333  1  0.03974600  0.00199000  0.99220600  1
  N  337  1  0.06258900  0.94266400  0.92304000  1
  N  339  1  0.78978200  0.24920200  0.49874200  1
  N  342  1  0.70649100  0.23946500  0.49230100  1
  N  346  1  0.68401900  0.29336700  0.41963600  1
  N  348  1  0.28729600  0.48868400  0.74170400  1
  N  351  1  0.20510600  0.50357500  0.75087600  1
  N  355  1  0.18368100  0.45658500  0.82692200  1
  N  357  1  0.45674500  0.74278200  0.25158700  1
  N  360  1  0.54103300  0.74508900  0.25086700  1
  N  364  1  0.56410300  0.80881900  0.31701200  1
  N  366  1  0.20326300  0.74854200  0.49758700  1
  N  369  1  0.28671900  0.75735100  0.50357200  1
  N  373  1  0.30931100  0.70243500  0.57563400  1
  N  375  1  0.70338500  0.49819800  0.24786200  1
  N  378  1  0.78637200  0.48677200  0.24043400  1
  N  382  1  0.80839600  0.53834100  0.16648900  1
  N  384  1  0.53735700  0.24890300  0.74483800  1
  N  387  1  0.45307500  0.24874600  0.74416600  1
  N  391  1  0.42999800  0.18623700  0.67708800  1
  N  393  1  0.95675300  0.50201100  0.49221900  1
  N  396  1  0.04089000  0.49751800  0.49467200  1
  N  400  1  0.06409500  0.43132700  0.43037900  1
  N  402  1  0.78788000  0.75280400  0.00086700  1
  N  405  1  0.70455700  0.74318700  0.99432100  1
  N  409  1  0.68224500  0.79617200  0.92128800  1
  N  411  1  0.28731200  0.99487500  0.24565000  1
  N  414  1  0.20324100  0.99894000  0.24909400  1
  N  418  1  0.18039800  0.94047700  0.31884100  1
  N  420  1  0.20700000  0.24220500  0.99451300  1
  N  423  1  0.29016400  0.25271600  0.00173300  1
  N  427  1  0.31229600  0.20150700  0.07549700  1
  N  429  1  0.70393700  0.99577500  0.74638200  1
  N  432  1  0.78765400  0.98894000  0.74134400  1
  N  436  1  0.81035500  0.04639600  0.67077600  1
  N  438  1  0.45878200  0.98520500  0.50184400  1
  N  441  1  0.53717500  0.01118100  0.48800000  1
  N  445  1  0.55532200  0.97632400  0.40701400  1
  N  447  1  0.95890000  0.75716900  0.74355000  1
  N  450  1  0.03814700  0.73338700  0.75668700  1
  N  454  1  0.05729400  0.77146200  0.83648100  1
  N  456  1  0.03741700  0.23797100  0.25213200  1
  N  459  1  0.95663100  0.25739600  0.24056200  1
  N  463  1  0.93646300  0.21453100  0.16261500  1
  N  465  1  0.45630600  0.49025400  0.00021100  1
  N  468  1  0.53753800  0.50820000  0.98922200  1
  N  472  1  0.55829900  0.46334400  0.91226100  1
  N  802  1  0.95554400  0.31284800  0.04813400  1
  N  805  1  0.03974600  0.31536400  0.04554400  1
  N  809  1  0.06258900  0.25603800  0.97637800  1
  N  811  1  0.78978200  0.56257600  0.55208000  1
  N  814  1  0.70649100  0.55283900  0.54563900  1
  N  818  1  0.68401900  0.60674100  0.47297400  1
  N  820  1  0.28729600  0.80205800  0.79504200  1
  N  823  1  0.20510600  0.81694900  0.80421400  1
  N  827  1  0.18368100  0.76995900  0.88026000  1
  N  829  1  0.45674500  0.05615550  0.30492500  1
  N  832  1  0.54103300  0.05846250  0.30420500  1
  N  836  1  0.56410300  0.12219300  0.37035000  1
  N  838  1  0.20326300  0.06191550  0.55092500  1
  N  841  1  0.28671900  0.07072450  0.55691000  1
  N  845  1  0.30931100  0.01580850  0.62897200  1
  N  847  1  0.70338500  0.81157200  0.30120000  1
  N  850  1  0.78637200  0.80014600  0.29377200  1
  N  854  1  0.80839600  0.85171500  0.21982700  1
  N  856  1  0.53735700  0.56227700  0.79817600  1
  N  859  1  0.45307500  0.56212000  0.79750400  1
  N  863  1  0.42999800  0.49961100  0.73042600  1
  N  865  1  0.95675300  0.81538500  0.54555700  1
  N  868  1  0.04089000  0.81089200  0.54801000  1
  N  872  1  0.06409500  0.74470100  0.48371700  1
  N  874  1  0.78788000  0.06617750  0.05420500  1
  N  877  1  0.70455700  0.05656050  0.04765900  1
  N  881  1  0.68224500  0.10954600  0.97462600  1
  N  883  1  0.28731200  0.30824900  0.29898800  1
  N  886  1  0.20324100  0.31231400  0.30243200  1
  N  890  1  0.18039800  0.25385100  0.37217900  1
  N  892  1  0.20700000  0.55557900  0.04785100  1
  N  895  1  0.29016400  0.56609000  0.05507100  1
  N  899  1  0.31229600  0.51488100  0.12883500  1
  N  901  1  0.70393700  0.30914900  0.79972000  1
  N  904  1  0.78765400  0.30231400  0.79468200  1
  N  908  1  0.81035500  0.35977000  0.72411400  1
  N  910  1  0.45878200  0.29857900  0.55518200  1
  N  913  1  0.53717500  0.32455500  0.54133800  1
  N  917  1  0.55532200  0.28969800  0.46035200  1
  N  919  1  0.95890000  0.07054250  0.79688800  1
  N  922  1  0.03814700  0.04676050  0.81002500  1
  N  926  1  0.05729400  0.08483550  0.88981900  1
  N  928  1  0.03741700  0.55134500  0.30547000  1
  N  931  1  0.95663100  0.57077000  0.29390000  1
  N  935  1  0.93646300  0.52790500  0.21595300  1
  N  937  1  0.45630600  0.80362800  0.05354900  1
  N  940  1  0.53753800  0.82157400  0.04256000  1
  N  944  1  0.55829900  0.77671800  0.96559900  1
  N  1274  1  0.95554400  0.62622100  0.10147200  1
  N  1277  1  0.03974600  0.62873700  0.09888210  1
  N  1281  1  0.06258900  0.56941100  0.02971610  1
  N  1283  1  0.78978200  0.87594900  0.60541800  1
  N  1286  1  0.70649100  0.86621200  0.59897700  1
  N  1290  1  0.68401900  0.92011400  0.52631200  1
  N  1292  1  0.28729600  0.11543100  0.84838000  1
  N  1295  1  0.20510600  0.13032200  0.85755200  1
  N  1299  1  0.18368100  0.08333210  0.93359800  1
  N  1301  1  0.45674500  0.36952900  0.35826300  1
  N  1304  1  0.54103300  0.37183600  0.35754300  1
  N  1308  1  0.56410300  0.43556600  0.42368800  1
  N  1310  1  0.20326300  0.37528900  0.60426300  1
  N  1313  1  0.28671900  0.38409800  0.61024800  1
  N  1317  1  0.30931100  0.32918200  0.68231000  1
  N  1319  1  0.70338500  0.12494500  0.35453800  1
  N  1322  1  0.78637200  0.11351900  0.34711000  1
  N  1326  1  0.80839600  0.16508800  0.27316500  1
  N  1328  1  0.53735700  0.87565000  0.85151400  1
  N  1331  1  0.45307500  0.87549300  0.85084200  1
  N  1335  1  0.42999800  0.81298400  0.78376400  1
  N  1337  1  0.95675300  0.12875800  0.59889500  1
  N  1340  1  0.04089000  0.12426500  0.60134800  1
  N  1344  1  0.06409500  0.05807410  0.53705500  1
  N  1346  1  0.78788000  0.37955100  0.10754300  1
  N  1349  1  0.70455700  0.36993400  0.10099700  1
  N  1353  1  0.68224500  0.42291900  0.02796410  1
  N  1355  1  0.28731200  0.62162200  0.35232600  1
  N  1358  1  0.20324100  0.62568700  0.35577000  1
  N  1362  1  0.18039800  0.56722400  0.42551700  1
  N  1364  1  0.20700000  0.86895200  0.10118900  1
  N  1367  1  0.29016400  0.87946300  0.10840900  1
  N  1371  1  0.31229600  0.82825400  0.18217300  1
  N  1373  1  0.70393700  0.62252200  0.85305800  1
  N  1376  1  0.78765400  0.61568700  0.84802000  1
  N  1380  1  0.81035500  0.67314300  0.77745200  1
  N  1382  1  0.45878200  0.61195200  0.60852000  1
  N  1385  1  0.53717500  0.63792800  0.59467600  1
  N  1389  1  0.55532200  0.60307100  0.51369000  1
  N  1391  1  0.95890000  0.38391600  0.85022600  1
  N  1394  1  0.03814700  0.36013400  0.86336300  1
  N  1398  1  0.05729400  0.39820900  0.94315700  1
  N  1400  1  0.03741700  0.86471800  0.35880800  1
  N  1403  1  0.95663100  0.88414300  0.34723800  1
  N  1407  1  0.93646300  0.84127800  0.26929100  1
  N  1409  1  0.45630600  0.11700100  0.10688700  1
  N  1412  1  0.53753800  0.13494700  0.09589810  1
  N  1416  1  0.55829900  0.09009110  0.01893710  1
