# generated using pymatgen
data_Mn3H36C41N8O9
_symmetry_space_group_name_H-M   'P 1'
_cell_length_a   17.86771000
_cell_length_b   29.89244000
_cell_length_c   29.89103000
_cell_angle_alpha   84.87969000
_cell_angle_beta   72.64733000
_cell_angle_gamma   72.66151000
_symmetry_Int_Tables_number   1
_chemical_formula_structural   Mn3H36C41N8O9
_chemical_formula_sum   'Mn24 H288 C328 N64 O72'
_cell_volume   14546.03876807
_cell_formula_units_Z   8
loop_
 _symmetry_equiv_pos_site_id
 _symmetry_equiv_pos_as_xyz
  1  'x, y, z'
loop_
 _atom_site_type_symbol
 _atom_site_label
 _atom_site_symmetry_multiplicity
 _atom_site_fract_x
 _atom_site_fract_y
 _atom_site_fract_z
 _atom_site_occupancy
  Mn  Mn0  1  0.43899000  0.91544000  0.64267000  1
  Mn  Mn1  1  0.70741000  0.88238000  0.53227000  1
  Mn  Mn2  1  0.21744000  0.99803000  0.57766000  1
  Mn  Mn3  1  0.99721000  0.58426000  0.85764000  1
  Mn  Mn4  1  0.12239000  0.61775000  0.96791000  1
  Mn  Mn5  1  0.79292000  0.50205000  0.92208000  1
  Mn  Mn6  1  0.85505000  0.64255000  0.58436000  1
  Mn  Mn7  1  0.09006000  0.53215000  0.61733000  1
  Mn  Mn8  1  0.71523000  0.57769000  0.50232000  1
  Mn  Mn9  1  0.08210000  0.85721000  0.91551000  1
  Mn  Mn10  1  0.23927000  0.96812000  0.88268000  1
  Mn  Mn11  1  0.79524000  0.92203000  0.99774000  1
  Mn  Mn12  1  0.56101000  0.08456000  0.35733000  1
  Mn  Mn13  1  0.29259000  0.11763000  0.46773000  1
  Mn  Mn14  1  0.78256000  0.00197000  0.42235000  1
  Mn  Mn15  1  0.00280000  0.41574000  0.14236000  1
  Mn  Mn16  1  0.87761000  0.38225000  0.03209000  1
  Mn  Mn17  1  0.20709000  0.49796000  0.07792000  1
  Mn  Mn18  1  0.14496000  0.35743000  0.41567000  1
  Mn  Mn19  1  0.90995000  0.46784000  0.38269000  1
  Mn  Mn20  1  0.28477000  0.42232000  0.49770000  1
  Mn  Mn21  1  0.91790000  0.14279000  0.08449000  1
  Mn  Mn22  1  0.76073000  0.03188000  0.11733000  1
  Mn  Mn23  1  0.20476000  0.07797000  0.00226000  1
  H  H24  1  0.39432000  0.78387000  0.70243000  1
  H  H25  1  0.48835000  0.70248000  0.69283000  1
  H  H26  1  0.62989000  0.68669000  0.63692000  1
  H  H27  1  0.67311000  0.75197000  0.59138000  1
  H  H28  1  0.62279000  0.99429000  0.53001000  1
  H  H29  1  0.53039000  0.03601000  0.56874000  1
  H  H30  1  0.39136000  0.91238000  0.75346000  1
  H  H31  1  0.43824000  0.92648000  0.81968000  1
  H  H32  1  0.66223000  0.93770000  0.71812000  1
  H  H33  1  0.60661000  0.92224000  0.65620000  1
  H  H34  1  0.53532000  0.94999000  0.84651000  1
  H  H35  1  0.60749000  0.97384000  0.80529000  1
  H  H36  1  0.80674000  0.88069000  0.65038000  1
  H  H37  1  0.90154000  0.92301000  0.66117000  1
  H  H38  1  0.95568000  0.97518000  0.59784000  1
  H  H39  1  0.91048000  0.98601000  0.52506000  1
  H  H40  1  0.62236000  0.95705000  0.40592000  1
  H  H41  1  0.71954000  0.92645000  0.37215000  1
  H  H42  1  0.58073000  0.88124000  0.42116000  1
  H  H43  1  0.61186000  0.89457000  0.36046000  1
  H  H44  1  0.67854000  0.85046000  0.38587000  1
  H  H45  1  0.01164000  0.07706000  0.68948000  1
  H  H46  1  0.99699000  0.08312000  0.77443000  1
  H  H47  1  0.11182000  0.03794000  0.80733000  1
  H  H48  1  0.23955000  0.98936000  0.75393000  1
  H  H49  1  0.48070000  0.91329000  0.50096000  1
  H  H50  1  0.46704000  0.87042000  0.54449000  1
  H  H51  1  0.36994000  0.84909000  0.50838000  1
  H  H52  1  0.46830000  0.84205000  0.46799000  1
  H  H53  1  0.38523000  0.89181000  0.46419000  1
  H  H54  1  0.78616000  0.84187000  0.93790000  1
  H  H55  1  0.73844000  0.83137000  0.87045000  1
  H  H56  1  0.64290000  0.98212000  0.86570000  1
  H  H57  1  0.69489000  0.98605000  0.93341000  1
  H  H58  1  0.70651000  0.89329000  0.78927000  1
  H  H59  1  0.63365000  0.86886000  0.82771000  1
  H  H60  1  0.88139000  0.71573000  0.79761000  1
  H  H61  1  0.88394000  0.79723000  0.80752000  1
  H  H62  1  0.95374000  0.81308000  0.86352000  1
  H  H63  1  0.01668000  0.74786000  0.90899000  1
  H  H64  1  0.14797000  0.50507000  0.96990000  1
  H  H65  1  0.13493000  0.46371000  0.93117000  1
  H  H66  1  0.05754000  0.58735000  0.74658000  1
  H  H67  1  0.18445000  0.57363000  0.68034000  1
  H  H68  1  0.31832000  0.56226000  0.78188000  1
  H  H69  1  0.18561000  0.57738000  0.84383000  1
  H  H70  1  0.33180000  0.54997000  0.65348000  1
  H  H71  1  0.38664000  0.52617000  0.69469000  1
  H  H72  1  0.33746000  0.61916000  0.84966000  1
  H  H73  1  0.48549000  0.57720000  0.83881000  1
  H  H74  1  0.52875000  0.52511000  0.90211000  1
  H  H75  1  0.42200000  0.51390000  0.97481000  1
  H  H76  1  0.98649000  0.54261000  0.09373000  1
  H  H77  1  0.01929000  0.57317000  0.12770000  1
  H  H78  1  0.88393000  0.61820000  0.07890000  1
  H  H79  1  0.86792000  0.60488000  0.13957000  1
  H  H80  1  0.91572000  0.64908000  0.11413000  1
  H  H81  1  0.77819000  0.42290000  0.81032000  1
  H  H82  1  0.85403000  0.41699000  0.72522000  1
  H  H83  1  0.95760000  0.46163000  0.69244000  1
  H  H84  1  0.98359000  0.51018000  0.74578000  1
  H  H85  1  0.89525000  0.58680000  0.99879000  1
  H  H86  1  0.88206000  0.62973000  0.95535000  1
  H  H87  1  0.72768000  0.65073000  0.99139000  1
  H  H88  1  0.77833000  0.65784000  0.03193000  1
  H  H89  1  0.74166000  0.60788000  0.03546000  1
  H  H90  1  0.56634000  0.65808000  0.56214000  1
  H  H91  1  0.44057000  0.66861000  0.62942000  1
  H  H92  1  0.49077000  0.51786000  0.63435000  1
  H  H93  1  0.61448000  0.51388000  0.56676000  1
  H  H94  1  0.38937000  0.60674000  0.71062000  1
  H  H95  1  0.33056000  0.63113000  0.67212000  1
  H  H96  1  0.67966000  0.70233000  0.71618000  1
  H  H97  1  0.69250000  0.69198000  0.79760000  1
  H  H98  1  0.81828000  0.63587000  0.81315000  1
  H  H99  1  0.92646000  0.59067000  0.74766000  1
  H  H100  1  0.11719000  0.53034000  0.50487000  1
  H  H101  1  0.06535000  0.56902000  0.46351000  1
  H  H102  1  0.80438000  0.75336000  0.58703000  1
  H  H103  1  0.86513000  0.81964000  0.57350000  1
  H  H104  1  0.10033000  0.71816000  0.56216000  1
  H  H105  1  0.02950000  0.65616000  0.57709000  1
  H  H106  1  0.98541000  0.84654000  0.55006000  1
  H  H107  1  0.08148000  0.80545000  0.52624000  1
  H  H108  1  0.18716000  0.65040000  0.61915000  1
  H  H109  1  0.32441000  0.66117000  0.57724000  1
  H  H110  1  0.43080000  0.59787000  0.52516000  1
  H  H111  1  0.39636000  0.52522000  0.51396000  1
  H  H112  1  0.08023000  0.40560000  0.54231000  1
  H  H113  1  0.14677000  0.37230000  0.57318000  1
  H  H114  1  0.96275000  0.42086000  0.61817000  1
  H  H115  1  0.00748000  0.36015000  0.60483000  1
  H  H116  1  0.03007000  0.38573000  0.64891000  1
  H  H117  1  0.58888000  0.68917000  0.42294000  1
  H  H118  1  0.57977000  0.77423000  0.41676000  1
  H  H119  1  0.64959000  0.80731000  0.46180000  1
  H  H120  1  0.72829000  0.75424000  0.51075000  1
  H  H121  1  0.89388000  0.50101000  0.58673000  1
  H  H122  1  0.83787000  0.54430000  0.62989000  1
  H  H123  1  0.71919000  0.50827000  0.65098000  1
  H  H124  1  0.81042000  0.46782000  0.65807000  1
  H  H125  1  0.77716000  0.46423000  0.60817000  1
  H  H126  1  0.12862000  0.93797000  0.65807000  1
  H  H127  1  0.07001000  0.87068000  0.66864000  1
  H  H128  1  0.12502000  0.86584000  0.51787000  1
  H  H129  1  0.18144000  0.93335000  0.51385000  1
  H  H130  1  0.10004000  0.78948000  0.60685000  1
  H  H131  1  0.00275000  0.82788000  0.63121000  1
  H  H132  1  0.09765000  0.79767000  0.78396000  1
  H  H133  1  0.18148000  0.80775000  0.70246000  1
  H  H134  1  0.26717000  0.86369000  0.68676000  1
  H  H135  1  0.26496000  0.90910000  0.75207000  1
  H  H136  1  0.15205000  0.97002000  0.99478000  1
  H  H137  1  0.09836000  0.93118000  0.03636000  1
  H  H138  1  0.14484000  0.74652000  0.91274000  1
  H  H139  1  0.25814000  0.68030000  0.92645000  1
  H  H140  1  0.38057000  0.78192000  0.93778000  1
  H  H141  1  0.26284000  0.84383000  0.92270000  1
  H  H142  1  0.38190000  0.65347000  0.94993000  1
  H  H143  1  0.41306000  0.69462000  0.97378000  1
  H  H144  1  0.45574000  0.84982000  0.88072000  1
  H  H145  1  0.56206000  0.83895000  0.92250000  1
  H  H146  1  0.55340000  0.90205000  0.97476000  1
  H  H147  1  0.43564000  0.97485000  0.98591000  1
  H  H148  1  0.02755000  0.09462000  0.95794000  1
  H  H149  1  0.09165000  0.12800000  0.92717000  1
  H  H150  1  0.00154000  0.07917000  0.88203000  1
  H  H151  1  0.97237000  0.13992000  0.89507000  1
  H  H152  1  0.06465000  0.11420000  0.85126000  1
  H  H153  1  0.70124000  0.81032000  0.07697000  1
  H  H154  1  0.77111000  0.72527000  0.08317000  1
  H  H155  1  0.91898000  0.69238000  0.03822000  1
  H  H156  1  0.99353000  0.74560000  0.98956000  1
  H  H157  1  0.98155000  0.99905000  0.91317000  1
  H  H158  1  0.01162000  0.95571000  0.87014000  1
  H  H159  1  0.87814000  0.99184000  0.84892000  1
  H  H160  1  0.93624000  0.03218000  0.84201000  1
  H  H161  1  0.84945000  0.03584000  0.89179000  1
  H  H162  1  0.72418000  0.56213000  0.84180000  1
  H  H163  1  0.60899000  0.62945000  0.83132000  1
  H  H164  1  0.50887000  0.63405000  0.98212000  1
  H  H165  1  0.62860000  0.56647000  0.98599000  1
  H  H166  1  0.49625000  0.71059000  0.89323000  1
  H  H167  1  0.46168000  0.67221000  0.86880000  1
  H  H168  1  0.60568000  0.21613000  0.29757000  1
  H  H169  1  0.51165000  0.29752000  0.30717000  1
  H  H170  1  0.37011000  0.31332000  0.36309000  1
  H  H171  1  0.32690000  0.24803000  0.40863000  1
  H  H172  1  0.37722000  0.00571000  0.46999000  1
  H  H173  1  0.46962000  0.96400000  0.43127000  1
  H  H174  1  0.60864000  0.08762000  0.24654000  1
  H  H175  1  0.56176000  0.07352000  0.18033000  1
  H  H176  1  0.33777000  0.06230000  0.28189000  1
  H  H177  1  0.39339000  0.07776000  0.34380000  1
  H  H178  1  0.46469000  0.05001000  0.15350000  1
  H  H179  1  0.39251000  0.02616000  0.19471000  1
  H  H180  1  0.19327000  0.11931000  0.34962000  1
  H  H181  1  0.09847000  0.07699000  0.33883000  1
  H  H182  1  0.04433000  0.02482000  0.40216000  1
  H  H183  1  0.08952000  0.01399000  0.47494000  1
  H  H184  1  0.37765000  0.04296000  0.59408000  1
  H  H185  1  0.28047000  0.07355000  0.62785000  1
  H  H186  1  0.41928000  0.11876000  0.57884000  1
  H  H187  1  0.38815000  0.10543000  0.63954000  1
  H  H188  1  0.32147000  0.14954000  0.61413000  1
  H  H189  1  0.98837000  0.92294000  0.31052000  1
  H  H190  1  0.00302000  0.91688000  0.22557000  1
  H  H191  1  0.88819000  0.96206000  0.19268000  1
  H  H192  1  0.76045000  0.01064000  0.24607000  1
  H  H193  1  0.51930000  0.08672000  0.49904000  1
  H  H194  1  0.53297000  0.12958000  0.45551000  1
  H  H195  1  0.63007000  0.15091000  0.49162000  1
  H  H196  1  0.53171000  0.15795000  0.53201000  1
  H  H197  1  0.61478000  0.10819000  0.53581000  1
  H  H198  1  0.21384000  0.15813000  0.06210000  1
  H  H199  1  0.26156000  0.16863000  0.12955000  1
  H  H200  1  0.35711000  0.01788000  0.13430000  1
  H  H201  1  0.30511000  0.01395000  0.06659000  1
  H  H202  1  0.29350000  0.10671000  0.21073000  1
  H  H203  1  0.36636000  0.13114000  0.17229000  1
  H  H204  1  0.11861000  0.28427000  0.20239000  1
  H  H205  1  0.11607000  0.20277000  0.19248000  1
  H  H206  1  0.04626000  0.18693000  0.13649000  1
  H  H207  1  0.98333000  0.25214000  0.09101000  1
  H  H208  1  0.85204000  0.49493000  0.03010000  1
  H  H209  1  0.86508000  0.53630000  0.06883000  1
  H  H210  1  0.94246000  0.41265000  0.25343000  1
  H  H211  1  0.81556000  0.42638000  0.31967000  1
  H  H212  1  0.68169000  0.43774000  0.21812000  1
  H  H213  1  0.81440000  0.42262000  0.15617000  1
  H  H214  1  0.66821000  0.45003000  0.34652000  1
  H  H215  1  0.61337000  0.47383000  0.30532000  1
  H  H216  1  0.66254000  0.38084000  0.15034000  1
  H  H217  1  0.51451000  0.42280000  0.16119000  1
  H  H218  1  0.47125000  0.47489000  0.09789000  1
  H  H219  1  0.57801000  0.48610000  0.02519000  1
  H  H220  1  0.01352000  0.45740000  0.90627000  1
  H  H221  1  0.98071000  0.42683000  0.87230000  1
  H  H222  1  0.11608000  0.38180000  0.92111000  1
  H  H223  1  0.13209000  0.39512000  0.86043000  1
  H  H224  1  0.08428000  0.35092000  0.88588000  1
  H  H225  1  0.22182000  0.57711000  0.18968000  1
  H  H226  1  0.14597000  0.58301000  0.27478000  1
  H  H227  1  0.04241000  0.53837000  0.30756000  1
  H  H228  1  0.01642000  0.48982000  0.25422000  1
  H  H229  1  0.10476000  0.41320000  0.00121000  1
  H  H230  1  0.11795000  0.37027000  0.04465000  1
  H  H231  1  0.27233000  0.34927000  0.00862000  1
  H  H232  1  0.22168000  0.34216000  0.96807000  1
  H  H233  1  0.25835000  0.39212000  0.96454000  1
  H  H234  1  0.43368000  0.34192000  0.43786000  1
  H  H235  1  0.55944000  0.33139000  0.37058000  1
  H  H236  1  0.50924000  0.48214000  0.36565000  1
  H  H237  1  0.38553000  0.48612000  0.43324000  1
  H  H238  1  0.61064000  0.39326000  0.28938000  1
  H  H239  1  0.66944000  0.36888000  0.32788000  1
  H  H240  1  0.32034000  0.29767000  0.28384000  1
  H  H241  1  0.30750000  0.30802000  0.20242000  1
  H  H242  1  0.18172000  0.36413000  0.18688000  1
  H  H243  1  0.07354000  0.40933000  0.25236000  1
  H  H244  1  0.88283000  0.46966000  0.49514000  1
  H  H245  1  0.93463000  0.43098000  0.53652000  1
  H  H246  1  0.19563000  0.24664000  0.41298000  1
  H  H247  1  0.13488000  0.18036000  0.42650000  1
  H  H248  1  0.89968000  0.28184000  0.43784000  1
  H  H249  1  0.97051000  0.34384000  0.42291000  1
  H  H250  1  0.01459000  0.15346000  0.44995000  1
  H  H251  1  0.91853000  0.19455000  0.47376000  1
  H  H252  1  0.81284000  0.34960000  0.38086000  1
  H  H253  1  0.67559000  0.33883000  0.42277000  1
  H  H254  1  0.56920000  0.40213000  0.47484000  1
  H  H255  1  0.60364000  0.47479000  0.48605000  1
  H  H256  1  0.91978000  0.59441000  0.45769000  1
  H  H257  1  0.85323000  0.62771000  0.42682000  1
  H  H258  1  0.03725000  0.57915000  0.38184000  1
  H  H259  1  0.99253000  0.63986000  0.39517000  1
  H  H260  1  0.96993000  0.61427000  0.35109000  1
  H  H261  1  0.41115000  0.31085000  0.57705000  1
  H  H262  1  0.42027000  0.22578000  0.58324000  1
  H  H263  1  0.35043000  0.19269000  0.53823000  1
  H  H264  1  0.27171000  0.24575000  0.48928000  1
  H  H265  1  0.10612000  0.49898000  0.41328000  1
  H  H266  1  0.16215000  0.45568000  0.37012000  1
  H  H267  1  0.28082000  0.49172000  0.34902000  1
  H  H268  1  0.18958000  0.53217000  0.34194000  1
  H  H269  1  0.22284000  0.53576000  0.39183000  1
  H  H270  1  0.87139000  0.06203000  0.34193000  1
  H  H271  1  0.93000000  0.12932000  0.33136000  1
  H  H272  1  0.87498000  0.13416000  0.48213000  1
  H  H273  1  0.81856000  0.06665000  0.48615000  1
  H  H274  1  0.89996000  0.21052000  0.39315000  1
  H  H275  1  0.99726000  0.17212000  0.36879000  1
  H  H276  1  0.90236000  0.20233000  0.21605000  1
  H  H277  1  0.81853000  0.19225000  0.29754000  1
  H  H278  1  0.73283000  0.13631000  0.31325000  1
  H  H279  1  0.73504000  0.09091000  0.24794000  1
  H  H280  1  0.84795000  0.02997000  0.00523000  1
  H  H281  1  0.90164000  0.06882000  0.96365000  1
  H  H282  1  0.85517000  0.25348000  0.08726000  1
  H  H283  1  0.74186000  0.31970000  0.07355000  1
  H  H284  1  0.61943000  0.21808000  0.06222000  1
  H  H285  1  0.73716000  0.15617000  0.07731000  1
  H  H286  1  0.61811000  0.34653000  0.05007000  1
  H  H287  1  0.58695000  0.30538000  0.02622000  1
  H  H288  1  0.54427000  0.15018000  0.11928000  1
  H  H289  1  0.43794000  0.16105000  0.07750000  1
  H  H290  1  0.44661000  0.09796000  0.02524000  1
  H  H291  1  0.56436000  0.02515000  0.01409000  1
  H  H292  1  0.97244000  0.90539000  0.04206000  1
  H  H293  1  0.90836000  0.87200000  0.07284000  1
  H  H294  1  0.99847000  0.92084000  0.11798000  1
  H  H295  1  0.02764000  0.86009000  0.10493000  1
  H  H296  1  0.93536000  0.88580000  0.14875000  1
  H  H297  1  0.29876000  0.18968000  0.92304000  1
  H  H298  1  0.22888000  0.27473000  0.91683000  1
  H  H299  1  0.08101000  0.30762000  0.96178000  1
  H  H300  1  0.00647000  0.25440000  0.01045000  1
  H  H301  1  0.01845000  0.00095000  0.08684000  1
  H  H302  1  0.98838000  0.04429000  0.12987000  1
  H  H303  1  0.12186000  0.00816000  0.15108000  1
  H  H304  1  0.06377000  0.96782000  0.15799000  1
  H  H305  1  0.15056000  0.96416000  0.10821000  1
  H  H306  1  0.27583000  0.43787000  0.15820000  1
  H  H307  1  0.39102000  0.37055000  0.16868000  1
  H  H308  1  0.49114000  0.36595000  0.01788000  1
  H  H309  1  0.37141000  0.43353000  0.01401000  1
  H  H310  1  0.50375000  0.28941000  0.10677000  1
  H  H311  1  0.53833000  0.32779000  0.13120000  1
  C  C312  1  0.47992000  0.81437000  0.65299000  1
  C  C313  1  0.45566000  0.77619000  0.67824000  1
  C  C314  1  0.50849000  0.73100000  0.67248000  1
  C  C315  1  0.58758000  0.72179000  0.64111000  1
  C  C316  1  0.61227000  0.75863000  0.61582000  1
  C  C317  1  0.56041000  0.80515000  0.62086000  1
  C  C318  1  0.59228000  0.84156000  0.59308000  1
  C  C319  1  0.53907000  0.96327000  0.58329000  1
  C  C320  1  0.56678000  0.00031000  0.55867000  1
  C  C321  1  0.45114000  0.91798000  0.74714000  1
  C  C322  1  0.47786000  0.92607000  0.78408000  1
  C  C323  1  0.55462000  0.93370000  0.77477000  1
  C  C324  1  0.60187000  0.93210000  0.72780000  1
  C  C325  1  0.57087000  0.92368000  0.69287000  1
  C  C326  1  0.58557000  0.94257000  0.81380000  1
  C  C327  1  0.80570000  0.90912000  0.58204000  1
  C  C328  1  0.83014000  0.90408000  0.62349000  1
  C  C329  1  0.88311000  0.92771000  0.62908000  1
  C  C330  1  0.91341000  0.95723000  0.59366000  1
  C  C331  1  0.88879000  0.96311000  0.55309000  1
  C  C332  1  0.83513000  0.93962000  0.54642000  1
  C  C333  1  0.81112000  0.94839000  0.50294000  1
  C  C334  1  0.69751000  0.91350000  0.44506000  1
  C  C335  1  0.66825000  0.92242000  0.40196000  1
  C  C336  1  0.63290000  0.88494000  0.39188000  1
  C  C337  1  0.13344000  0.03051000  0.67349000  1
  C  C338  1  0.06094000  0.05827000  0.70432000  1
  C  C339  1  0.05334000  0.06110000  0.75169000  1
  C  C340  1  0.11754000  0.03625000  0.77022000  1
  C  C341  1  0.18922000  0.00902000  0.74038000  1
  C  C342  1  0.19888000  0.00517000  0.69212000  1
  C  C343  1  0.27455000  0.97353000  0.66375000  1
  C  C344  1  0.36399000  0.92994000  0.55125000  1
  C  C345  1  0.43666000  0.89466000  0.52133000  1
  C  C346  1  0.41357000  0.86794000  0.48843000  1
  C  C347  1  0.75400000  0.87206000  0.92086000  1
  C  C348  1  0.72734000  0.86653000  0.88304000  1
  C  C349  1  0.68588000  0.90605000  0.86191000  1
  C  C350  1  0.67462000  0.94992000  0.88016000  1
  C  C351  1  0.70307000  0.95258000  0.91814000  1
  C  C352  1  0.65497000  0.90039000  0.82157000  1
  C  C353  1  0.94797000  0.68533000  0.84710000  1
  C  C354  1  0.91076000  0.72347000  0.82186000  1
  C  C355  1  0.91245000  0.76870000  0.82775000  1
  C  C356  1  0.95089000  0.77795000  0.85919000  1
  C  C357  1  0.98717000  0.74112000  0.88444000  1
  C  C358  1  0.98696000  0.69459000  0.87930000  1
  C  C359  1  0.02728000  0.65822000  0.90712000  1
  C  C360  1  0.08524000  0.53652000  0.91724000  1
  C  C361  1  0.12597000  0.49932000  0.94141000  1
  C  C362  1  0.11657000  0.58177000  0.75292000  1
  C  C363  1  0.18817000  0.57390000  0.71594000  1
  C  C364  1  0.26327000  0.56627000  0.72522000  1
  C  C365  1  0.26206000  0.56779000  0.77220000  1
  C  C366  1  0.18785000  0.57601000  0.80716000  1
  C  C367  1  0.34202000  0.55743000  0.68617000  1
  C  C368  1  0.29697000  0.59075000  0.91798000  1
  C  C369  1  0.35763000  0.59580000  0.87648000  1
  C  C370  1  0.43982000  0.57233000  0.87086000  1
  C  C371  1  0.46433000  0.54285000  0.90628000  1
  C  C372  1  0.40519000  0.53681000  0.94684000  1
  C  C373  1  0.32139000  0.56021000  0.95355000  1
  C  C374  1  0.26271000  0.55144000  0.99704000  1
  C  C375  1  0.05669000  0.58640000  0.05493000  1
  C  C376  1  0.99355000  0.57725000  0.09796000  1
  C  C377  1  0.91062000  0.61456000  0.10815000  1
  C  C378  1  0.83728000  0.46960000  0.82619000  1
  C  C379  1  0.82342000  0.44175000  0.79536000  1
  C  C380  1  0.86604000  0.43883000  0.74800000  1
  C  C381  1  0.92432000  0.46346000  0.72952000  1
  C  C382  1  0.93904000  0.49070000  0.75936000  1
  C  C383  1  0.89630000  0.49480000  0.80758000  1
  C  C384  1  0.91194000  0.52645000  0.83601000  1
  C  C385  1  0.84522000  0.57010000  0.94850000  1
  C  C386  1  0.85289000  0.60538000  0.97844000  1
  C  C387  1  0.77020000  0.63192000  0.01136000  1
  C  C388  1  0.54720000  0.62790000  0.57915000  1
  C  C389  1  0.47717000  0.63344000  0.61690000  1
  C  C390  1  0.45402000  0.59392000  0.63803000  1
  C  C391  1  0.50484000  0.55004000  0.61987000  1
  C  C392  1  0.57392000  0.54737000  0.58193000  1
  C  C393  1  0.37715000  0.59961000  0.67834000  1
  C  C394  1  0.79563000  0.65289000  0.68550000  1
  C  C395  1  0.73332000  0.67800000  0.72376000  1
  C  C396  1  0.74108000  0.67186000  0.76895000  1
  C  C397  1  0.81093000  0.64034000  0.77806000  1
  C  C398  1  0.87232000  0.61527000  0.74111000  1
  C  C399  1  0.86682000  0.62064000  0.69462000  1
  C  C400  1  0.93487000  0.59297000  0.65814000  1
  C  C401  1  0.00220000  0.58314000  0.53633000  1
  C  C402  1  0.06677000  0.55884000  0.49911000  1
  C  C403  1  0.86970000  0.74706000  0.58155000  1
  C  C404  1  0.90437000  0.78404000  0.57379000  1
  C  C405  1  0.98869000  0.77479000  0.56624000  1
  C  C406  1  0.03442000  0.72781000  0.56769000  1
  C  C407  1  0.99514000  0.69284000  0.57580000  1
  C  C408  1  0.02833000  0.81388000  0.55750000  1
  C  C409  1  0.21464000  0.58208000  0.59073000  1
  C  C410  1  0.23400000  0.62354000  0.59580000  1
  C  C411  1  0.31066000  0.62913000  0.57238000  1
  C  C412  1  0.37052000  0.59372000  0.54293000  1
  C  C413  1  0.35178000  0.55319000  0.53689000  1
  C  C414  1  0.27464000  0.54649000  0.56025000  1
  C  C415  1  0.25954000  0.50299000  0.55137000  1
  C  C416  1  0.11100000  0.44518000  0.58604000  1
  C  C417  1  0.09124000  0.40191000  0.57703000  1
  C  C418  1  0.01868000  0.39164000  0.61447000  1
  C  C419  1  0.66391000  0.67346000  0.46964000  1
  C  C420  1  0.61914000  0.70418000  0.44177000  1
  C  C421  1  0.61430000  0.75156000  0.43878000  1
  C  C422  1  0.65361000  0.77020000  0.46359000  1
  C  C423  1  0.69791000  0.74049000  0.49102000  1
  C  C424  1  0.70391000  0.69221000  0.49499000  1
  C  C425  1  0.74821000  0.66384000  0.52658000  1
  C  C426  1  0.79386000  0.55137000  0.57036000  1
  C  C427  1  0.83140000  0.52133000  0.60557000  1
  C  C428  1  0.78164000  0.48836000  0.63216000  1
  C  C429  1  0.12650000  0.92096000  0.62789000  1
  C  C430  1  0.09414000  0.88321000  0.63346000  1
  C  C431  1  0.09208000  0.86208000  0.59396000  1
  C  C432  1  0.12472000  0.88027000  0.55006000  1
  C  C433  1  0.15600000  0.91819000  0.54736000  1
  C  C434  1  0.05554000  0.82172000  0.59969000  1
  C  C435  1  0.13378000  0.84714000  0.81441000  1
  C  C436  1  0.13469000  0.82195000  0.77623000  1
  C  C437  1  0.18151000  0.82794000  0.73102000  1
  C  C438  1  0.22916000  0.85938000  0.72187000  1
  C  C439  1  0.22867000  0.88457000  0.75875000  1
  C  C440  1  0.18194000  0.87937000  0.80526000  1
  C  C441  1  0.18570000  0.90717000  0.84173000  1
  C  C442  1  0.12226000  0.91662000  0.96353000  1
  C  C443  1  0.12499000  0.94122000  0.00067000  1
  C  C444  1  0.19839000  0.75284000  0.91822000  1
  C  C445  1  0.26216000  0.71590000  0.92611000  1
  C  C446  1  0.32968000  0.72522000  0.93367000  1
  C  C447  1  0.32990000  0.77221000  0.93220000  1
  C  C448  1  0.26387000  0.80714000  0.92398000  1
  C  C449  1  0.39961000  0.68615000  0.94250000  1
  C  C450  1  0.38700000  0.91816000  0.90916000  1
  C  C451  1  0.45267000  0.87668000  0.90401000  1
  C  C452  1  0.51155000  0.87100000  0.92741000  1
  C  C453  1  0.50674000  0.90632000  0.95695000  1
  C  C454  1  0.44163000  0.94689000  0.96304000  1
  C  C455  1  0.38109000  0.95369000  0.93970000  1
  C  C456  1  0.31379000  0.99722000  0.94866000  1
  C  C457  1  0.14201000  0.05515000  0.91428000  1
  C  C458  1  0.06976000  0.09829000  0.92329000  1
  C  C459  1  0.02461000  0.10840000  0.88569000  1
  C  C460  1  0.80713000  0.82612000  0.03026000  1
  C  C461  1  0.76534000  0.79538000  0.05823000  1
  C  C462  1  0.80493000  0.74802000  0.06125000  1
  C  C463  1  0.88769000  0.72949000  0.03650000  1
  C  C464  1  0.92965000  0.75927000  0.00912000  1
  C  C465  1  0.89120000  0.80750000  0.00498000  1
  C  C466  1  0.93849000  0.83595000  0.97332000  1
  C  C467  1  0.91551000  0.94852000  0.92979000  1
  C  C468  1  0.95800000  0.97865000  0.89449000  1
  C  C469  1  0.90195000  0.01165000  0.86786000  1
  C  C470  1  0.67500000  0.57912000  0.87200000  1
  C  C471  1  0.61052000  0.61689000  0.86649000  1
  C  C472  1  0.54796000  0.63797000  0.90603000  1
  C  C473  1  0.55502000  0.61969000  0.94989000  1
  C  C474  1  0.62144000  0.58175000  0.95252000  1
  C  C475  1  0.47683000  0.67833000  0.90035000  1
  C  C476  1  0.52008000  0.18563000  0.34702000  1
  C  C477  1  0.54434000  0.22381000  0.32176000  1
  C  C478  1  0.49151000  0.26901000  0.32752000  1
  C  C479  1  0.41243000  0.27821000  0.35890000  1
  C  C480  1  0.38774000  0.24137000  0.38418000  1
  C  C481  1  0.43960000  0.19485000  0.37914000  1
  C  C482  1  0.40772000  0.15844000  0.40692000  1
  C  C483  1  0.46093000  0.03673000  0.41671000  1
  C  C484  1  0.43322000  0.99969000  0.44134000  1
  C  C485  1  0.54887000  0.08202000  0.25287000  1
  C  C486  1  0.52215000  0.07393000  0.21592000  1
  C  C487  1  0.44539000  0.06630000  0.22523000  1
  C  C488  1  0.39813000  0.06790000  0.27221000  1
  C  C489  1  0.42914000  0.07632000  0.30713000  1
  C  C490  1  0.41444000  0.05743000  0.18620000  1
  C  C491  1  0.19431000  0.09088000  0.41796000  1
  C  C492  1  0.16987000  0.09592000  0.37651000  1
  C  C493  1  0.11690000  0.07229000  0.37092000  1
  C  C494  1  0.08660000  0.04277000  0.40634000  1
  C  C495  1  0.11122000  0.03689000  0.44691000  1
  C  C496  1  0.16488000  0.06038000  0.45358000  1
  C  C497  1  0.18889000  0.05161000  0.49706000  1
  C  C498  1  0.30249000  0.08650000  0.55494000  1
  C  C499  1  0.33175000  0.07758000  0.59804000  1
  C  C500  1  0.36710000  0.11506000  0.60812000  1
  C  C501  1  0.86656000  0.96950000  0.32652000  1
  C  C502  1  0.93907000  0.94173000  0.29568000  1
  C  C503  1  0.94666000  0.93890000  0.24831000  1
  C  C504  1  0.88246000  0.96375000  0.22978000  1
  C  C505  1  0.81079000  0.99098000  0.25963000  1
  C  C506  1  0.80112000  0.99483000  0.30789000  1
  C  C507  1  0.72545000  0.02647000  0.33625000  1
  C  C508  1  0.63602000  0.07006000  0.44875000  1
  C  C509  1  0.56335000  0.10534000  0.47868000  1
  C  C510  1  0.58643000  0.13206000  0.51157000  1
  C  C511  1  0.24601000  0.12794000  0.07914000  1
  C  C512  1  0.27267000  0.13347000  0.11696000  1
  C  C513  1  0.31413000  0.09395000  0.13809000  1
  C  C514  1  0.32538000  0.05008000  0.11984000  1
  C  C515  1  0.29694000  0.04742000  0.08186000  1
  C  C516  1  0.34503000  0.09961000  0.17843000  1
  C  C517  1  0.05204000  0.31467000  0.15290000  1
  C  C518  1  0.08925000  0.27653000  0.17814000  1
  C  C519  1  0.08755000  0.23130000  0.17225000  1
  C  C520  1  0.04911000  0.22205000  0.14082000  1
  C  C521  1  0.01284000  0.25888000  0.11556000  1
  C  C522  1  0.01305000  0.30541000  0.12070000  1
  C  C523  1  0.97273000  0.34178000  0.09288000  1
  C  C524  1  0.91477000  0.46348000  0.08276000  1
  C  C525  1  0.87404000  0.50068000  0.05859000  1
  C  C526  1  0.88343000  0.41823000  0.24708000  1
  C  C527  1  0.81183000  0.42610000  0.28406000  1
  C  C528  1  0.73673000  0.43373000  0.27478000  1
  C  C529  1  0.73794000  0.43221000  0.22780000  1
  C  C530  1  0.81215000  0.42399000  0.19284000  1
  C  C531  1  0.65799000  0.44257000  0.31383000  1
  C  C532  1  0.70304000  0.40925000  0.08203000  1
  C  C533  1  0.64238000  0.40420000  0.12352000  1
  C  C534  1  0.56019000  0.42767000  0.12914000  1
  C  C535  1  0.53567000  0.45715000  0.09372000  1
  C  C536  1  0.59481000  0.46319000  0.05316000  1
  C  C537  1  0.67862000  0.43979000  0.04645000  1
  C  C538  1  0.73729000  0.44856000  0.00296000  1
  C  C539  1  0.94331000  0.41360000  0.94507000  1
  C  C540  1  0.00646000  0.42275000  0.90204000  1
  C  C541  1  0.08938000  0.38544000  0.89186000  1
  C  C542  1  0.16273000  0.53040000  0.17381000  1
  C  C543  1  0.17658000  0.55825000  0.20464000  1
  C  C544  1  0.13396000  0.56117000  0.25200000  1
  C  C545  1  0.07568000  0.53655000  0.27048000  1
  C  C546  1  0.06096000  0.50930000  0.24064000  1
  C  C547  1  0.10371000  0.50520000  0.19242000  1
  C  C548  1  0.08807000  0.47355000  0.16399000  1
  C  C549  1  0.15478000  0.42990000  0.05150000  1
  C  C550  1  0.14711000  0.39462000  0.02156000  1
  C  C551  1  0.22981000  0.36808000  0.98865000  1
  C  C552  1  0.45281000  0.37210000  0.42085000  1
  C  C553  1  0.52283000  0.36656000  0.38310000  1
  C  C554  1  0.54599000  0.40608000  0.36197000  1
  C  C555  1  0.49516000  0.44996000  0.38013000  1
  C  C556  1  0.42609000  0.45263000  0.41807000  1
  C  C557  1  0.62286000  0.40040000  0.32167000  1
  C  C558  1  0.20438000  0.34710000  0.31452000  1
  C  C559  1  0.26669000  0.32200000  0.27626000  1
  C  C560  1  0.25893000  0.32814000  0.23107000  1
  C  C561  1  0.18908000  0.35966000  0.22196000  1
  C  C562  1  0.12768000  0.38474000  0.25891000  1
  C  C563  1  0.13318000  0.37936000  0.30540000  1
  C  C564  1  0.06514000  0.40703000  0.34189000  1
  C  C565  1  0.99780000  0.41684000  0.46369000  1
  C  C566  1  0.93323000  0.44115000  0.50091000  1
  C  C567  1  0.13031000  0.25293000  0.41845000  1
  C  C568  1  0.09564000  0.21595000  0.42621000  1
  C  C569  1  0.01132000  0.22521000  0.43376000  1
  C  C570  1  0.96558000  0.27219000  0.43231000  1
  C  C571  1  0.00486000  0.30716000  0.42420000  1
  C  C572  1  0.97167000  0.18612000  0.44250000  1
  C  C573  1  0.78537000  0.41792000  0.40928000  1
  C  C574  1  0.76601000  0.37646000  0.40420000  1
  C  C575  1  0.68935000  0.37087000  0.42762000  1
  C  C576  1  0.62949000  0.40628000  0.45707000  1
  C  C577  1  0.64823000  0.44681000  0.46311000  1
  C  C578  1  0.72537000  0.45351000  0.43976000  1
  C  C579  1  0.74047000  0.49701000  0.44864000  1
  C  C580  1  0.88901000  0.55482000  0.41397000  1
  C  C581  1  0.90877000  0.59809000  0.42298000  1
  C  C582  1  0.98132000  0.60837000  0.38554000  1
  C  C583  1  0.33610000  0.32654000  0.53037000  1
  C  C584  1  0.38089000  0.29583000  0.55823000  1
  C  C585  1  0.38573000  0.24845000  0.56123000  1
  C  C586  1  0.34641000  0.22980000  0.53643000  1
  C  C587  1  0.30210000  0.25950000  0.50900000  1
  C  C588  1  0.29610000  0.30779000  0.50502000  1
  C  C589  1  0.25182000  0.33616000  0.47344000  1
  C  C590  1  0.20613000  0.44862000  0.42966000  1
  C  C591  1  0.16861000  0.47866000  0.39444000  1
  C  C592  1  0.21836000  0.51163000  0.36784000  1
  C  C593  1  0.87351000  0.07904000  0.37211000  1
  C  C594  1  0.90586000  0.11679000  0.36654000  1
  C  C595  1  0.90792000  0.13792000  0.40605000  1
  C  C596  1  0.87529000  0.11973000  0.44994000  1
  C  C597  1  0.84400000  0.08181000  0.45264000  1
  C  C598  1  0.94446000  0.17828000  0.40031000  1
  C  C599  1  0.86622000  0.15286000  0.18560000  1
  C  C600  1  0.86532000  0.17805000  0.22378000  1
  C  C601  1  0.81849000  0.17207000  0.26898000  1
  C  C602  1  0.77085000  0.14062000  0.27814000  1
  C  C603  1  0.77133000  0.11544000  0.24126000  1
  C  C604  1  0.81806000  0.12063000  0.19475000  1
  C  C605  1  0.81430000  0.09284000  0.15828000  1
  C  C606  1  0.87775000  0.08338000  0.03648000  1
  C  C607  1  0.87501000  0.05878000  0.99934000  1
  C  C608  1  0.80161000  0.24716000  0.08178000  1
  C  C609  1  0.73785000  0.28410000  0.07389000  1
  C  C610  1  0.67033000  0.27478000  0.06633000  1
  C  C611  1  0.67011000  0.22779000  0.06780000  1
  C  C612  1  0.73613000  0.19287000  0.07603000  1
  C  C613  1  0.60040000  0.31385000  0.05751000  1
  C  C614  1  0.61300000  0.08184000  0.09084000  1
  C  C615  1  0.54733000  0.12332000  0.09599000  1
  C  C616  1  0.48845000  0.12901000  0.07259000  1
  C  C617  1  0.49326000  0.09369000  0.04305000  1
  C  C618  1  0.55837000  0.05312000  0.03696000  1
  C  C619  1  0.61891000  0.04631000  0.06031000  1
  C  C620  1  0.68621000  0.00278000  0.05134000  1
  C  C621  1  0.85798000  0.94485000  0.08574000  1
  C  C622  1  0.93024000  0.90172000  0.07672000  1
  C  C623  1  0.97539000  0.89160000  0.11432000  1
  C  C624  1  0.19287000  0.17388000  0.96975000  1
  C  C625  1  0.23465000  0.20462000  0.94177000  1
  C  C626  1  0.19506000  0.25198000  0.93876000  1
  C  C627  1  0.11231000  0.27051000  0.96350000  1
  C  C628  1  0.07035000  0.24073000  0.99088000  1
  C  C629  1  0.10881000  0.19250000  0.99503000  1
  C  C630  1  0.06151000  0.16405000  0.02669000  1
  C  C631  1  0.08449000  0.05148000  0.07022000  1
  C  C632  1  0.04201000  0.02135000  0.10551000  1
  C  C633  1  0.09806000  0.98835000  0.13214000  1
  C  C634  1  0.32501000  0.42089000  0.12800000  1
  C  C635  1  0.38949000  0.38311000  0.13351000  1
  C  C636  1  0.45205000  0.36203000  0.09397000  1
  C  C637  1  0.44499000  0.38031000  0.05011000  1
  C  C638  1  0.37857000  0.41825000  0.04748000  1
  C  C639  1  0.52318000  0.32167000  0.09966000  1
  N  N640  1  0.54734000  0.88695000  0.59933000  1
  N  N641  1  0.58441000  0.91847000  0.57220000  1
  N  N642  1  0.49630000  0.91702000  0.70209000  1
  N  N643  1  0.76096000  0.92617000  0.49481000  1
  N  N644  1  0.74256000  0.93833000  0.45220000  1
  N  N645  1  0.28446000  0.96705000  0.61825000  1
  N  N646  1  0.35569000  0.93241000  0.59626000  1
  N  N647  1  0.74158000  0.91442000  0.93862000  1
  N  N648  1  0.03384000  0.61281000  0.90096000  1
  N  N649  1  0.07530000  0.58133000  0.92813000  1
  N  N650  1  0.11584000  0.58256000  0.79799000  1
  N  N651  1  0.18227000  0.57353000  0.00504000  1
  N  N652  1  0.13350000  0.56132000  0.04760000  1
  N  N653  1  0.86918000  0.53324000  0.88138000  1
  N  N654  1  0.88379000  0.56788000  0.90342000  1
  N  N655  1  0.59482000  0.58553000  0.56145000  1
  N  N656  1  0.93503000  0.59924000  0.61276000  1
  N  N657  1  0.00337000  0.57216000  0.58110000  1
  N  N658  1  0.91400000  0.70201000  0.58233000  1
  N  N659  1  0.18701000  0.49499000  0.57329000  1
  N  N660  1  0.18056000  0.45251000  0.56104000  1
  N  N661  1  0.75079000  0.61847000  0.53347000  1
  N  N662  1  0.78732000  0.59647000  0.56819000  1
  N  N663  1  0.15647000  0.93867000  0.58550000  1
  N  N664  1  0.14689000  0.90078000  0.88709000  1
  N  N665  1  0.15655000  0.92787000  0.91875000  1
  N  N666  1  0.19848000  0.79790000  0.91738000  1
  N  N667  1  0.25539000  0.00548000  0.92654000  1
  N  N668  1  0.19447000  0.04802000  0.93891000  1
  N  N669  1  0.90288000  0.88145000  0.96683000  1
  N  N670  1  0.95218000  0.90351000  0.93219000  1
  N  N671  1  0.68039000  0.56134000  0.91435000  1
  N  N672  1  0.45267000  0.11305000  0.40067000  1
  N  N673  1  0.41559000  0.08154000  0.42780000  1
  N  N674  1  0.50371000  0.08298000  0.29792000  1
  N  N675  1  0.23904000  0.07383000  0.50519000  1
  N  N676  1  0.25745000  0.06167000  0.54780000  1
  N  N677  1  0.71555000  0.03295000  0.38175000  1
  N  N678  1  0.64431000  0.06759000  0.40374000  1
  N  N679  1  0.25842000  0.08558000  0.06138000  1
  N  N680  1  0.96616000  0.38719000  0.09904000  1
  N  N681  1  0.92471000  0.41868000  0.07187000  1
  N  N682  1  0.88417000  0.41744000  0.20201000  1
  N  N683  1  0.81773000  0.42647000  0.99496000  1
  N  N684  1  0.86651000  0.43869000  0.95240000  1
  N  N685  1  0.13083000  0.46676000  0.11863000  1
  N  N686  1  0.11622000  0.43212000  0.09658000  1
  N  N687  1  0.40519000  0.41447000  0.43856000  1
  N  N688  1  0.06498000  0.40076000  0.38727000  1
  N  N689  1  0.99664000  0.42783000  0.41893000  1
  N  N690  1  0.08601000  0.29799000  0.41767000  1
  N  N691  1  0.81300000  0.50501000  0.42672000  1
  N  N692  1  0.81944000  0.54750000  0.43897000  1
  N  N693  1  0.24920000  0.38153000  0.46655000  1
  N  N694  1  0.21267000  0.40353000  0.43183000  1
  N  N695  1  0.84354000  0.06133000  0.41450000  1
  N  N696  1  0.85311000  0.09922000  0.11291000  1
  N  N697  1  0.84346000  0.07213000  0.08125000  1
  N  N698  1  0.80152000  0.20210000  0.08263000  1
  N  N699  1  0.74461000  0.99452000  0.07347000  1
  N  N700  1  0.80554000  0.95198000  0.06110000  1
  N  N701  1  0.09712000  0.11855000  0.03318000  1
  N  N702  1  0.04782000  0.09649000  0.06782000  1
  N  N703  1  0.31961000  0.43866000  0.08565000  1
  O  O704  1  0.42500000  0.85630000  0.66074000  1
  O  O705  1  0.66430000  0.83055000  0.56263000  1
  O  O706  1  0.46949000  0.97130000  0.61721000  1
  O  O707  1  0.75724000  0.88381000  0.57859000  1
  O  O708  1  0.83773000  0.97788000  0.47299000  1
  O  O709  1  0.67648000  0.88165000  0.47564000  1
  O  O710  1  0.13551000  0.02964000  0.62864000  1
  O  O711  1  0.33102000  0.95092000  0.68321000  1
  O  O712  1  0.31027000  0.95761000  0.53165000  1
  O  O713  1  0.94300000  0.64335000  0.83926000  1
  O  O714  1  0.05774000  0.66941000  0.93758000  1
  O  O715  1  0.05663000  0.52851000  0.88371000  1
  O  O716  1  0.21985000  0.61619000  0.92149000  1
  O  O717  1  0.28868000  0.52211000  0.02714000  1
  O  O718  1  0.03435000  0.61855000  0.02460000  1
  O  O719  1  0.79325000  0.47060000  0.87098000  1
  O  O720  1  0.96582000  0.54879000  0.81679000  1
  O  O721  1  0.79960000  0.54239000  0.96813000  1
  O  O722  1  0.78281000  0.66084000  0.64354000  1
  O  O723  1  0.99589000  0.56253000  0.66920000  1
  O  O724  1  0.94021000  0.61679000  0.52840000  1
  O  O725  1  0.14090000  0.57863000  0.61605000  1
  O  O726  1  0.31576000  0.47294000  0.52209000  1
  O  O727  1  0.05834000  0.47549000  0.61821000  1
  O  O728  1  0.66544000  0.62856000  0.47038000  1
  O  O729  1  0.78302000  0.68318000  0.54875000  1
  O  O730  1  0.76845000  0.53168000  0.54238000  1
  O  O731  1  0.08681000  0.83919000  0.85632000  1
  O  O732  1  0.22718000  0.93770000  0.83070000  1
  O  O733  1  0.08697000  0.88247000  0.97143000  1
  O  O734  1  0.33512000  0.92165000  0.88384000  1
  O  O735  1  0.31073000  0.02706000  0.97816000  1
  O  O736  1  0.15155000  0.02461000  0.88235000  1
  O  O737  1  0.76437000  0.87091000  0.02920000  1
  O  O738  1  0.01447000  0.81664000  0.95079000  1
  O  O739  1  0.84223000  0.96802000  0.95755000  1
  O  O740  1  0.57501000  0.14370000  0.33926000  1
  O  O741  1  0.33571000  0.16945000  0.43737000  1
  O  O742  1  0.53052000  0.02870000  0.38280000  1
  O  O743  1  0.24277000  0.11619000  0.42141000  1
  O  O744  1  0.16228000  0.02212000  0.52701000  1
  O  O745  1  0.32352000  0.11835000  0.52436000  1
  O  O746  1  0.86450000  0.97036000  0.37136000  1
  O  O747  1  0.66899000  0.04908000  0.31679000  1
  O  O748  1  0.68974000  0.04239000  0.46835000  1
  O  O749  1  0.05700000  0.35665000  0.16074000  1
  O  O750  1  0.94226000  0.33059000  0.06242000  1
  O  O751  1  0.94337000  0.47150000  0.11629000  1
  O  O752  1  0.78016000  0.38381000  0.07851000  1
  O  O753  1  0.71133000  0.47789000  0.97286000  1
  O  O754  1  0.96565000  0.38146000  0.97540000  1
  O  O755  1  0.20675000  0.52940000  0.12902000  1
  O  O756  1  0.03419000  0.45121000  0.18321000  1
  O  O757  1  0.20040000  0.45761000  0.03187000  1
  O  O758  1  0.21720000  0.33916000  0.35648000  1
  O  O759  1  0.00412000  0.43747000  0.33082000  1
  O  O760  1  0.05978000  0.38318000  0.47163000  1
  O  O761  1  0.85911000  0.42137000  0.38396000  1
  O  O762  1  0.68424000  0.52706000  0.47792000  1
  O  O763  1  0.94168000  0.52451000  0.38181000  1
  O  O764  1  0.33457000  0.37144000  0.52962000  1
  O  O765  1  0.21702000  0.31682000  0.45125000  1
  O  O766  1  0.23155000  0.46832000  0.45763000  1
  O  O767  1  0.91319000  0.16081000  0.14369000  1
  O  O768  1  0.77283000  0.06230000  0.16930000  1
  O  O769  1  0.91304000  0.11753000  0.02857000  1
  O  O770  1  0.66488000  0.07835000  0.11616000  1
  O  O771  1  0.68927000  0.97294000  0.02185000  1
  O  O772  1  0.84843000  0.97539000  0.11768000  1
  O  O773  1  0.23563000  0.12909000  0.97080000  1
  O  O774  1  0.98553000  0.18336000  0.04921000  1
  O  O775  1  0.15777000  0.03198000  0.04245000  1
