# generated using pymatgen
data_H24C45(N2O)4
_symmetry_space_group_name_H-M   'P 1'
_cell_length_a   41.32710000
_cell_length_b   41.32710000
_cell_length_c   48.01700000
_cell_angle_alpha   90.00000000
_cell_angle_beta   90.00000000
_cell_angle_gamma   90.00000000
_symmetry_Int_Tables_number   1
_chemical_formula_structural   H24C45(N2O)4
_chemical_formula_sum   'H576 C1080 N192 O96'
_cell_volume   82009.63612798
_cell_formula_units_Z   24
loop_
 _symmetry_equiv_pos_site_id
 _symmetry_equiv_pos_as_xyz
  1  'x, y, z'
loop_
 _atom_site_type_symbol
 _atom_site_label
 _atom_site_symmetry_multiplicity
 _atom_site_fract_x
 _atom_site_fract_y
 _atom_site_fract_z
 _atom_site_occupancy
  H  26  1  0.22388100  0.10753900  0.18022700  1
  H  27  1  0.19233300  0.13886100  0.14905600  1
  H  28  1  0.14536200  0.04385200  0.19166700  1
  H  29  1  0.11387300  0.07492500  0.16016200  1
  H  30  1  0.06677300  0.11816800  0.14923300  1
  H  31  1  0.03531800  0.14944200  0.18050600  1
  H  32  1  0.11382000  0.21320200  0.19172700  1
  H  33  1  0.14520600  0.18217900  0.16012100  1
  H  34  1  0.12091400  0.19185400  0.10865500  1
  H  35  1  0.15322900  0.22249000  0.07764100  1
  H  36  1  0.21460200  0.14221600  0.06586700  1
  H  37  1  0.18242700  0.11149400  0.09729200  1
  H  38  1  0.13806400  0.06524000  0.10862400  1
  H  39  1  0.07646300  0.14557000  0.09744100  1
  H  40  1  0.04415000  0.11481300  0.06613700  1
  H  45  1  0.10561900  0.03457700  0.07770100  1
  H  71  1  0.53508500  0.15022700  0.68015200  1
  H  72  1  0.56662600  0.11887500  0.64900700  1
  H  73  1  0.61371700  0.21372700  0.69177500  1
  H  74  1  0.64520200  0.18262500  0.66028200  1
  H  75  1  0.69233100  0.13936100  0.64918600  1
  H  76  1  0.72375800  0.10809100  0.68048200  1
  H  77  1  0.64511500  0.04455700  0.69191700  1
  H  78  1  0.61376000  0.07557000  0.66028500  1
  H  79  1  0.63800800  0.06568500  0.60881900  1
  H  80  1  0.60568300  0.03506000  0.57780800  1
  H  81  1  0.54451500  0.11544700  0.56582800  1
  H  82  1  0.57669500  0.14615800  0.59725700  1
  H  83  1  0.62106500  0.19243700  0.60874400  1
  H  84  1  0.68248300  0.11198800  0.59741900  1
  H  85  1  0.71478400  0.14270200  0.56608000  1
  H  90  1  0.65350900  0.22305500  0.57779100  1
  H  116  1  0.03485100  0.60736000  0.57784300  1
  H  117  1  0.06639400  0.63868800  0.60900900  1
  H  118  1  0.11345800  0.54382500  0.56624100  1
  H  119  1  0.14493900  0.57489900  0.59775000  1
  H  120  1  0.19204700  0.61814500  0.60879000  1
  H  121  1  0.22346800  0.64942000  0.57749900  1
  H  122  1  0.14486300  0.71302400  0.56616200  1
  H  123  1  0.11351600  0.68200400  0.59779400  1
  H  124  1  0.13780900  0.69179900  0.64926300  1
  H  125  1  0.10551000  0.72242000  0.68029600  1
  H  126  1  0.04428300  0.64206800  0.69222900  1
  H  127  1  0.07644100  0.61136200  0.66077800  1
  H  128  1  0.12080400  0.56510200  0.64930700  1
  H  129  1  0.18227600  0.64551200  0.66057600  1
  H  130  1  0.21459600  0.61478400  0.69189200  1
  H  135  1  0.15326000  0.53446600  0.68023800  1
  H  161  1  0.72358400  0.65008000  0.07773600  1
  H  162  1  0.69200400  0.61875200  0.10888200  1
  H  163  1  0.64519000  0.71396600  0.06648500  1
  H  164  1  0.61367100  0.68288000  0.09795900  1
  H  165  1  0.56658800  0.63959600  0.10867900  1
  H  166  1  0.53514300  0.60833000  0.07738900  1
  H  167  1  0.61355700  0.54441300  0.06636500  1
  H  168  1  0.64493300  0.57543200  0.09797700  1
  H  169  1  0.62057400  0.56588800  0.14943400  1
  H  170  1  0.65287000  0.53523500  0.18045400  1
  H  171  1  0.71440100  0.61541800  0.19209000  1
  H  172  1  0.68223800  0.64615300  0.16066600  1
  H  173  1  0.63787800  0.69237200  0.14952200  1
  H  174  1  0.57610700  0.61212900  0.16047100  1
  H  175  1  0.54379600  0.64286500  0.19179200  1
  H  180  1  0.60543900  0.72301300  0.18046800  1
  H  206  1  0.85516100  0.47296400  0.32789800  1
  H  207  1  0.88758100  0.44236200  0.35883900  1
  H  208  1  0.79458600  0.39224700  0.31535500  1
  H  209  1  0.82684300  0.36155200  0.34674400  1
  H  210  1  0.87124000  0.31514200  0.35886400  1
  H  211  1  0.90371800  0.28448200  0.32797700  1
  H  212  1  0.96432200  0.36517200  0.31543400  1
  H  213  1  0.93199700  0.39592900  0.34673100  1
  H  214  1  0.94253800  0.36885500  0.39845000  1
  H  215  1  0.97400800  0.40024100  0.42960800  1
  H  216  1  0.89498300  0.46309400  0.44182700  1
  H  217  1  0.86356700  0.43197600  0.41029400  1
  H  218  1  0.81633900  0.38874500  0.39848400  1
  H  219  1  0.89528000  0.32558800  0.41032500  1
  H  220  1  0.86393300  0.29461300  0.44199300  1
  H  225  1  0.78492400  0.35749700  0.42978700  1
  H  251  1  0.90336500  0.78466300  0.82790600  1
  H  252  1  0.87101300  0.81528700  0.85888900  1
  H  253  1  0.96423500  0.86521000  0.81560900  1
  H  254  1  0.93203800  0.89591700  0.84703100  1
  H  255  1  0.88770400  0.94231200  0.85893100  1
  H  256  1  0.85527300  0.97301200  0.82803800  1
  H  257  1  0.79435400  0.89250700  0.81574200  1
  H  258  1  0.82664000  0.86171200  0.84703900  1
  H  259  1  0.81634900  0.88887500  0.89877900  1
  H  260  1  0.78483700  0.85753500  0.92994500  1
  H  261  1  0.86365900  0.79436300  0.94191600  1
  H  262  1  0.89511100  0.82543700  0.91038300  1
  H  263  1  0.94233400  0.86864200  0.89880200  1
  H  264  1  0.86359900  0.93210600  0.91040800  1
  H  265  1  0.89499500  0.96305900  0.94205300  1
  H  270  1  0.97380300  0.89986300  0.93008900  1
  H  296  1  0.35576200  0.28492200  0.93045700  1
  H  297  1  0.38810200  0.31555400  0.89946000  1
  H  298  1  0.29432300  0.36516800  0.94212000  1
  H  299  1  0.32652500  0.39588400  0.91070600  1
  H  300  1  0.37087300  0.44217300  0.89938700  1
  H  301  1  0.40324700  0.47288900  0.93032400  1
  H  302  1  0.46472900  0.39269700  0.94204700  1
  H  303  1  0.43248900  0.36188600  0.91073100  1
  H  304  1  0.44231100  0.38917600  0.85895800  1
  H  305  1  0.47385200  0.35783300  0.82780000  1
  H  306  1  0.39535600  0.29410000  0.81645000  1
  H  307  1  0.36387300  0.32519600  0.84794700  1
  H  308  1  0.31674600  0.36841700  0.85892200  1
  H  309  1  0.39514800  0.43243300  0.84788300  1
  H  310  1  0.36372800  0.46337200  0.81624200  1
  H  315  1  0.28525600  0.39960700  0.82761500  1
  H  341  1  0.40360700  0.97304500  0.43008300  1
  H  342  1  0.37119800  0.94247200  0.39911500  1
  H  343  1  0.46398400  0.89221500  0.44280500  1
  H  344  1  0.43173700  0.86155400  0.41138300  1
  H  345  1  0.38736600  0.81511700  0.39903100  1
  H  346  1  0.35487200  0.78444000  0.42988700  1
  H  347  1  0.29444900  0.86521800  0.44266200  1
  H  348  1  0.32678600  0.89599400  0.41138500  1
  H  349  1  0.31609300  0.86901400  0.35966400  1
  H  350  1  0.28464900  0.90041300  0.32850000  1
  H  351  1  0.36379300  0.96307100  0.31611500  1
  H  352  1  0.39518200  0.93194900  0.34766200  1
  H  353  1  0.44244600  0.88869900  0.35967200  1
  H  354  1  0.36338200  0.82576200  0.34757900  1
  H  355  1  0.39473200  0.79478400  0.31591500  1
  H  360  1  0.47386600  0.85744100  0.32838400  1
  H  373  1  0.07463800  0.96558300  0.94985100  1
  H  374  1  0.93388900  0.03980200  0.05983400  1
  H  376  1  0.07597700  0.01836600  0.03737000  1
  H  378  1  0.93166800  0.98537400  0.97392500  1
  H  391  1  0.68425600  0.29178900  0.44975300  1
  H  392  1  0.82512300  0.21794500  0.55981000  1
  H  394  1  0.68301700  0.23915600  0.53733900  1
  H  396  1  0.82726900  0.27224300  0.47384600  1
  H  409  1  0.18419000  0.46532500  0.80800300  1
  H  410  1  0.32499000  0.54001400  0.69830600  1
  H  412  1  0.18291000  0.51822700  0.72054200  1
  H  414  1  0.32714900  0.48551500  0.78419900  1
  H  427  1  0.57444900  0.79179800  0.30837200  1
  H  428  1  0.43366700  0.71799500  0.19821400  1
  H  430  1  0.57578000  0.73915300  0.22080700  1
  H  432  1  0.43144100  0.77236600  0.28412600  1
  H  445  1  0.32446800  0.71496700  0.55778100  1
  H  446  1  0.18351600  0.79034200  0.44857800  1
  H  448  1  0.32558100  0.76819400  0.47042500  1
  H  450  1  0.18148200  0.73544300  0.53429000  1
  H  463  1  0.82529000  0.54497500  0.20179800  1
  H  464  1  0.68313100  0.46300400  0.30621600  1
  H  466  1  0.82525400  0.48997900  0.28827100  1
  H  468  1  0.68312600  0.51802900  0.21977600  1
  H  481  1  0.43506900  0.22072900  0.69640700  1
  H  482  1  0.57394400  0.28720900  0.81169500  1
  H  484  1  0.43149200  0.27316200  0.78322200  1
  H  486  1  0.57752700  0.23473500  0.72491400  1
  H  499  1  0.07375600  0.47042800  0.44626900  1
  H  500  1  0.93482300  0.53685400  0.56153000  1
  H  502  1  0.07730200  0.52290200  0.53303600  1
  H  504  1  0.93125700  0.48429000  0.47481300  1
  H  517  1  0.68485900  0.78766100  0.94663700  1
  H  518  1  0.82382800  0.72033700  0.06147600  1
  H  520  1  0.68134100  0.73490600  0.03329000  1
  H  522  1  0.82736400  0.77316200  0.97487100  1
  H  535  1  0.18495000  0.97036200  0.31161400  1
  H  536  1  0.32398400  0.03705400  0.19655700  1
  H  538  1  0.18148700  0.02295600  0.22490100  1
  H  540  1  0.32748300  0.98438200  0.28322200  1
  H  553  1  0.32554500  0.21301300  0.05640000  1
  H  554  1  0.18339100  0.29442200  0.95165400  1
  H  556  1  0.32557400  0.26782200  0.96986000  1
  H  558  1  0.18337200  0.23959800  0.03820200  1
  H  571  1  0.82471600  0.04242600  0.70021600  1
  H  572  1  0.68374300  0.96740700  0.80958200  1
  H  574  1  0.82584400  0.98929600  0.78760000  1
  H  576  1  0.68170600  0.02221600  0.72384500  1
  H  589  1  0.57557500  0.96273300  0.45201700  1
  H  590  1  0.43340400  0.04517900  0.55614900  1
  H  592  1  0.57555800  0.01792500  0.53837200  1
  H  594  1  0.43349600  0.99008500  0.46970600  1
  H  607  1  0.07551900  0.79463000  0.80614500  1
  H  608  1  0.93322400  0.71254300  0.70193200  1
  H  610  1  0.07539800  0.73955700  0.71973000  1
  H  612  1  0.93337400  0.76754800  0.78839900  1
  H  625  1  0.93426400  0.21518800  0.20004300  1
  H  626  1  0.07513700  0.29021200  0.30949900  1
  H  628  1  0.93308900  0.26823800  0.28748100  1
  H  630  1  0.07723600  0.23549900  0.22369400  1
  H  643  1  0.57499900  0.46751900  0.94847600  1
  H  644  1  0.43406700  0.54237100  0.05796400  1
  H  646  1  0.57705500  0.52223700  0.03426700  1
  H  648  1  0.43287100  0.48923200  0.97061400  1
  H  674  1  0.22388100  0.10753900  0.36766100  1
  H  675  1  0.19233300  0.13886100  0.33649000  1
  H  676  1  0.14536200  0.04385200  0.37910100  1
  H  677  1  0.11387300  0.07492500  0.34759600  1
  H  678  1  0.06677300  0.11816800  0.33666700  1
  H  679  1  0.03531800  0.14944200  0.36794000  1
  H  680  1  0.11382000  0.21320200  0.37916100  1
  H  681  1  0.14520600  0.18217900  0.34755500  1
  H  682  1  0.12091400  0.19185400  0.29608900  1
  H  683  1  0.15322900  0.22249000  0.26507500  1
  H  684  1  0.21460200  0.14221600  0.25330100  1
  H  685  1  0.18242700  0.11149400  0.28472600  1
  H  686  1  0.13806400  0.06524000  0.29605800  1
  H  687  1  0.07646300  0.14557000  0.28487500  1
  H  688  1  0.04415000  0.11481300  0.25357100  1
  H  693  1  0.10561900  0.03457700  0.26513500  1
  H  719  1  0.53508500  0.15022700  0.86758600  1
  H  720  1  0.56662600  0.11887500  0.83644100  1
  H  721  1  0.61371700  0.21372700  0.87920900  1
  H  722  1  0.64520200  0.18262500  0.84771600  1
  H  723  1  0.69233100  0.13936100  0.83662000  1
  H  724  1  0.72375800  0.10809100  0.86791600  1
  H  725  1  0.64511500  0.04455700  0.87935100  1
  H  726  1  0.61376000  0.07557000  0.84771900  1
  H  727  1  0.63800800  0.06568500  0.79625300  1
  H  728  1  0.60568300  0.03506000  0.76524200  1
  H  729  1  0.54451500  0.11544700  0.75326200  1
  H  730  1  0.57669500  0.14615800  0.78469100  1
  H  731  1  0.62106500  0.19243700  0.79617800  1
  H  732  1  0.68248300  0.11198800  0.78485300  1
  H  733  1  0.71478400  0.14270200  0.75351400  1
  H  738  1  0.65350900  0.22305500  0.76522500  1
  H  764  1  0.03485100  0.60736000  0.76527700  1
  H  765  1  0.06639400  0.63868800  0.79644300  1
  H  766  1  0.11345800  0.54382500  0.75367500  1
  H  767  1  0.14493900  0.57489900  0.78518400  1
  H  768  1  0.19204700  0.61814500  0.79622400  1
  H  769  1  0.22346800  0.64942000  0.76493300  1
  H  770  1  0.14486300  0.71302400  0.75359600  1
  H  771  1  0.11351600  0.68200400  0.78522800  1
  H  772  1  0.13780900  0.69179900  0.83669700  1
  H  773  1  0.10551000  0.72242000  0.86773000  1
  H  774  1  0.04428300  0.64206800  0.87966300  1
  H  775  1  0.07644100  0.61136200  0.84821200  1
  H  776  1  0.12080400  0.56510200  0.83674100  1
  H  777  1  0.18227600  0.64551200  0.84801000  1
  H  778  1  0.21459600  0.61478400  0.87932600  1
  H  783  1  0.15326000  0.53446600  0.86767200  1
  H  809  1  0.72358400  0.65008000  0.26517000  1
  H  810  1  0.69200400  0.61875200  0.29631600  1
  H  811  1  0.64519000  0.71396600  0.25391900  1
  H  812  1  0.61367100  0.68288000  0.28539300  1
  H  813  1  0.56658800  0.63959600  0.29611300  1
  H  814  1  0.53514300  0.60833000  0.26482300  1
  H  815  1  0.61355700  0.54441300  0.25379900  1
  H  816  1  0.64493300  0.57543200  0.28541100  1
  H  817  1  0.62057400  0.56588800  0.33686800  1
  H  818  1  0.65287000  0.53523500  0.36788800  1
  H  819  1  0.71440100  0.61541800  0.37952400  1
  H  820  1  0.68223800  0.64615300  0.34810000  1
  H  821  1  0.63787800  0.69237200  0.33695600  1
  H  822  1  0.57610700  0.61212900  0.34790500  1
  H  823  1  0.54379600  0.64286500  0.37922600  1
  H  828  1  0.60543900  0.72301300  0.36790200  1
  H  854  1  0.85516100  0.47296400  0.51533200  1
  H  855  1  0.88758100  0.44236200  0.54627300  1
  H  856  1  0.79458600  0.39224700  0.50278900  1
  H  857  1  0.82684300  0.36155200  0.53417800  1
  H  858  1  0.87124000  0.31514200  0.54629800  1
  H  859  1  0.90371800  0.28448200  0.51541100  1
  H  860  1  0.96432200  0.36517200  0.50286800  1
  H  861  1  0.93199700  0.39592900  0.53416500  1
  H  862  1  0.94253800  0.36885500  0.58588400  1
  H  863  1  0.97400800  0.40024100  0.61704200  1
  H  864  1  0.89498300  0.46309400  0.62926100  1
  H  865  1  0.86356700  0.43197600  0.59772800  1
  H  866  1  0.81633900  0.38874500  0.58591800  1
  H  867  1  0.89528000  0.32558800  0.59775900  1
  H  868  1  0.86393300  0.29461300  0.62942700  1
  H  873  1  0.78492400  0.35749700  0.61722100  1
  H  899  1  0.90336500  0.78466300  0.01533960  1
  H  900  1  0.87101300  0.81528700  0.04632260  1
  H  901  1  0.96423500  0.86521000  0.00304262  1
  H  902  1  0.93203800  0.89591700  0.03446460  1
  H  903  1  0.88770400  0.94231200  0.04636460  1
  H  904  1  0.85527300  0.97301200  0.01547160  1
  H  905  1  0.79435400  0.89250700  0.00317562  1
  H  906  1  0.82664000  0.86171200  0.03447260  1
  H  907  1  0.81634900  0.88887500  0.08621260  1
  H  908  1  0.78483700  0.85753500  0.11737900  1
  H  909  1  0.86365900  0.79436300  0.12935000  1
  H  910  1  0.89511100  0.82543700  0.09781660  1
  H  911  1  0.94233400  0.86864200  0.08623560  1
  H  912  1  0.86359900  0.93210600  0.09784160  1
  H  913  1  0.89499500  0.96305900  0.12948700  1
  H  918  1  0.97380300  0.89986300  0.11752300  1
  H  944  1  0.35576200  0.28492200  0.11789100  1
  H  945  1  0.38810200  0.31555400  0.08689360  1
  H  946  1  0.29432300  0.36516800  0.12955400  1
  H  947  1  0.32652500  0.39588400  0.09813960  1
  H  948  1  0.37087300  0.44217300  0.08682060  1
  H  949  1  0.40324700  0.47288900  0.11775800  1
  H  950  1  0.46472900  0.39269700  0.12948100  1
  H  951  1  0.43248900  0.36188600  0.09816460  1
  H  952  1  0.44231100  0.38917600  0.04639160  1
  H  953  1  0.47385200  0.35783300  0.01523360  1
  H  954  1  0.39535600  0.29410000  0.00388362  1
  H  955  1  0.36387300  0.32519600  0.03538060  1
  H  956  1  0.31674600  0.36841700  0.04635560  1
  H  957  1  0.39514800  0.43243300  0.03531660  1
  H  958  1  0.36372800  0.46337200  0.00367562  1
  H  963  1  0.28525600  0.39960700  0.01504860  1
  H  989  1  0.40360700  0.97304500  0.61751700  1
  H  990  1  0.37119800  0.94247200  0.58654900  1
  H  991  1  0.46398400  0.89221500  0.63023900  1
  H  992  1  0.43173700  0.86155400  0.59881700  1
  H  993  1  0.38736600  0.81511700  0.58646500  1
  H  994  1  0.35487200  0.78444000  0.61732100  1
  H  995  1  0.29444900  0.86521800  0.63009600  1
  H  996  1  0.32678600  0.89599400  0.59881900  1
  H  997  1  0.31609300  0.86901400  0.54709800  1
  H  998  1  0.28464900  0.90041300  0.51593400  1
  H  999  1  0.36379300  0.96307100  0.50354900  1
  H  1000  1  0.39518200  0.93194900  0.53509600  1
  H  1001  1  0.44244600  0.88869900  0.54710600  1
  H  1002  1  0.36338200  0.82576200  0.53501300  1
  H  1003  1  0.39473200  0.79478400  0.50334900  1
  H  1008  1  0.47386600  0.85744100  0.51581800  1
  H  1021  1  0.07463800  0.96558300  0.13728500  1
  H  1022  1  0.93388900  0.03980200  0.24726800  1
  H  1024  1  0.07597700  0.01836600  0.22480400  1
  H  1026  1  0.93166800  0.98537400  0.16135900  1
  H  1039  1  0.68425600  0.29178900  0.63718700  1
  H  1040  1  0.82512300  0.21794500  0.74724400  1
  H  1042  1  0.68301700  0.23915600  0.72477300  1
  H  1044  1  0.82726900  0.27224300  0.66128000  1
  H  1057  1  0.18419000  0.46532500  0.99543700  1
  H  1058  1  0.32499000  0.54001400  0.88574000  1
  H  1060  1  0.18291000  0.51822700  0.90797600  1
  H  1062  1  0.32714900  0.48551500  0.97163300  1
  H  1075  1  0.57444900  0.79179800  0.49580600  1
  H  1076  1  0.43366700  0.71799500  0.38564800  1
  H  1078  1  0.57578000  0.73915300  0.40824100  1
  H  1080  1  0.43144100  0.77236600  0.47156000  1
  H  1093  1  0.32446800  0.71496700  0.74521500  1
  H  1094  1  0.18351600  0.79034200  0.63601200  1
  H  1096  1  0.32558100  0.76819400  0.65785900  1
  H  1098  1  0.18148200  0.73544300  0.72172400  1
  H  1111  1  0.82529000  0.54497500  0.38923200  1
  H  1112  1  0.68313100  0.46300400  0.49365000  1
  H  1114  1  0.82525400  0.48997900  0.47570500  1
  H  1116  1  0.68312600  0.51802900  0.40721000  1
  H  1129  1  0.43506900  0.22072900  0.88384100  1
  H  1130  1  0.57394400  0.28720900  0.99912900  1
  H  1132  1  0.43149200  0.27316200  0.97065600  1
  H  1134  1  0.57752700  0.23473500  0.91234800  1
  H  1147  1  0.07375600  0.47042800  0.63370300  1
  H  1148  1  0.93482300  0.53685400  0.74896400  1
  H  1150  1  0.07730200  0.52290200  0.72047000  1
  H  1152  1  0.93125700  0.48429000  0.66224700  1
  H  1165  1  0.68485900  0.78766100  0.13407100  1
  H  1166  1  0.82382800  0.72033700  0.24891000  1
  H  1168  1  0.68134100  0.73490600  0.22072400  1
  H  1170  1  0.82736400  0.77316200  0.16230500  1
  H  1183  1  0.18495000  0.97036200  0.49904800  1
  H  1184  1  0.32398400  0.03705400  0.38399100  1
  H  1186  1  0.18148700  0.02295600  0.41233500  1
  H  1188  1  0.32748300  0.98438200  0.47065600  1
  H  1201  1  0.32554500  0.21301300  0.24383400  1
  H  1202  1  0.18339100  0.29442200  0.13908800  1
  H  1204  1  0.32557400  0.26782200  0.15729400  1
  H  1206  1  0.18337200  0.23959800  0.22563600  1
  H  1219  1  0.82471600  0.04242600  0.88765000  1
  H  1220  1  0.68374300  0.96740700  0.99701600  1
  H  1222  1  0.82584400  0.98929600  0.97503400  1
  H  1224  1  0.68170600  0.02221600  0.91127900  1
  H  1237  1  0.57557500  0.96273300  0.63945100  1
  H  1238  1  0.43340400  0.04517900  0.74358300  1
  H  1240  1  0.57555800  0.01792500  0.72580600  1
  H  1242  1  0.43349600  0.99008500  0.65714000  1
  H  1255  1  0.07551900  0.79463000  0.99357900  1
  H  1256  1  0.93322400  0.71254300  0.88936600  1
  H  1258  1  0.07539800  0.73955700  0.90716400  1
  H  1260  1  0.93337400  0.76754800  0.97583300  1
  H  1273  1  0.93426400  0.21518800  0.38747700  1
  H  1274  1  0.07513700  0.29021200  0.49693300  1
  H  1276  1  0.93308900  0.26823800  0.47491500  1
  H  1278  1  0.07723600  0.23549900  0.41112800  1
  H  1291  1  0.57499900  0.46751900  0.13591000  1
  H  1292  1  0.43406700  0.54237100  0.24539800  1
  H  1294  1  0.57705500  0.52223700  0.22170100  1
  H  1296  1  0.43287100  0.48923200  0.15804800  1
  H  1322  1  0.22388100  0.10753900  0.55509400  1
  H  1323  1  0.19233300  0.13886100  0.52392300  1
  H  1324  1  0.14536200  0.04385200  0.56653400  1
  H  1325  1  0.11387300  0.07492500  0.53502900  1
  H  1326  1  0.06677300  0.11816800  0.52410000  1
  H  1327  1  0.03531800  0.14944200  0.55537300  1
  H  1328  1  0.11382000  0.21320200  0.56659400  1
  H  1329  1  0.14520600  0.18217900  0.53498800  1
  H  1330  1  0.12091400  0.19185400  0.48352200  1
  H  1331  1  0.15322900  0.22249000  0.45250800  1
  H  1332  1  0.21460200  0.14221600  0.44073400  1
  H  1333  1  0.18242700  0.11149400  0.47215900  1
  H  1334  1  0.13806400  0.06524000  0.48349100  1
  H  1335  1  0.07646300  0.14557000  0.47230800  1
  H  1336  1  0.04415000  0.11481300  0.44100400  1
  H  1341  1  0.10561900  0.03457700  0.45256800  1
  H  1367  1  0.53508500  0.15022700  0.05501920  1
  H  1368  1  0.56662600  0.11887500  0.02387420  1
  H  1369  1  0.61371700  0.21372700  0.06664220  1
  H  1370  1  0.64520200  0.18262500  0.03514920  1
  H  1371  1  0.69233100  0.13936100  0.02405320  1
  H  1372  1  0.72375800  0.10809100  0.05534920  1
  H  1373  1  0.64511500  0.04455700  0.06678420  1
  H  1374  1  0.61376000  0.07557000  0.03515220  1
  H  1375  1  0.63800800  0.06568500  0.98368600  1
  H  1376  1  0.60568300  0.03506000  0.95267500  1
  H  1377  1  0.54451500  0.11544700  0.94069500  1
  H  1378  1  0.57669500  0.14615800  0.97212400  1
  H  1379  1  0.62106500  0.19243700  0.98361100  1
  H  1380  1  0.68248300  0.11198800  0.97228600  1
  H  1381  1  0.71478400  0.14270200  0.94094700  1
  H  1386  1  0.65350900  0.22305500  0.95265800  1
  H  1412  1  0.03485100  0.60736000  0.95271000  1
  H  1413  1  0.06639400  0.63868800  0.98387600  1
  H  1414  1  0.11345800  0.54382500  0.94110800  1
  H  1415  1  0.14493900  0.57489900  0.97261700  1
  H  1416  1  0.19204700  0.61814500  0.98365700  1
  H  1417  1  0.22346800  0.64942000  0.95236600  1
  H  1418  1  0.14486300  0.71302400  0.94102900  1
  H  1419  1  0.11351600  0.68200400  0.97266100  1
  H  1420  1  0.13780900  0.69179900  0.02413020  1
  H  1421  1  0.10551000  0.72242000  0.05516320  1
  H  1422  1  0.04428300  0.64206800  0.06709620  1
  H  1423  1  0.07644100  0.61136200  0.03564520  1
  H  1424  1  0.12080400  0.56510200  0.02417420  1
  H  1425  1  0.18227600  0.64551200  0.03544320  1
  H  1426  1  0.21459600  0.61478400  0.06675920  1
  H  1431  1  0.15326000  0.53446600  0.05510520  1
  H  1457  1  0.72358400  0.65008000  0.45260300  1
  H  1458  1  0.69200400  0.61875200  0.48374900  1
  H  1459  1  0.64519000  0.71396600  0.44135200  1
  H  1460  1  0.61367100  0.68288000  0.47282600  1
  H  1461  1  0.56658800  0.63959600  0.48354600  1
  H  1462  1  0.53514300  0.60833000  0.45225600  1
  H  1463  1  0.61355700  0.54441300  0.44123200  1
  H  1464  1  0.64493300  0.57543200  0.47284400  1
  H  1465  1  0.62057400  0.56588800  0.52430100  1
  H  1466  1  0.65287000  0.53523500  0.55532100  1
  H  1467  1  0.71440100  0.61541800  0.56695700  1
  H  1468  1  0.68223800  0.64615300  0.53553300  1
  H  1469  1  0.63787800  0.69237200  0.52438900  1
  H  1470  1  0.57610700  0.61212900  0.53533800  1
  H  1471  1  0.54379600  0.64286500  0.56665900  1
  H  1476  1  0.60543900  0.72301300  0.55533500  1
  H  1502  1  0.85516100  0.47296400  0.70276500  1
  H  1503  1  0.88758100  0.44236200  0.73370600  1
  H  1504  1  0.79458600  0.39224700  0.69022200  1
  H  1505  1  0.82684300  0.36155200  0.72161100  1
  H  1506  1  0.87124000  0.31514200  0.73373100  1
  H  1507  1  0.90371800  0.28448200  0.70284400  1
  H  1508  1  0.96432200  0.36517200  0.69030100  1
  H  1509  1  0.93199700  0.39592900  0.72159800  1
  H  1510  1  0.94253800  0.36885500  0.77331700  1
  H  1511  1  0.97400800  0.40024100  0.80447500  1
  H  1512  1  0.89498300  0.46309400  0.81669400  1
  H  1513  1  0.86356700  0.43197600  0.78516100  1
  H  1514  1  0.81633900  0.38874500  0.77335100  1
  H  1515  1  0.89528000  0.32558800  0.78519200  1
  H  1516  1  0.86393300  0.29461300  0.81686000  1
  H  1521  1  0.78492400  0.35749700  0.80465400  1
  H  1547  1  0.90336500  0.78466300  0.20277300  1
  H  1548  1  0.87101300  0.81528700  0.23375600  1
  H  1549  1  0.96423500  0.86521000  0.19047600  1
  H  1550  1  0.93203800  0.89591700  0.22189800  1
  H  1551  1  0.88770400  0.94231200  0.23379800  1
  H  1552  1  0.85527300  0.97301200  0.20290500  1
  H  1553  1  0.79435400  0.89250700  0.19060900  1
  H  1554  1  0.82664000  0.86171200  0.22190600  1
  H  1555  1  0.81634900  0.88887500  0.27364600  1
  H  1556  1  0.78483700  0.85753500  0.30481200  1
  H  1557  1  0.86365900  0.79436300  0.31678300  1
  H  1558  1  0.89511100  0.82543700  0.28525000  1
  H  1559  1  0.94233400  0.86864200  0.27366900  1
  H  1560  1  0.86359900  0.93210600  0.28527500  1
  H  1561  1  0.89499500  0.96305900  0.31692000  1
  H  1566  1  0.97380300  0.89986300  0.30495600  1
  H  1592  1  0.35576200  0.28492200  0.30532400  1
  H  1593  1  0.38810200  0.31555400  0.27432700  1
  H  1594  1  0.29432300  0.36516800  0.31698700  1
  H  1595  1  0.32652500  0.39588400  0.28557300  1
  H  1596  1  0.37087300  0.44217300  0.27425400  1
  H  1597  1  0.40324700  0.47288900  0.30519100  1
  H  1598  1  0.46472900  0.39269700  0.31691400  1
  H  1599  1  0.43248900  0.36188600  0.28559800  1
  H  1600  1  0.44231100  0.38917600  0.23382500  1
  H  1601  1  0.47385200  0.35783300  0.20266700  1
  H  1602  1  0.39535600  0.29410000  0.19131700  1
  H  1603  1  0.36387300  0.32519600  0.22281400  1
  H  1604  1  0.31674600  0.36841700  0.23378900  1
  H  1605  1  0.39514800  0.43243300  0.22275000  1
  H  1606  1  0.36372800  0.46337200  0.19110900  1
  H  1611  1  0.28525600  0.39960700  0.20248200  1
  H  1637  1  0.40360700  0.97304500  0.80495000  1
  H  1638  1  0.37119800  0.94247200  0.77398200  1
  H  1639  1  0.46398400  0.89221500  0.81767200  1
  H  1640  1  0.43173700  0.86155400  0.78625000  1
  H  1641  1  0.38736600  0.81511700  0.77389800  1
  H  1642  1  0.35487200  0.78444000  0.80475400  1
  H  1643  1  0.29444900  0.86521800  0.81752900  1
  H  1644  1  0.32678600  0.89599400  0.78625200  1
  H  1645  1  0.31609300  0.86901400  0.73453100  1
  H  1646  1  0.28464900  0.90041300  0.70336700  1
  H  1647  1  0.36379300  0.96307100  0.69098200  1
  H  1648  1  0.39518200  0.93194900  0.72252900  1
  H  1649  1  0.44244600  0.88869900  0.73453900  1
  H  1650  1  0.36338200  0.82576200  0.72244600  1
  H  1651  1  0.39473200  0.79478400  0.69078200  1
  H  1656  1  0.47386600  0.85744100  0.70325100  1
  H  1669  1  0.07463800  0.96558300  0.32471800  1
  H  1670  1  0.93388900  0.03980200  0.43470100  1
  H  1672  1  0.07597700  0.01836600  0.41223700  1
  H  1674  1  0.93166800  0.98537400  0.34879200  1
  H  1687  1  0.68425600  0.29178900  0.82462000  1
  H  1688  1  0.82512300  0.21794500  0.93467700  1
  H  1690  1  0.68301700  0.23915600  0.91220600  1
  H  1692  1  0.82726900  0.27224300  0.84871300  1
  H  1705  1  0.18419000  0.46532500  0.18287000  1
  H  1706  1  0.32499000  0.54001400  0.07317320  1
  H  1708  1  0.18291000  0.51822700  0.09540920  1
  H  1710  1  0.32714900  0.48551500  0.15906600  1
  H  1723  1  0.57444900  0.79179800  0.68323900  1
  H  1724  1  0.43366700  0.71799500  0.57308100  1
  H  1726  1  0.57578000  0.73915300  0.59567400  1
  H  1728  1  0.43144100  0.77236600  0.65899300  1
  H  1741  1  0.32446800  0.71496700  0.93264800  1
  H  1742  1  0.18351600  0.79034200  0.82344500  1
  H  1744  1  0.32558100  0.76819400  0.84529200  1
  H  1746  1  0.18148200  0.73544300  0.90915700  1
  H  1759  1  0.82529000  0.54497500  0.57666500  1
  H  1760  1  0.68313100  0.46300400  0.68108300  1
  H  1762  1  0.82525400  0.48997900  0.66313800  1
  H  1764  1  0.68312600  0.51802900  0.59464300  1
  H  1777  1  0.43506900  0.22072900  0.07127420  1
  H  1778  1  0.57394400  0.28720900  0.18656200  1
  H  1780  1  0.43149200  0.27316200  0.15808900  1
  H  1782  1  0.57752700  0.23473500  0.09978120  1
  H  1795  1  0.07375600  0.47042800  0.82113600  1
  H  1796  1  0.93482300  0.53685400  0.93639700  1
  H  1798  1  0.07730200  0.52290200  0.90790300  1
  H  1800  1  0.93125700  0.48429000  0.84968000  1
  H  1813  1  0.68485900  0.78766100  0.32150400  1
  H  1814  1  0.82382800  0.72033700  0.43634300  1
  H  1816  1  0.68134100  0.73490600  0.40815700  1
  H  1818  1  0.82736400  0.77316200  0.34973800  1
  H  1831  1  0.18495000  0.97036200  0.68648100  1
  H  1832  1  0.32398400  0.03705400  0.57142400  1
  H  1834  1  0.18148700  0.02295600  0.59976800  1
  H  1836  1  0.32748300  0.98438200  0.65808900  1
  H  1849  1  0.32554500  0.21301300  0.43126700  1
  H  1850  1  0.18339100  0.29442200  0.32652100  1
  H  1852  1  0.32557400  0.26782200  0.34472700  1
  H  1854  1  0.18337200  0.23959800  0.41306900  1
  H  1867  1  0.82471600  0.04242600  0.07508320  1
  H  1868  1  0.68374300  0.96740700  0.18444900  1
  H  1870  1  0.82584400  0.98929600  0.16246700  1
  H  1872  1  0.68170600  0.02221600  0.09871220  1
  H  1885  1  0.57557500  0.96273300  0.82688400  1
  H  1886  1  0.43340400  0.04517900  0.93101600  1
  H  1888  1  0.57555800  0.01792500  0.91323900  1
  H  1890  1  0.43349600  0.99008500  0.84457300  1
  H  1903  1  0.07551900  0.79463000  0.18101200  1
  H  1904  1  0.93322400  0.71254300  0.07679920  1
  H  1906  1  0.07539800  0.73955700  0.09459720  1
  H  1908  1  0.93337400  0.76754800  0.16326600  1
  H  1921  1  0.93426400  0.21518800  0.57491000  1
  H  1922  1  0.07513700  0.29021200  0.68436600  1
  H  1924  1  0.93308900  0.26823800  0.66234800  1
  H  1926  1  0.07723600  0.23549900  0.59856100  1
  H  1939  1  0.57499900  0.46751900  0.32334300  1
  H  1940  1  0.43406700  0.54237100  0.43283100  1
  H  1942  1  0.57705500  0.52223700  0.40913400  1
  H  1944  1  0.43287100  0.48923200  0.34548100  1
  C  1  1  0.07145100  0.07160000  0.06903700  1
  C  2  1  0.06377500  0.10400600  0.07523200  1
  C  3  1  0.08289800  0.12205500  0.09384600  1
  C  4  1  0.10954600  0.10818700  0.10832300  1
  C  5  1  0.11793200  0.07606900  0.10057700  1
  C  6  1  0.09910500  0.05795600  0.08175100  1
  C  7  1  0.12950600  0.12854300  0.12876200  1
  C  8  1  0.14941100  0.14889400  0.10828000  1
  C  9  1  0.17599100  0.13501400  0.09372200  1
  C  10  1  0.19503700  0.15304700  0.07503700  1
  C  11  1  0.18737500  0.18546800  0.06887700  1
  C  12  1  0.15977800  0.19912000  0.08167900  1
  C  13  1  0.14101900  0.18101900  0.10056300  1
  C  14  1  0.10875800  0.14815700  0.14917400  1
  C  15  1  0.15030700  0.10893000  0.14913300  1
  C  16  1  0.18211800  0.11835600  0.15700800  1
  C  17  1  0.20079900  0.10012700  0.17582900  1
  C  18  1  0.18807100  0.07225300  0.18865800  1
  C  19  1  0.15572800  0.06365700  0.18260200  1
  C  20  1  0.13720300  0.08200900  0.16372600  1
  C  21  1  0.07698700  0.13869800  0.15714100  1
  C  22  1  0.05836000  0.15690400  0.17601700  1
  C  23  1  0.07108600  0.18482100  0.18878100  1
  C  24  1  0.10340400  0.19344000  0.18264000  1
  C  25  1  0.12188400  0.17509500  0.16372600  1
  C  46  1  0.68756200  0.18596000  0.56903100  1
  C  47  1  0.69519600  0.15353800  0.57520600  1
  C  48  1  0.67606800  0.13551000  0.59383300  1
  C  49  1  0.64948300  0.14942100  0.60836100  1
  C  50  1  0.64115600  0.18156900  0.60065800  1
  C  51  1  0.65997700  0.19965500  0.58181000  1
  C  52  1  0.62952000  0.12907800  0.62881000  1
  C  53  1  0.60960800  0.10870700  0.60834700  1
  C  54  1  0.58310500  0.12262700  0.59370800  1
  C  55  1  0.56404000  0.10459200  0.57504000  1
  C  56  1  0.57164000  0.07214200  0.56893800  1
  C  57  1  0.59917900  0.05845100  0.58180400  1
  C  58  1  0.61794400  0.07655000  0.60068300  1
  C  59  1  0.65027900  0.10946900  0.64921800  1
  C  60  1  0.60872200  0.14871000  0.64917200  1
  C  61  1  0.57687100  0.13934900  0.65698800  1
  C  62  1  0.55818900  0.15759800  0.67579400  1
  C  63  1  0.57095300  0.18542300  0.68867200  1
  C  64  1  0.60332600  0.19396000  0.68267000  1
  C  65  1  0.62185200  0.17558700  0.66380800  1
  C  66  1  0.68207900  0.11887500  0.65714000  1
  C  67  1  0.70069100  0.10067100  0.67603100  1
  C  68  1  0.68791700  0.07281700  0.68886000  1
  C  69  1  0.65556800  0.06426500  0.68277400  1
  C  70  1  0.63710800  0.08260500  0.66384400  1
  C  91  1  0.18736000  0.57153400  0.68895400  1
  C  92  1  0.19499500  0.60395500  0.68278100  1
  C  93  1  0.17585100  0.62199400  0.66417500  1
  C  94  1  0.14925500  0.60809300  0.64965100  1
  C  95  1  0.14090900  0.57595700  0.65737700  1
  C  96  1  0.15973900  0.55786000  0.67621200  1
  C  97  1  0.12927700  0.62844500  0.62922300  1
  C  98  1  0.10937300  0.64880000  0.64970300  1
  C  99  1  0.08284800  0.63489600  0.66432100  1
  C  100  1  0.06381000  0.65292100  0.68301800  1
  C  101  1  0.07142900  0.68536200  0.68913500  1
  C  102  1  0.09898500  0.69903800  0.67628500  1
  C  103  1  0.11773500  0.68094400  0.65739200  1
  C  104  1  0.15001600  0.64806900  0.60881300  1
  C  105  1  0.10846500  0.60881900  0.60887200  1
  C  106  1  0.07663100  0.61820800  0.60103100  1
  C  107  1  0.05794800  0.59997500  0.58221400  1
  C  108  1  0.07070300  0.57214300  0.56933800  1
  C  109  1  0.10307000  0.56359200  0.57534800  1
  C  110  1  0.12159000  0.58194800  0.59422500  1
  C  111  1  0.18180200  0.63864700  0.60085800  1
  C  112  1  0.20041100  0.65685300  0.58196900  1
  C  113  1  0.18764900  0.68473100  0.56917100  1
  C  114  1  0.15531200  0.69330100  0.57528300  1
  C  115  1  0.13685400  0.67495500  0.59421200  1
  C  136  1  0.57118500  0.68603200  0.18901600  1
  C  137  1  0.56345700  0.65365700  0.18274400  1
  C  138  1  0.58257700  0.63562200  0.16411600  1
  C  139  1  0.60927400  0.64948000  0.14970100  1
  C  140  1  0.61771200  0.68156100  0.15752500  1
  C  141  1  0.59889100  0.69965500  0.17636700  1
  C  142  1  0.62924900  0.62914500  0.12925800  1
  C  143  1  0.64915100  0.60879200  0.14974100  1
  C  144  1  0.67576800  0.62265000  0.16426600  1
  C  145  1  0.69480900  0.60460600  0.18294700  1
  C  146  1  0.68710700  0.57220400  0.18913600  1
  C  147  1  0.65946600  0.55858300  0.17637500  1
  C  148  1  0.64070900  0.57669500  0.15750000  1
  C  149  1  0.60852100  0.60953800  0.10882900  1
  C  150  1  0.65004600  0.64877800  0.10890100  1
  C  151  1  0.68182500  0.63929800  0.10097400  1
  C  152  1  0.70052400  0.65753300  0.08217100  1
  C  153  1  0.68784500  0.68546900  0.06940800  1
  C  154  1  0.65552700  0.69412400  0.07551100  1
  C  155  1  0.63698200  0.67575800  0.09436500  1
  C  156  1  0.57678400  0.61904200  0.10080100  1
  C  157  1  0.55816500  0.60083900  0.08191600  1
  C  158  1  0.57086800  0.57287900  0.06920700  1
  C  159  1  0.60315700  0.56421200  0.07540900  1
  C  160  1  0.62163600  0.58256300  0.09431900  1
  C  181  1  0.82095600  0.32255100  0.43856100  1
  C  182  1  0.85340500  0.31417400  0.43268400  1
  C  183  1  0.87186500  0.33249900  0.41374300  1
  C  184  1  0.85861700  0.35916700  0.39890200  1
  C  185  1  0.82668100  0.36838600  0.40658900  1
  C  186  1  0.80807400  0.35020600  0.42549700  1
  C  187  1  0.87942400  0.37876400  0.37852000  1
  C  188  1  0.90022900  0.39838600  0.39889000  1
  C  189  1  0.88697800  0.42506800  0.41371800  1
  C  190  1  0.90547000  0.44346000  0.43259000  1
  C  191  1  0.93793500  0.43512900  0.43842200  1
  C  192  1  0.95083000  0.40747400  0.42536800  1
  C  193  1  0.93218600  0.38921200  0.40654500  1
  C  194  1  0.89934500  0.35835600  0.35808300  1
  C  195  1  0.85949500  0.39913300  0.35806500  1
  C  196  1  0.86762300  0.43140700  0.35060300  1
  C  197  1  0.84880500  0.44950200  0.33175700  1
  C  198  1  0.82141800  0.43570500  0.31873700  1
  C  199  1  0.81400700  0.40316900  0.32466800  1
  C  200  1  0.83312000  0.38514200  0.34330500  1
  C  201  1  0.89120300  0.32608400  0.35062400  1
  C  202  1  0.91004100  0.30796300  0.33181100  1
  C  203  1  0.93745100  0.32173800  0.31881600  1
  C  204  1  0.94487000  0.35427600  0.32472400  1
  C  205  1  0.92573300  0.37233000  0.34332600  1
  C  226  1  0.93788000  0.93496100  0.93874000  1
  C  227  1  0.90547200  0.94343500  0.93280200  1
  C  228  1  0.88697800  0.92512000  0.91387600  1
  C  229  1  0.90016600  0.89837500  0.89910000  1
  C  230  1  0.93204800  0.88905400  0.90685700  1
  C  231  1  0.95069000  0.90722400  0.92575100  1
  C  232  1  0.87935400  0.87878800  0.87871500  1
  C  233  1  0.85854400  0.85917800  0.89908700  1
  C  234  1  0.87172400  0.83240600  0.91383800  1
  C  235  1  0.85321600  0.81404500  0.93272100  1
  C  236  1  0.82079600  0.82248800  0.93863000  1
  C  237  1  0.80797400  0.85022000  0.92564700  1
  C  238  1  0.82664200  0.86845800  0.90682200  1
  C  239  1  0.85944400  0.89919500  0.85827500  1
  C  240  1  0.89926800  0.85840100  0.85826600  1
  C  241  1  0.89102600  0.82618800  0.85070200  1
  C  242  1  0.90981100  0.80808600  0.83184000  1
  C  243  1  0.93726700  0.82182500  0.81888500  1
  C  244  1  0.94477600  0.85432200  0.82488700  1
  C  245  1  0.92571100  0.87234600  0.84356300  1
  C  246  1  0.86768800  0.93141900  0.85073800  1
  C  247  1  0.84887700  0.94956000  0.83191700  1
  C  248  1  0.82138200  0.93585700  0.81900300  1
  C  249  1  0.81386200  0.90335700  0.82498000  1
  C  250  1  0.83298000  0.88528000  0.84358000  1
  C  271  1  0.32100800  0.43497700  0.81925700  1
  C  272  1  0.35332300  0.44362900  0.82537200  1
  C  273  1  0.37182200  0.42533900  0.84430900  1
  C  274  1  0.35872400  0.39841700  0.85890200  1
  C  275  1  0.32694600  0.38893400  0.85097700  1
  C  276  1  0.30829700  0.40708900  0.83208000  1
  C  277  1  0.37950700  0.37884100  0.87931100  1
  C  278  1  0.40030400  0.35922000  0.85894300  1
  C  279  1  0.38719900  0.33228600  0.84436500  1
  C  280  1  0.40572000  0.31391800  0.82549700  1
  C  281  1  0.43805400  0.32252000  0.81941800  1
  C  282  1  0.45077700  0.35041700  0.83221500  1
  C  283  1  0.43210000  0.36865900  0.85102900  1
  C  284  1  0.39941900  0.39924500  0.89975200  1
  C  285  1  0.35958000  0.35849600  0.89978100  1
  C  286  1  0.36797900  0.32638200  0.90752600  1
  C  287  1  0.34920000  0.30828200  0.92639400  1
  C  288  1  0.32157600  0.32192700  0.93915900  1
  C  289  1  0.31390600  0.35434200  0.93297500  1
  C  290  1  0.33297300  0.37237300  0.91430500  1
  C  291  1  0.39099600  0.43136100  0.90747200  1
  C  292  1  0.40978000  0.44950700  0.92630500  1
  C  293  1  0.43741100  0.43589100  0.93907700  1
  C  294  1  0.44511500  0.40348100  0.93291900  1
  C  295  1  0.42603100  0.38540100  0.91429600  1
  C  316  1  0.43776900  0.82260900  0.31948000  1
  C  317  1  0.40528700  0.81429900  0.32527600  1
  C  318  1  0.38681700  0.83262900  0.34420900  1
  C  319  1  0.40009400  0.85922900  0.35912300  1
  C  320  1  0.43207500  0.86838500  0.35151700  1
  C  321  1  0.45068800  0.85019800  0.33261700  1
  C  322  1  0.37927700  0.87881700  0.37950500  1
  C  323  1  0.35847000  0.89845000  0.35914100  1
  C  324  1  0.37175200  0.92508200  0.34427200  1
  C  325  1  0.35327200  0.94348600  0.32539700  1
  C  326  1  0.32078300  0.93520600  0.31960300  1
  C  327  1  0.30784700  0.90760600  0.33270900  1
  C  328  1  0.32647600  0.88933800  0.35153800  1
  C  329  1  0.35935100  0.85839200  0.39992900  1
  C  330  1  0.39919600  0.89919300  0.39996200  1
  C  331  1  0.39111700  0.93148900  0.40739100  1
  C  332  1  0.40993000  0.94956700  0.42624900  1
  C  333  1  0.43725600  0.93573100  0.43933000  1
  C  334  1  0.44460900  0.90316900  0.43344400  1
  C  335  1  0.42550100  0.88516100  0.41479000  1
  C  336  1  0.36743700  0.82607900  0.40731200  1
  C  337  1  0.34859000  0.80794500  0.42610900  1
  C  338  1  0.32123000  0.82174000  0.43916500  1
  C  339  1  0.31386500  0.85431000  0.43333000  1
  C  340  1  0.33301200  0.87237300  0.41474000  1
  C  361  1  0.02979600  0.01723100  0.02139000  1
  C  362  1  0.03651500  0.99885900  0.99718400  1
  C  363  1  0.01177500  0.98515100  0.98113500  1
  C  364  1  0.97859900  0.98843200  0.98803300  1
  C  365  1  0.97191300  0.00685900  0.01223600  1
  C  366  1  0.99664700  0.02057400  0.02827400  1
  C  369  1  0.05787100  0.97465700  0.96335600  1
  C  372  1  0.95062700  0.03088500  0.04622400  1
  C  375  1  0.05474800  0.02965900  0.03755200  1
  C  377  1  0.95352100  0.97558600  0.97218200  1
  C  379  1  0.72918600  0.24028100  0.52132800  1
  C  380  1  0.72243500  0.25862000  0.49710700  1
  C  381  1  0.74715200  0.27233200  0.48103800  1
  C  382  1  0.78033400  0.26910200  0.48793300  1
  C  383  1  0.78705100  0.25073400  0.51216400  1
  C  384  1  0.76233600  0.23699700  0.52821300  1
  C  387  1  0.70104000  0.28274700  0.46326100  1
  C  390  1  0.80837600  0.22675500  0.54615800  1
  C  393  1  0.70425100  0.22786800  0.53751800  1
  C  395  1  0.80539200  0.28196800  0.47206800  1
  C  397  1  0.22906000  0.51719100  0.73659300  1
  C  398  1  0.22233300  0.49875100  0.76075900  1
  C  399  1  0.24707100  0.48507200  0.77682900  1
  C  400  1  0.28025200  0.48846200  0.76999800  1
  C  401  1  0.28694800  0.50693400  0.74582100  1
  C  402  1  0.26221300  0.52060600  0.72975600  1
  C  405  1  0.20096300  0.47443500  0.79452000  1
  C  408  1  0.30825100  0.53109000  0.71191000  1
  C  411  1  0.20411200  0.52957300  0.72040100  1
  C  413  1  0.30532500  0.47564500  0.78586900  1
  C  415  1  0.52957800  0.74034800  0.23673900  1
  C  416  1  0.53630700  0.75865300  0.26098200  1
  C  417  1  0.51158000  0.77238000  0.27703100  1
  C  418  1  0.47840300  0.76916000  0.27011300  1
  C  419  1  0.47170600  0.75080400  0.24587100  1
  C  420  1  0.49643300  0.73708900  0.22982300  1
  C  423  1  0.55767800  0.78278000  0.29484300  1
  C  426  1  0.45041000  0.72687000  0.21183900  1
  C  429  1  0.55452500  0.72791100  0.22057600  1
  C  431  1  0.45333300  0.78204700  0.28594900  1
  C  433  1  0.27950200  0.76720700  0.48661900  1
  C  434  1  0.28626000  0.74866500  0.51072100  1
  C  435  1  0.26154100  0.73495000  0.52678800  1
  C  436  1  0.22834900  0.73838800  0.52001100  1
  C  437  1  0.22162300  0.75698600  0.49591200  1
  C  438  1  0.24633700  0.77071100  0.47985700  1
  C  441  1  0.30767500  0.72418400  0.54437100  1
  C  444  1  0.20027900  0.78128700  0.46209600  1
  C  447  1  0.30442500  0.77963000  0.47042500  1
  C  449  1  0.20329500  0.72553400  0.53588700  1
  C  451  1  0.77963000  0.49008100  0.27115000  1
  C  452  1  0.78662300  0.50934400  0.24751600  1
  C  453  1  0.76204300  0.52254600  0.23098700  1
  C  454  1  0.72878400  0.51786400  0.23683900  1
  C  455  1  0.72179400  0.49860100  0.26047600  1
  C  456  1  0.74637100  0.48537900  0.27699100  1
  C  459  1  0.80835700  0.53504200  0.21468800  1
  C  462  1  0.70006200  0.47288400  0.29329400  1
  C  465  1  0.80439800  0.47803100  0.28772500  1
  C  467  1  0.70401300  0.52992400  0.22026800  1
  C  469  1  0.47878100  0.26894500  0.77023700  1
  C  470  1  0.47241000  0.25135800  0.74551700  1
  C  471  1  0.49726000  0.23707800  0.72997000  1
  C  472  1  0.53023400  0.23898800  0.73786900  1
  C  473  1  0.53660200  0.25656600  0.76259400  1
  C  474  1  0.51175200  0.27084000  0.77814300  1
  C  477  1  0.45158300  0.22876300  0.71061500  1
  C  480  1  0.55742900  0.27916300  0.79749600  1
  C  483  1  0.45357200  0.28221900  0.78566700  1
  C  485  1  0.55544200  0.22570000  0.72244800  1
  C  487  1  0.03000700  0.51862200  0.52009000  1
  C  488  1  0.03638500  0.50107400  0.49535100  1
  C  489  1  0.01154600  0.48678500  0.47980100  1
  C  490  1  0.97857000  0.48866300  0.48770200  1
  C  491  1  0.97219100  0.50622300  0.51243500  1
  C  492  1  0.99703200  0.52050200  0.52799200  1
  C  495  1  0.05723300  0.47847800  0.46046000  1
  C  498  1  0.95135000  0.52878000  0.54735200  1
  C  501  1  0.05521000  0.53191100  0.53552000  1
  C  503  1  0.95336800  0.47534500  0.47228700  1
  C  505  1  0.72861500  0.73905100  0.02025400  1
  C  506  1  0.72223600  0.75672200  0.99558000  1
  C  507  1  0.74708900  0.77097400  0.98002100  1
  C  508  1  0.78007500  0.76896400  0.98786400  1
  C  509  1  0.78645300  0.75127500  0.01253000  1
  C  510  1  0.76160000  0.73701600  0.02808600  1
  C  513  1  0.70138800  0.77948700  0.96077000  1
  C  516  1  0.80729900  0.72851500  0.04734500  1
  C  519  1  0.70340100  0.72579100  0.03569100  1
  C  521  1  0.80528800  0.78222100  0.97242400  1
  C  523  1  0.22876600  0.01872800  0.23790300  1
  C  524  1  0.22236600  0.00111900  0.26260700  1
  C  525  1  0.24719600  0.98683500  0.27817200  1
  C  526  1  0.28018000  0.98873700  0.27030000  1
  C  527  1  0.28657700  0.00634900  0.24559600  1
  C  528  1  0.26174900  0.02065100  0.23004100  1
  C  531  1  0.20149100  0.97848200  0.29746700  1
  C  534  1  0.30745200  0.02899600  0.21073800  1
  C  537  1  0.20357100  0.03199800  0.22245200  1
  C  539  1  0.30537100  0.97542900  0.28573400  1
  C  541  1  0.27989200  0.26760700  0.98687100  1
  C  542  1  0.28688200  0.24840900  0.01054400  1
  C  543  1  0.26230500  0.23518400  0.02705900  1
  C  544  1  0.22904500  0.23981100  0.02117300  1
  C  545  1  0.22205300  0.25900500  0.99749600  1
  C  546  1  0.24663300  0.27221900  0.98097500  1
  C  549  1  0.30861400  0.22281800  0.04343600  1
  C  552  1  0.20032200  0.28460000  0.96460800  1
  C  555  1  0.30466700  0.27968400  0.97031400  1
  C  557  1  0.20427100  0.22772200  0.03772500  1
  C  559  1  0.77973400  0.99036600  0.77146800  1
  C  560  1  0.78649700  0.00885100  0.74733500  1
  C  561  1  0.76178400  0.02258100  0.73127000  1
  C  562  1  0.72859300  0.01919100  0.73806500  1
  C  563  1  0.72186100  0.00065700  0.76220000  1
  C  564  1  0.74657100  0.98693700  0.77826300  1
  C  567  1  0.80792100  0.03326400  0.71365100  1
  C  570  1  0.70051000  0.97643300  0.79605100  1
  C  573  1  0.80465400  0.97792400  0.78765800  1
  C  575  1  0.70354200  0.03206300  0.72219600  1
  C  577  1  0.52991400  0.01778800  0.52127800  1
  C  578  1  0.53690700  0.99848400  0.49766500  1
  C  579  1  0.51233000  0.98531300  0.48111900  1
  C  580  1  0.47907100  0.99008000  0.48692100  1
  C  581  1  0.47207800  0.00940100  0.51052100  1
  C  582  1  0.49665500  0.02258000  0.52706500  1
  C  585  1  0.55864100  0.97269900  0.46488900  1
  C  588  1  0.45033900  0.03519900  0.54328600  1
  C  591  1  0.55468300  0.02984300  0.53785500  1
  C  593  1  0.45430800  0.97806600  0.47032100  1
  C  595  1  0.02977300  0.73969500  0.73685700  1
  C  596  1  0.03679600  0.75897000  0.76047800  1
  C  597  1  0.01223800  0.77216500  0.77703500  1
  C  598  1  0.97897100  0.76746300  0.77122400  1
  C  599  1  0.97194900  0.74818800  0.74760400  1
  C  600  1  0.99650700  0.73497100  0.73105900  1
  C  603  1  0.05857000  0.78468700  0.79327700  1
  C  606  1  0.95017200  0.72244000  0.71482600  1
  C  609  1  0.05452300  0.72764200  0.72025900  1
  C  611  1  0.95422500  0.77950400  0.78782900  1
  C  613  1  0.97918400  0.26726600  0.27131400  1
  C  614  1  0.97244000  0.24875700  0.24718900  1
  C  615  1  0.99716800  0.23504400  0.23113100  1
  C  616  1  0.03035600  0.23846300  0.23793200  1
  C  617  1  0.03706600  0.25700400  0.26206700  1
  C  618  1  0.01234100  0.27071100  0.27812200  1
  C  621  1  0.95104500  0.22434400  0.21349300  1
  C  624  1  0.05838900  0.28125200  0.29592000  1
  C  627  1  0.95424900  0.27966400  0.28751100  1
  C  629  1  0.05541900  0.22560500  0.22207300  1
  C  631  1  0.53017100  0.51922400  0.02004400  1
  C  632  1  0.53689500  0.50072000  0.99589300  1
  C  633  1  0.51218300  0.48697900  0.97984400  1
  C  634  1  0.47902300  0.49038300  0.98665800  1
  C  635  1  0.47226700  0.50886300  0.01079800  1
  C  636  1  0.49698200  0.52259200  0.02685900  1
  C  639  1  0.55824200  0.47648000  0.96204600  1
  C  642  1  0.45085700  0.53322000  0.04451800  1
  C  645  1  0.55522500  0.53209700  0.03590700  1
  C  647  1  0.45409200  0.47791900  0.97048900  1
  C  649  1  0.07145100  0.07160000  0.25647100  1
  C  650  1  0.06377500  0.10400600  0.26266600  1
  C  651  1  0.08289800  0.12205500  0.28128000  1
  C  652  1  0.10954600  0.10818700  0.29575700  1
  C  653  1  0.11793200  0.07606900  0.28801100  1
  C  654  1  0.09910500  0.05795600  0.26918500  1
  C  655  1  0.12950600  0.12854300  0.31619600  1
  C  656  1  0.14941100  0.14889400  0.29571400  1
  C  657  1  0.17599100  0.13501400  0.28115600  1
  C  658  1  0.19503700  0.15304700  0.26247100  1
  C  659  1  0.18737500  0.18546800  0.25631100  1
  C  660  1  0.15977800  0.19912000  0.26911300  1
  C  661  1  0.14101900  0.18101900  0.28799700  1
  C  662  1  0.10875800  0.14815700  0.33660800  1
  C  663  1  0.15030700  0.10893000  0.33656700  1
  C  664  1  0.18211800  0.11835600  0.34444200  1
  C  665  1  0.20079900  0.10012700  0.36326300  1
  C  666  1  0.18807100  0.07225300  0.37609200  1
  C  667  1  0.15572800  0.06365700  0.37003600  1
  C  668  1  0.13720300  0.08200900  0.35116000  1
  C  669  1  0.07698700  0.13869800  0.34457500  1
  C  670  1  0.05836000  0.15690400  0.36345100  1
  C  671  1  0.07108600  0.18482100  0.37621500  1
  C  672  1  0.10340400  0.19344000  0.37007400  1
  C  673  1  0.12188400  0.17509500  0.35116000  1
  C  694  1  0.68756200  0.18596000  0.75646500  1
  C  695  1  0.69519600  0.15353800  0.76264000  1
  C  696  1  0.67606800  0.13551000  0.78126700  1
  C  697  1  0.64948300  0.14942100  0.79579500  1
  C  698  1  0.64115600  0.18156900  0.78809200  1
  C  699  1  0.65997700  0.19965500  0.76924400  1
  C  700  1  0.62952000  0.12907800  0.81624400  1
  C  701  1  0.60960800  0.10870700  0.79578100  1
  C  702  1  0.58310500  0.12262700  0.78114200  1
  C  703  1  0.56404000  0.10459200  0.76247400  1
  C  704  1  0.57164000  0.07214200  0.75637200  1
  C  705  1  0.59917900  0.05845100  0.76923800  1
  C  706  1  0.61794400  0.07655000  0.78811700  1
  C  707  1  0.65027900  0.10946900  0.83665200  1
  C  708  1  0.60872200  0.14871000  0.83660600  1
  C  709  1  0.57687100  0.13934900  0.84442200  1
  C  710  1  0.55818900  0.15759800  0.86322800  1
  C  711  1  0.57095300  0.18542300  0.87610600  1
  C  712  1  0.60332600  0.19396000  0.87010400  1
  C  713  1  0.62185200  0.17558700  0.85124200  1
  C  714  1  0.68207900  0.11887500  0.84457400  1
  C  715  1  0.70069100  0.10067100  0.86346500  1
  C  716  1  0.68791700  0.07281700  0.87629400  1
  C  717  1  0.65556800  0.06426500  0.87020800  1
  C  718  1  0.63710800  0.08260500  0.85127800  1
  C  739  1  0.18736000  0.57153400  0.87638800  1
  C  740  1  0.19499500  0.60395500  0.87021500  1
  C  741  1  0.17585100  0.62199400  0.85160900  1
  C  742  1  0.14925500  0.60809300  0.83708500  1
  C  743  1  0.14090900  0.57595700  0.84481100  1
  C  744  1  0.15973900  0.55786000  0.86364600  1
  C  745  1  0.12927700  0.62844500  0.81665700  1
  C  746  1  0.10937300  0.64880000  0.83713700  1
  C  747  1  0.08284800  0.63489600  0.85175500  1
  C  748  1  0.06381000  0.65292100  0.87045200  1
  C  749  1  0.07142900  0.68536200  0.87656900  1
  C  750  1  0.09898500  0.69903800  0.86371900  1
  C  751  1  0.11773500  0.68094400  0.84482600  1
  C  752  1  0.15001600  0.64806900  0.79624700  1
  C  753  1  0.10846500  0.60881900  0.79630600  1
  C  754  1  0.07663100  0.61820800  0.78846500  1
  C  755  1  0.05794800  0.59997500  0.76964800  1
  C  756  1  0.07070300  0.57214300  0.75677200  1
  C  757  1  0.10307000  0.56359200  0.76278200  1
  C  758  1  0.12159000  0.58194800  0.78165900  1
  C  759  1  0.18180200  0.63864700  0.78829200  1
  C  760  1  0.20041100  0.65685300  0.76940300  1
  C  761  1  0.18764900  0.68473100  0.75660500  1
  C  762  1  0.15531200  0.69330100  0.76271700  1
  C  763  1  0.13685400  0.67495500  0.78164600  1
  C  784  1  0.57118500  0.68603200  0.37645000  1
  C  785  1  0.56345700  0.65365700  0.37017800  1
  C  786  1  0.58257700  0.63562200  0.35155000  1
  C  787  1  0.60927400  0.64948000  0.33713500  1
  C  788  1  0.61771200  0.68156100  0.34495900  1
  C  789  1  0.59889100  0.69965500  0.36380100  1
  C  790  1  0.62924900  0.62914500  0.31669200  1
  C  791  1  0.64915100  0.60879200  0.33717500  1
  C  792  1  0.67576800  0.62265000  0.35170000  1
  C  793  1  0.69480900  0.60460600  0.37038100  1
  C  794  1  0.68710700  0.57220400  0.37657000  1
  C  795  1  0.65946600  0.55858300  0.36380900  1
  C  796  1  0.64070900  0.57669500  0.34493400  1
  C  797  1  0.60852100  0.60953800  0.29626300  1
  C  798  1  0.65004600  0.64877800  0.29633500  1
  C  799  1  0.68182500  0.63929800  0.28840800  1
  C  800  1  0.70052400  0.65753300  0.26960500  1
  C  801  1  0.68784500  0.68546900  0.25684200  1
  C  802  1  0.65552700  0.69412400  0.26294500  1
  C  803  1  0.63698200  0.67575800  0.28179900  1
  C  804  1  0.57678400  0.61904200  0.28823500  1
  C  805  1  0.55816500  0.60083900  0.26935000  1
  C  806  1  0.57086800  0.57287900  0.25664100  1
  C  807  1  0.60315700  0.56421200  0.26284300  1
  C  808  1  0.62163600  0.58256300  0.28175300  1
  C  829  1  0.82095600  0.32255100  0.62599500  1
  C  830  1  0.85340500  0.31417400  0.62011800  1
  C  831  1  0.87186500  0.33249900  0.60117700  1
  C  832  1  0.85861700  0.35916700  0.58633600  1
  C  833  1  0.82668100  0.36838600  0.59402300  1
  C  834  1  0.80807400  0.35020600  0.61293100  1
  C  835  1  0.87942400  0.37876400  0.56595400  1
  C  836  1  0.90022900  0.39838600  0.58632400  1
  C  837  1  0.88697800  0.42506800  0.60115200  1
  C  838  1  0.90547000  0.44346000  0.62002400  1
  C  839  1  0.93793500  0.43512900  0.62585600  1
  C  840  1  0.95083000  0.40747400  0.61280200  1
  C  841  1  0.93218600  0.38921200  0.59397900  1
  C  842  1  0.89934500  0.35835600  0.54551700  1
  C  843  1  0.85949500  0.39913300  0.54549900  1
  C  844  1  0.86762300  0.43140700  0.53803700  1
  C  845  1  0.84880500  0.44950200  0.51919100  1
  C  846  1  0.82141800  0.43570500  0.50617100  1
  C  847  1  0.81400700  0.40316900  0.51210200  1
  C  848  1  0.83312000  0.38514200  0.53073900  1
  C  849  1  0.89120300  0.32608400  0.53805800  1
  C  850  1  0.91004100  0.30796300  0.51924500  1
  C  851  1  0.93745100  0.32173800  0.50625000  1
  C  852  1  0.94487000  0.35427600  0.51215800  1
  C  853  1  0.92573300  0.37233000  0.53076000  1
  C  874  1  0.93788000  0.93496100  0.12617400  1
  C  875  1  0.90547200  0.94343500  0.12023600  1
  C  876  1  0.88697800  0.92512000  0.10131000  1
  C  877  1  0.90016600  0.89837500  0.08653360  1
  C  878  1  0.93204800  0.88905400  0.09429060  1
  C  879  1  0.95069000  0.90722400  0.11318500  1
  C  880  1  0.87935400  0.87878800  0.06614860  1
  C  881  1  0.85854400  0.85917800  0.08652060  1
  C  882  1  0.87172400  0.83240600  0.10127200  1
  C  883  1  0.85321600  0.81404500  0.12015500  1
  C  884  1  0.82079600  0.82248800  0.12606400  1
  C  885  1  0.80797400  0.85022000  0.11308100  1
  C  886  1  0.82664200  0.86845800  0.09425560  1
  C  887  1  0.85944400  0.89919500  0.04570860  1
  C  888  1  0.89926800  0.85840100  0.04569960  1
  C  889  1  0.89102600  0.82618800  0.03813560  1
  C  890  1  0.90981100  0.80808600  0.01927360  1
  C  891  1  0.93726700  0.82182500  0.00631862  1
  C  892  1  0.94477600  0.85432200  0.01232060  1
  C  893  1  0.92571100  0.87234600  0.03099660  1
  C  894  1  0.86768800  0.93141900  0.03817160  1
  C  895  1  0.84887700  0.94956000  0.01935060  1
  C  896  1  0.82138200  0.93585700  0.00643662  1
  C  897  1  0.81386200  0.90335700  0.01241360  1
  C  898  1  0.83298000  0.88528000  0.03101360  1
  C  919  1  0.32100800  0.43497700  0.00669062  1
  C  920  1  0.35332300  0.44362900  0.01280560  1
  C  921  1  0.37182200  0.42533900  0.03174260  1
  C  922  1  0.35872400  0.39841700  0.04633560  1
  C  923  1  0.32694600  0.38893400  0.03841060  1
  C  924  1  0.30829700  0.40708900  0.01951360  1
  C  925  1  0.37950700  0.37884100  0.06674460  1
  C  926  1  0.40030400  0.35922000  0.04637660  1
  C  927  1  0.38719900  0.33228600  0.03179860  1
  C  928  1  0.40572000  0.31391800  0.01293060  1
  C  929  1  0.43805400  0.32252000  0.00685162  1
  C  930  1  0.45077700  0.35041700  0.01964860  1
  C  931  1  0.43210000  0.36865900  0.03846260  1
  C  932  1  0.39941900  0.39924500  0.08718560  1
  C  933  1  0.35958000  0.35849600  0.08721460  1
  C  934  1  0.36797900  0.32638200  0.09495960  1
  C  935  1  0.34920000  0.30828200  0.11382800  1
  C  936  1  0.32157600  0.32192700  0.12659300  1
  C  937  1  0.31390600  0.35434200  0.12040900  1
  C  938  1  0.33297300  0.37237300  0.10173900  1
  C  939  1  0.39099600  0.43136100  0.09490560  1
  C  940  1  0.40978000  0.44950700  0.11373900  1
  C  941  1  0.43741100  0.43589100  0.12651100  1
  C  942  1  0.44511500  0.40348100  0.12035300  1
  C  943  1  0.42603100  0.38540100  0.10173000  1
  C  964  1  0.43776900  0.82260900  0.50691400  1
  C  965  1  0.40528700  0.81429900  0.51271000  1
  C  966  1  0.38681700  0.83262900  0.53164300  1
  C  967  1  0.40009400  0.85922900  0.54655700  1
  C  968  1  0.43207500  0.86838500  0.53895100  1
  C  969  1  0.45068800  0.85019800  0.52005100  1
  C  970  1  0.37927700  0.87881700  0.56693900  1
  C  971  1  0.35847000  0.89845000  0.54657500  1
  C  972  1  0.37175200  0.92508200  0.53170600  1
  C  973  1  0.35327200  0.94348600  0.51283100  1
  C  974  1  0.32078300  0.93520600  0.50703700  1
  C  975  1  0.30784700  0.90760600  0.52014300  1
  C  976  1  0.32647600  0.88933800  0.53897200  1
  C  977  1  0.35935100  0.85839200  0.58736300  1
  C  978  1  0.39919600  0.89919300  0.58739600  1
  C  979  1  0.39111700  0.93148900  0.59482500  1
  C  980  1  0.40993000  0.94956700  0.61368300  1
  C  981  1  0.43725600  0.93573100  0.62676400  1
  C  982  1  0.44460900  0.90316900  0.62087800  1
  C  983  1  0.42550100  0.88516100  0.60222400  1
  C  984  1  0.36743700  0.82607900  0.59474600  1
  C  985  1  0.34859000  0.80794500  0.61354300  1
  C  986  1  0.32123000  0.82174000  0.62659900  1
  C  987  1  0.31386500  0.85431000  0.62076400  1
  C  988  1  0.33301200  0.87237300  0.60217400  1
  C  1009  1  0.02979600  0.01723100  0.20882400  1
  C  1010  1  0.03651500  0.99885900  0.18461800  1
  C  1011  1  0.01177500  0.98515100  0.16856900  1
  C  1012  1  0.97859900  0.98843200  0.17546700  1
  C  1013  1  0.97191300  0.00685900  0.19967000  1
  C  1014  1  0.99664700  0.02057400  0.21570800  1
  C  1017  1  0.05787100  0.97465700  0.15079000  1
  C  1020  1  0.95062700  0.03088500  0.23365800  1
  C  1023  1  0.05474800  0.02965900  0.22498600  1
  C  1025  1  0.95352100  0.97558600  0.15961600  1
  C  1027  1  0.72918600  0.24028100  0.70876200  1
  C  1028  1  0.72243500  0.25862000  0.68454100  1
  C  1029  1  0.74715200  0.27233200  0.66847200  1
  C  1030  1  0.78033400  0.26910200  0.67536700  1
  C  1031  1  0.78705100  0.25073400  0.69959800  1
  C  1032  1  0.76233600  0.23699700  0.71564700  1
  C  1035  1  0.70104000  0.28274700  0.65069500  1
  C  1038  1  0.80837600  0.22675500  0.73359200  1
  C  1041  1  0.70425100  0.22786800  0.72495200  1
  C  1043  1  0.80539200  0.28196800  0.65950200  1
  C  1045  1  0.22906000  0.51719100  0.92402700  1
  C  1046  1  0.22233300  0.49875100  0.94819300  1
  C  1047  1  0.24707100  0.48507200  0.96426300  1
  C  1048  1  0.28025200  0.48846200  0.95743200  1
  C  1049  1  0.28694800  0.50693400  0.93325500  1
  C  1050  1  0.26221300  0.52060600  0.91719000  1
  C  1053  1  0.20096300  0.47443500  0.98195400  1
  C  1056  1  0.30825100  0.53109000  0.89934400  1
  C  1059  1  0.20411200  0.52957300  0.90783500  1
  C  1061  1  0.30532500  0.47564500  0.97330300  1
  C  1063  1  0.52957800  0.74034800  0.42417300  1
  C  1064  1  0.53630700  0.75865300  0.44841600  1
  C  1065  1  0.51158000  0.77238000  0.46446500  1
  C  1066  1  0.47840300  0.76916000  0.45754700  1
  C  1067  1  0.47170600  0.75080400  0.43330500  1
  C  1068  1  0.49643300  0.73708900  0.41725700  1
  C  1071  1  0.55767800  0.78278000  0.48227700  1
  C  1074  1  0.45041000  0.72687000  0.39927300  1
  C  1077  1  0.55452500  0.72791100  0.40801000  1
  C  1079  1  0.45333300  0.78204700  0.47338300  1
  C  1081  1  0.27950200  0.76720700  0.67405300  1
  C  1082  1  0.28626000  0.74866500  0.69815500  1
  C  1083  1  0.26154100  0.73495000  0.71422200  1
  C  1084  1  0.22834900  0.73838800  0.70744500  1
  C  1085  1  0.22162300  0.75698600  0.68334600  1
  C  1086  1  0.24633700  0.77071100  0.66729100  1
  C  1089  1  0.30767500  0.72418400  0.73180500  1
  C  1092  1  0.20027900  0.78128700  0.64953000  1
  C  1095  1  0.30442500  0.77963000  0.65785900  1
  C  1097  1  0.20329500  0.72553400  0.72332100  1
  C  1099  1  0.77963000  0.49008100  0.45858400  1
  C  1100  1  0.78662300  0.50934400  0.43495000  1
  C  1101  1  0.76204300  0.52254600  0.41842100  1
  C  1102  1  0.72878400  0.51786400  0.42427300  1
  C  1103  1  0.72179400  0.49860100  0.44791000  1
  C  1104  1  0.74637100  0.48537900  0.46442500  1
  C  1107  1  0.80835700  0.53504200  0.40212200  1
  C  1110  1  0.70006200  0.47288400  0.48072800  1
  C  1113  1  0.80439800  0.47803100  0.47515900  1
  C  1115  1  0.70401300  0.52992400  0.40770200  1
  C  1117  1  0.47878100  0.26894500  0.95767100  1
  C  1118  1  0.47241000  0.25135800  0.93295100  1
  C  1119  1  0.49726000  0.23707800  0.91740400  1
  C  1120  1  0.53023400  0.23898800  0.92530300  1
  C  1121  1  0.53660200  0.25656600  0.95002800  1
  C  1122  1  0.51175200  0.27084000  0.96557700  1
  C  1125  1  0.45158300  0.22876300  0.89804900  1
  C  1128  1  0.55742900  0.27916300  0.98493000  1
  C  1131  1  0.45357200  0.28221900  0.97310100  1
  C  1133  1  0.55544200  0.22570000  0.90988200  1
  C  1135  1  0.03000700  0.51862200  0.70752400  1
  C  1136  1  0.03638500  0.50107400  0.68278500  1
  C  1137  1  0.01154600  0.48678500  0.66723500  1
  C  1138  1  0.97857000  0.48866300  0.67513600  1
  C  1139  1  0.97219100  0.50622300  0.69986900  1
  C  1140  1  0.99703200  0.52050200  0.71542600  1
  C  1143  1  0.05723300  0.47847800  0.64789400  1
  C  1146  1  0.95135000  0.52878000  0.73478600  1
  C  1149  1  0.05521000  0.53191100  0.72295400  1
  C  1151  1  0.95336800  0.47534500  0.65972100  1
  C  1153  1  0.72861500  0.73905100  0.20768800  1
  C  1154  1  0.72223600  0.75672200  0.18301400  1
  C  1155  1  0.74708900  0.77097400  0.16745500  1
  C  1156  1  0.78007500  0.76896400  0.17529800  1
  C  1157  1  0.78645300  0.75127500  0.19996400  1
  C  1158  1  0.76160000  0.73701600  0.21552000  1
  C  1161  1  0.70138800  0.77948700  0.14820400  1
  C  1164  1  0.80729900  0.72851500  0.23477900  1
  C  1167  1  0.70340100  0.72579100  0.22312500  1
  C  1169  1  0.80528800  0.78222100  0.15985800  1
  C  1171  1  0.22876600  0.01872800  0.42533700  1
  C  1172  1  0.22236600  0.00111900  0.45004100  1
  C  1173  1  0.24719600  0.98683500  0.46560600  1
  C  1174  1  0.28018000  0.98873700  0.45773400  1
  C  1175  1  0.28657700  0.00634900  0.43303000  1
  C  1176  1  0.26174900  0.02065100  0.41747500  1
  C  1179  1  0.20149100  0.97848200  0.48490100  1
  C  1182  1  0.30745200  0.02899600  0.39817200  1
  C  1185  1  0.20357100  0.03199800  0.40988600  1
  C  1187  1  0.30537100  0.97542900  0.47316800  1
  C  1189  1  0.27989200  0.26760700  0.17430500  1
  C  1190  1  0.28688200  0.24840900  0.19797800  1
  C  1191  1  0.26230500  0.23518400  0.21449300  1
  C  1192  1  0.22904500  0.23981100  0.20860700  1
  C  1193  1  0.22205300  0.25900500  0.18493000  1
  C  1194  1  0.24663300  0.27221900  0.16840900  1
  C  1197  1  0.30861400  0.22281800  0.23087000  1
  C  1200  1  0.20032200  0.28460000  0.15204200  1
  C  1203  1  0.30466700  0.27968400  0.15774800  1
  C  1205  1  0.20427100  0.22772200  0.22515900  1
  C  1207  1  0.77973400  0.99036600  0.95890200  1
  C  1208  1  0.78649700  0.00885100  0.93476900  1
  C  1209  1  0.76178400  0.02258100  0.91870400  1
  C  1210  1  0.72859300  0.01919100  0.92549900  1
  C  1211  1  0.72186100  0.00065700  0.94963400  1
  C  1212  1  0.74657100  0.98693700  0.96569700  1
  C  1215  1  0.80792100  0.03326400  0.90108500  1
  C  1218  1  0.70051000  0.97643300  0.98348500  1
  C  1221  1  0.80465400  0.97792400  0.97509200  1
  C  1223  1  0.70354200  0.03206300  0.90963000  1
  C  1225  1  0.52991400  0.01778800  0.70871200  1
  C  1226  1  0.53690700  0.99848400  0.68509900  1
  C  1227  1  0.51233000  0.98531300  0.66855300  1
  C  1228  1  0.47907100  0.99008000  0.67435500  1
  C  1229  1  0.47207800  0.00940100  0.69795500  1
  C  1230  1  0.49665500  0.02258000  0.71449900  1
  C  1233  1  0.55864100  0.97269900  0.65232300  1
  C  1236  1  0.45033900  0.03519900  0.73072000  1
  C  1239  1  0.55468300  0.02984300  0.72528900  1
  C  1241  1  0.45430800  0.97806600  0.65775500  1
  C  1243  1  0.02977300  0.73969500  0.92429100  1
  C  1244  1  0.03679600  0.75897000  0.94791200  1
  C  1245  1  0.01223800  0.77216500  0.96446900  1
  C  1246  1  0.97897100  0.76746300  0.95865800  1
  C  1247  1  0.97194900  0.74818800  0.93503800  1
  C  1248  1  0.99650700  0.73497100  0.91849300  1
  C  1251  1  0.05857000  0.78468700  0.98071100  1
  C  1254  1  0.95017200  0.72244000  0.90226000  1
  C  1257  1  0.05452300  0.72764200  0.90769300  1
  C  1259  1  0.95422500  0.77950400  0.97526300  1
  C  1261  1  0.97918400  0.26726600  0.45874800  1
  C  1262  1  0.97244000  0.24875700  0.43462300  1
  C  1263  1  0.99716800  0.23504400  0.41856500  1
  C  1264  1  0.03035600  0.23846300  0.42536600  1
  C  1265  1  0.03706600  0.25700400  0.44950100  1
  C  1266  1  0.01234100  0.27071100  0.46555600  1
  C  1269  1  0.95104500  0.22434400  0.40092700  1
  C  1272  1  0.05838900  0.28125200  0.48335400  1
  C  1275  1  0.95424900  0.27966400  0.47494500  1
  C  1277  1  0.05541900  0.22560500  0.40950700  1
  C  1279  1  0.53017100  0.51922400  0.20747800  1
  C  1280  1  0.53689500  0.50072000  0.18332700  1
  C  1281  1  0.51218300  0.48697900  0.16727800  1
  C  1282  1  0.47902300  0.49038300  0.17409200  1
  C  1283  1  0.47226700  0.50886300  0.19823200  1
  C  1284  1  0.49698200  0.52259200  0.21429300  1
  C  1287  1  0.55824200  0.47648000  0.14948000  1
  C  1290  1  0.45085700  0.53322000  0.23195200  1
  C  1293  1  0.55522500  0.53209700  0.22334100  1
  C  1295  1  0.45409200  0.47791900  0.15792300  1
  C  1297  1  0.07145100  0.07160000  0.44390400  1
  C  1298  1  0.06377500  0.10400600  0.45009900  1
  C  1299  1  0.08289800  0.12205500  0.46871300  1
  C  1300  1  0.10954600  0.10818700  0.48319000  1
  C  1301  1  0.11793200  0.07606900  0.47544400  1
  C  1302  1  0.09910500  0.05795600  0.45661800  1
  C  1303  1  0.12950600  0.12854300  0.50362900  1
  C  1304  1  0.14941100  0.14889400  0.48314700  1
  C  1305  1  0.17599100  0.13501400  0.46858900  1
  C  1306  1  0.19503700  0.15304700  0.44990400  1
  C  1307  1  0.18737500  0.18546800  0.44374400  1
  C  1308  1  0.15977800  0.19912000  0.45654600  1
  C  1309  1  0.14101900  0.18101900  0.47543000  1
  C  1310  1  0.10875800  0.14815700  0.52404100  1
  C  1311  1  0.15030700  0.10893000  0.52400000  1
  C  1312  1  0.18211800  0.11835600  0.53187500  1
  C  1313  1  0.20079900  0.10012700  0.55069600  1
  C  1314  1  0.18807100  0.07225300  0.56352500  1
  C  1315  1  0.15572800  0.06365700  0.55746900  1
  C  1316  1  0.13720300  0.08200900  0.53859300  1
  C  1317  1  0.07698700  0.13869800  0.53200800  1
  C  1318  1  0.05836000  0.15690400  0.55088400  1
  C  1319  1  0.07108600  0.18482100  0.56364800  1
  C  1320  1  0.10340400  0.19344000  0.55750700  1
  C  1321  1  0.12188400  0.17509500  0.53859300  1
  C  1342  1  0.68756200  0.18596000  0.94389800  1
  C  1343  1  0.69519600  0.15353800  0.95007300  1
  C  1344  1  0.67606800  0.13551000  0.96870000  1
  C  1345  1  0.64948300  0.14942100  0.98322800  1
  C  1346  1  0.64115600  0.18156900  0.97552500  1
  C  1347  1  0.65997700  0.19965500  0.95667700  1
  C  1348  1  0.62952000  0.12907800  0.00367723  1
  C  1349  1  0.60960800  0.10870700  0.98321400  1
  C  1350  1  0.58310500  0.12262700  0.96857500  1
  C  1351  1  0.56404000  0.10459200  0.94990700  1
  C  1352  1  0.57164000  0.07214200  0.94380500  1
  C  1353  1  0.59917900  0.05845100  0.95667100  1
  C  1354  1  0.61794400  0.07655000  0.97555000  1
  C  1355  1  0.65027900  0.10946900  0.02408520  1
  C  1356  1  0.60872200  0.14871000  0.02403920  1
  C  1357  1  0.57687100  0.13934900  0.03185520  1
  C  1358  1  0.55818900  0.15759800  0.05066120  1
  C  1359  1  0.57095300  0.18542300  0.06353920  1
  C  1360  1  0.60332600  0.19396000  0.05753720  1
  C  1361  1  0.62185200  0.17558700  0.03867520  1
  C  1362  1  0.68207900  0.11887500  0.03200720  1
  C  1363  1  0.70069100  0.10067100  0.05089820  1
  C  1364  1  0.68791700  0.07281700  0.06372720  1
  C  1365  1  0.65556800  0.06426500  0.05764120  1
  C  1366  1  0.63710800  0.08260500  0.03871120  1
  C  1387  1  0.18736000  0.57153400  0.06382120  1
  C  1388  1  0.19499500  0.60395500  0.05764820  1
  C  1389  1  0.17585100  0.62199400  0.03904220  1
  C  1390  1  0.14925500  0.60809300  0.02451820  1
  C  1391  1  0.14090900  0.57595700  0.03224420  1
  C  1392  1  0.15973900  0.55786000  0.05107920  1
  C  1393  1  0.12927700  0.62844500  0.00409023  1
  C  1394  1  0.10937300  0.64880000  0.02457020  1
  C  1395  1  0.08284800  0.63489600  0.03918820  1
  C  1396  1  0.06381000  0.65292100  0.05788520  1
  C  1397  1  0.07142900  0.68536200  0.06400220  1
  C  1398  1  0.09898500  0.69903800  0.05115220  1
  C  1399  1  0.11773500  0.68094400  0.03225920  1
  C  1400  1  0.15001600  0.64806900  0.98368000  1
  C  1401  1  0.10846500  0.60881900  0.98373900  1
  C  1402  1  0.07663100  0.61820800  0.97589800  1
  C  1403  1  0.05794800  0.59997500  0.95708100  1
  C  1404  1  0.07070300  0.57214300  0.94420500  1
  C  1405  1  0.10307000  0.56359200  0.95021500  1
  C  1406  1  0.12159000  0.58194800  0.96909200  1
  C  1407  1  0.18180200  0.63864700  0.97572500  1
  C  1408  1  0.20041100  0.65685300  0.95683600  1
  C  1409  1  0.18764900  0.68473100  0.94403800  1
  C  1410  1  0.15531200  0.69330100  0.95015000  1
  C  1411  1  0.13685400  0.67495500  0.96907900  1
  C  1432  1  0.57118500  0.68603200  0.56388300  1
  C  1433  1  0.56345700  0.65365700  0.55761100  1
  C  1434  1  0.58257700  0.63562200  0.53898300  1
  C  1435  1  0.60927400  0.64948000  0.52456800  1
  C  1436  1  0.61771200  0.68156100  0.53239200  1
  C  1437  1  0.59889100  0.69965500  0.55123400  1
  C  1438  1  0.62924900  0.62914500  0.50412500  1
  C  1439  1  0.64915100  0.60879200  0.52460800  1
  C  1440  1  0.67576800  0.62265000  0.53913300  1
  C  1441  1  0.69480900  0.60460600  0.55781400  1
  C  1442  1  0.68710700  0.57220400  0.56400300  1
  C  1443  1  0.65946600  0.55858300  0.55124200  1
  C  1444  1  0.64070900  0.57669500  0.53236700  1
  C  1445  1  0.60852100  0.60953800  0.48369600  1
  C  1446  1  0.65004600  0.64877800  0.48376800  1
  C  1447  1  0.68182500  0.63929800  0.47584100  1
  C  1448  1  0.70052400  0.65753300  0.45703800  1
  C  1449  1  0.68784500  0.68546900  0.44427500  1
  C  1450  1  0.65552700  0.69412400  0.45037800  1
  C  1451  1  0.63698200  0.67575800  0.46923200  1
  C  1452  1  0.57678400  0.61904200  0.47566800  1
  C  1453  1  0.55816500  0.60083900  0.45678300  1
  C  1454  1  0.57086800  0.57287900  0.44407400  1
  C  1455  1  0.60315700  0.56421200  0.45027600  1
  C  1456  1  0.62163600  0.58256300  0.46918600  1
  C  1477  1  0.82095600  0.32255100  0.81342800  1
  C  1478  1  0.85340500  0.31417400  0.80755100  1
  C  1479  1  0.87186500  0.33249900  0.78861000  1
  C  1480  1  0.85861700  0.35916700  0.77376900  1
  C  1481  1  0.82668100  0.36838600  0.78145600  1
  C  1482  1  0.80807400  0.35020600  0.80036400  1
  C  1483  1  0.87942400  0.37876400  0.75338700  1
  C  1484  1  0.90022900  0.39838600  0.77375700  1
  C  1485  1  0.88697800  0.42506800  0.78858500  1
  C  1486  1  0.90547000  0.44346000  0.80745700  1
  C  1487  1  0.93793500  0.43512900  0.81328900  1
  C  1488  1  0.95083000  0.40747400  0.80023500  1
  C  1489  1  0.93218600  0.38921200  0.78141200  1
  C  1490  1  0.89934500  0.35835600  0.73295000  1
  C  1491  1  0.85949500  0.39913300  0.73293200  1
  C  1492  1  0.86762300  0.43140700  0.72547000  1
  C  1493  1  0.84880500  0.44950200  0.70662400  1
  C  1494  1  0.82141800  0.43570500  0.69360400  1
  C  1495  1  0.81400700  0.40316900  0.69953500  1
  C  1496  1  0.83312000  0.38514200  0.71817200  1
  C  1497  1  0.89120300  0.32608400  0.72549100  1
  C  1498  1  0.91004100  0.30796300  0.70667800  1
  C  1499  1  0.93745100  0.32173800  0.69368300  1
  C  1500  1  0.94487000  0.35427600  0.69959100  1
  C  1501  1  0.92573300  0.37233000  0.71819300  1
  C  1522  1  0.93788000  0.93496100  0.31360700  1
  C  1523  1  0.90547200  0.94343500  0.30766900  1
  C  1524  1  0.88697800  0.92512000  0.28874300  1
  C  1525  1  0.90016600  0.89837500  0.27396700  1
  C  1526  1  0.93204800  0.88905400  0.28172400  1
  C  1527  1  0.95069000  0.90722400  0.30061800  1
  C  1528  1  0.87935400  0.87878800  0.25358200  1
  C  1529  1  0.85854400  0.85917800  0.27395400  1
  C  1530  1  0.87172400  0.83240600  0.28870500  1
  C  1531  1  0.85321600  0.81404500  0.30758800  1
  C  1532  1  0.82079600  0.82248800  0.31349700  1
  C  1533  1  0.80797400  0.85022000  0.30051400  1
  C  1534  1  0.82664200  0.86845800  0.28168900  1
  C  1535  1  0.85944400  0.89919500  0.23314200  1
  C  1536  1  0.89926800  0.85840100  0.23313300  1
  C  1537  1  0.89102600  0.82618800  0.22556900  1
  C  1538  1  0.90981100  0.80808600  0.20670700  1
  C  1539  1  0.93726700  0.82182500  0.19375200  1
  C  1540  1  0.94477600  0.85432200  0.19975400  1
  C  1541  1  0.92571100  0.87234600  0.21843000  1
  C  1542  1  0.86768800  0.93141900  0.22560500  1
  C  1543  1  0.84887700  0.94956000  0.20678400  1
  C  1544  1  0.82138200  0.93585700  0.19387000  1
  C  1545  1  0.81386200  0.90335700  0.19984700  1
  C  1546  1  0.83298000  0.88528000  0.21844700  1
  C  1567  1  0.32100800  0.43497700  0.19412400  1
  C  1568  1  0.35332300  0.44362900  0.20023900  1
  C  1569  1  0.37182200  0.42533900  0.21917600  1
  C  1570  1  0.35872400  0.39841700  0.23376900  1
  C  1571  1  0.32694600  0.38893400  0.22584400  1
  C  1572  1  0.30829700  0.40708900  0.20694700  1
  C  1573  1  0.37950700  0.37884100  0.25417800  1
  C  1574  1  0.40030400  0.35922000  0.23381000  1
  C  1575  1  0.38719900  0.33228600  0.21923200  1
  C  1576  1  0.40572000  0.31391800  0.20036400  1
  C  1577  1  0.43805400  0.32252000  0.19428500  1
  C  1578  1  0.45077700  0.35041700  0.20708200  1
  C  1579  1  0.43210000  0.36865900  0.22589600  1
  C  1580  1  0.39941900  0.39924500  0.27461900  1
  C  1581  1  0.35958000  0.35849600  0.27464800  1
  C  1582  1  0.36797900  0.32638200  0.28239300  1
  C  1583  1  0.34920000  0.30828200  0.30126100  1
  C  1584  1  0.32157600  0.32192700  0.31402600  1
  C  1585  1  0.31390600  0.35434200  0.30784200  1
  C  1586  1  0.33297300  0.37237300  0.28917200  1
  C  1587  1  0.39099600  0.43136100  0.28233900  1
  C  1588  1  0.40978000  0.44950700  0.30117200  1
  C  1589  1  0.43741100  0.43589100  0.31394400  1
  C  1590  1  0.44511500  0.40348100  0.30778600  1
  C  1591  1  0.42603100  0.38540100  0.28916300  1
  C  1612  1  0.43776900  0.82260900  0.69434700  1
  C  1613  1  0.40528700  0.81429900  0.70014300  1
  C  1614  1  0.38681700  0.83262900  0.71907600  1
  C  1615  1  0.40009400  0.85922900  0.73399000  1
  C  1616  1  0.43207500  0.86838500  0.72638400  1
  C  1617  1  0.45068800  0.85019800  0.70748400  1
  C  1618  1  0.37927700  0.87881700  0.75437200  1
  C  1619  1  0.35847000  0.89845000  0.73400800  1
  C  1620  1  0.37175200  0.92508200  0.71913900  1
  C  1621  1  0.35327200  0.94348600  0.70026400  1
  C  1622  1  0.32078300  0.93520600  0.69447000  1
  C  1623  1  0.30784700  0.90760600  0.70757600  1
  C  1624  1  0.32647600  0.88933800  0.72640500  1
  C  1625  1  0.35935100  0.85839200  0.77479600  1
  C  1626  1  0.39919600  0.89919300  0.77482900  1
  C  1627  1  0.39111700  0.93148900  0.78225800  1
  C  1628  1  0.40993000  0.94956700  0.80111600  1
  C  1629  1  0.43725600  0.93573100  0.81419700  1
  C  1630  1  0.44460900  0.90316900  0.80831100  1
  C  1631  1  0.42550100  0.88516100  0.78965700  1
  C  1632  1  0.36743700  0.82607900  0.78217900  1
  C  1633  1  0.34859000  0.80794500  0.80097600  1
  C  1634  1  0.32123000  0.82174000  0.81403200  1
  C  1635  1  0.31386500  0.85431000  0.80819700  1
  C  1636  1  0.33301200  0.87237300  0.78960700  1
  C  1657  1  0.02979600  0.01723100  0.39625700  1
  C  1658  1  0.03651500  0.99885900  0.37205100  1
  C  1659  1  0.01177500  0.98515100  0.35600200  1
  C  1660  1  0.97859900  0.98843200  0.36290000  1
  C  1661  1  0.97191300  0.00685900  0.38710300  1
  C  1662  1  0.99664700  0.02057400  0.40314100  1
  C  1665  1  0.05787100  0.97465700  0.33822300  1
  C  1668  1  0.95062700  0.03088500  0.42109100  1
  C  1671  1  0.05474800  0.02965900  0.41241900  1
  C  1673  1  0.95352100  0.97558600  0.34704900  1
  C  1675  1  0.72918600  0.24028100  0.89619500  1
  C  1676  1  0.72243500  0.25862000  0.87197400  1
  C  1677  1  0.74715200  0.27233200  0.85590500  1
  C  1678  1  0.78033400  0.26910200  0.86280000  1
  C  1679  1  0.78705100  0.25073400  0.88703100  1
  C  1680  1  0.76233600  0.23699700  0.90308000  1
  C  1683  1  0.70104000  0.28274700  0.83812800  1
  C  1686  1  0.80837600  0.22675500  0.92102500  1
  C  1689  1  0.70425100  0.22786800  0.91238500  1
  C  1691  1  0.80539200  0.28196800  0.84693500  1
  C  1693  1  0.22906000  0.51719100  0.11146000  1
  C  1694  1  0.22233300  0.49875100  0.13562600  1
  C  1695  1  0.24707100  0.48507200  0.15169600  1
  C  1696  1  0.28025200  0.48846200  0.14486500  1
  C  1697  1  0.28694800  0.50693400  0.12068800  1
  C  1698  1  0.26221300  0.52060600  0.10462300  1
  C  1701  1  0.20096300  0.47443500  0.16938700  1
  C  1704  1  0.30825100  0.53109000  0.08677720  1
  C  1707  1  0.20411200  0.52957300  0.09526820  1
  C  1709  1  0.30532500  0.47564500  0.16073600  1
  C  1711  1  0.52957800  0.74034800  0.61160600  1
  C  1712  1  0.53630700  0.75865300  0.63584900  1
  C  1713  1  0.51158000  0.77238000  0.65189800  1
  C  1714  1  0.47840300  0.76916000  0.64498000  1
  C  1715  1  0.47170600  0.75080400  0.62073800  1
  C  1716  1  0.49643300  0.73708900  0.60469000  1
  C  1719  1  0.55767800  0.78278000  0.66971000  1
  C  1722  1  0.45041000  0.72687000  0.58670600  1
  C  1725  1  0.55452500  0.72791100  0.59544300  1
  C  1727  1  0.45333300  0.78204700  0.66081600  1
  C  1729  1  0.27950200  0.76720700  0.86148600  1
  C  1730  1  0.28626000  0.74866500  0.88558800  1
  C  1731  1  0.26154100  0.73495000  0.90165500  1
  C  1732  1  0.22834900  0.73838800  0.89487800  1
  C  1733  1  0.22162300  0.75698600  0.87077900  1
  C  1734  1  0.24633700  0.77071100  0.85472400  1
  C  1737  1  0.30767500  0.72418400  0.91923800  1
  C  1740  1  0.20027900  0.78128700  0.83696300  1
  C  1743  1  0.30442500  0.77963000  0.84529200  1
  C  1745  1  0.20329500  0.72553400  0.91075400  1
  C  1747  1  0.77963000  0.49008100  0.64601700  1
  C  1748  1  0.78662300  0.50934400  0.62238300  1
  C  1749  1  0.76204300  0.52254600  0.60585400  1
  C  1750  1  0.72878400  0.51786400  0.61170600  1
  C  1751  1  0.72179400  0.49860100  0.63534300  1
  C  1752  1  0.74637100  0.48537900  0.65185800  1
  C  1755  1  0.80835700  0.53504200  0.58955500  1
  C  1758  1  0.70006200  0.47288400  0.66816100  1
  C  1761  1  0.80439800  0.47803100  0.66259200  1
  C  1763  1  0.70401300  0.52992400  0.59513500  1
  C  1765  1  0.47878100  0.26894500  0.14510400  1
  C  1766  1  0.47241000  0.25135800  0.12038400  1
  C  1767  1  0.49726000  0.23707800  0.10483700  1
  C  1768  1  0.53023400  0.23898800  0.11273600  1
  C  1769  1  0.53660200  0.25656600  0.13746100  1
  C  1770  1  0.51175200  0.27084000  0.15301000  1
  C  1773  1  0.45158300  0.22876300  0.08548220  1
  C  1776  1  0.55742900  0.27916300  0.17236300  1
  C  1779  1  0.45357200  0.28221900  0.16053400  1
  C  1781  1  0.55544200  0.22570000  0.09731520  1
  C  1783  1  0.03000700  0.51862200  0.89495700  1
  C  1784  1  0.03638500  0.50107400  0.87021800  1
  C  1785  1  0.01154600  0.48678500  0.85466800  1
  C  1786  1  0.97857000  0.48866300  0.86256900  1
  C  1787  1  0.97219100  0.50622300  0.88730200  1
  C  1788  1  0.99703200  0.52050200  0.90285900  1
  C  1791  1  0.05723300  0.47847800  0.83532700  1
  C  1794  1  0.95135000  0.52878000  0.92221900  1
  C  1797  1  0.05521000  0.53191100  0.91038700  1
  C  1799  1  0.95336800  0.47534500  0.84715400  1
  C  1801  1  0.72861500  0.73905100  0.39512100  1
  C  1802  1  0.72223600  0.75672200  0.37044700  1
  C  1803  1  0.74708900  0.77097400  0.35488800  1
  C  1804  1  0.78007500  0.76896400  0.36273100  1
  C  1805  1  0.78645300  0.75127500  0.38739700  1
  C  1806  1  0.76160000  0.73701600  0.40295300  1
  C  1809  1  0.70138800  0.77948700  0.33563700  1
  C  1812  1  0.80729900  0.72851500  0.42221200  1
  C  1815  1  0.70340100  0.72579100  0.41055800  1
  C  1817  1  0.80528800  0.78222100  0.34729100  1
  C  1819  1  0.22876600  0.01872800  0.61277000  1
  C  1820  1  0.22236600  0.00111900  0.63747400  1
  C  1821  1  0.24719600  0.98683500  0.65303900  1
  C  1822  1  0.28018000  0.98873700  0.64516700  1
  C  1823  1  0.28657700  0.00634900  0.62046300  1
  C  1824  1  0.26174900  0.02065100  0.60490800  1
  C  1827  1  0.20149100  0.97848200  0.67233400  1
  C  1830  1  0.30745200  0.02899600  0.58560500  1
  C  1833  1  0.20357100  0.03199800  0.59731900  1
  C  1835  1  0.30537100  0.97542900  0.66060100  1
  C  1837  1  0.27989200  0.26760700  0.36173800  1
  C  1838  1  0.28688200  0.24840900  0.38541100  1
  C  1839  1  0.26230500  0.23518400  0.40192600  1
  C  1840  1  0.22904500  0.23981100  0.39604000  1
  C  1841  1  0.22205300  0.25900500  0.37236300  1
  C  1842  1  0.24663300  0.27221900  0.35584200  1
  C  1845  1  0.30861400  0.22281800  0.41830300  1
  C  1848  1  0.20032200  0.28460000  0.33947500  1
  C  1851  1  0.30466700  0.27968400  0.34518100  1
  C  1853  1  0.20427100  0.22772200  0.41259200  1
  C  1855  1  0.77973400  0.99036600  0.14633500  1
  C  1856  1  0.78649700  0.00885100  0.12220200  1
  C  1857  1  0.76178400  0.02258100  0.10613700  1
  C  1858  1  0.72859300  0.01919100  0.11293200  1
  C  1859  1  0.72186100  0.00065700  0.13706700  1
  C  1860  1  0.74657100  0.98693700  0.15313000  1
  C  1863  1  0.80792100  0.03326400  0.08851820  1
  C  1866  1  0.70051000  0.97643300  0.17091800  1
  C  1869  1  0.80465400  0.97792400  0.16252500  1
  C  1871  1  0.70354200  0.03206300  0.09706320  1
  C  1873  1  0.52991400  0.01778800  0.89614500  1
  C  1874  1  0.53690700  0.99848400  0.87253200  1
  C  1875  1  0.51233000  0.98531300  0.85598600  1
  C  1876  1  0.47907100  0.99008000  0.86178800  1
  C  1877  1  0.47207800  0.00940100  0.88538800  1
  C  1878  1  0.49665500  0.02258000  0.90193200  1
  C  1881  1  0.55864100  0.97269900  0.83975600  1
  C  1884  1  0.45033900  0.03519900  0.91815300  1
  C  1887  1  0.55468300  0.02984300  0.91272200  1
  C  1889  1  0.45430800  0.97806600  0.84518800  1
  C  1891  1  0.02977300  0.73969500  0.11172400  1
  C  1892  1  0.03679600  0.75897000  0.13534500  1
  C  1893  1  0.01223800  0.77216500  0.15190200  1
  C  1894  1  0.97897100  0.76746300  0.14609100  1
  C  1895  1  0.97194900  0.74818800  0.12247100  1
  C  1896  1  0.99650700  0.73497100  0.10592600  1
  C  1899  1  0.05857000  0.78468700  0.16814400  1
  C  1902  1  0.95017200  0.72244000  0.08969320  1
  C  1905  1  0.05452300  0.72764200  0.09512620  1
  C  1907  1  0.95422500  0.77950400  0.16269600  1
  C  1909  1  0.97918400  0.26726600  0.64618100  1
  C  1910  1  0.97244000  0.24875700  0.62205600  1
  C  1911  1  0.99716800  0.23504400  0.60599800  1
  C  1912  1  0.03035600  0.23846300  0.61279900  1
  C  1913  1  0.03706600  0.25700400  0.63693400  1
  C  1914  1  0.01234100  0.27071100  0.65298900  1
  C  1917  1  0.95104500  0.22434400  0.58836000  1
  C  1920  1  0.05838900  0.28125200  0.67078700  1
  C  1923  1  0.95424900  0.27966400  0.66237800  1
  C  1925  1  0.05541900  0.22560500  0.59694000  1
  C  1927  1  0.53017100  0.51922400  0.39491100  1
  C  1928  1  0.53689500  0.50072000  0.37076000  1
  C  1929  1  0.51218300  0.48697900  0.35471100  1
  C  1930  1  0.47902300  0.49038300  0.36152500  1
  C  1931  1  0.47226700  0.50886300  0.38566500  1
  C  1932  1  0.49698200  0.52259200  0.40172600  1
  C  1935  1  0.55824200  0.47648000  0.33691300  1
  C  1938  1  0.45085700  0.53322000  0.41938500  1
  C  1941  1  0.55522500  0.53209700  0.41077400  1
  C  1943  1  0.45409200  0.47791900  0.34535600  1
  N  41  1  0.20773900  0.05575900  0.20551300  1
  N  42  1  0.05148500  0.20119900  0.20578200  1
  N  43  1  0.05147900  0.05557600  0.05213100  1
  N  44  1  0.20724100  0.20140100  0.05180700  1
  N  86  1  0.55128300  0.20193900  0.70550800  1
  N  87  1  0.70750500  0.05643500  0.70587300  1
  N  88  1  0.70753400  0.20196300  0.55211000  1
  N  89  1  0.55176000  0.05621300  0.55187700  1
  N  131  1  0.05103500  0.55564100  0.55248900  1
  N  132  1  0.20723400  0.70111500  0.55216000  1
  N  133  1  0.20734200  0.55552700  0.70586400  1
  N  134  1  0.05157600  0.70128400  0.70622400  1
  N  176  1  0.70752900  0.70196600  0.05257100  1
  N  177  1  0.55127100  0.55649300  0.05220700  1
  N  178  1  0.55122000  0.70204600  0.20593400  1
  N  179  1  0.70696300  0.55626500  0.20621000  1
  N  221  1  0.80150600  0.45161900  0.30169500  1
  N  222  1  0.95744100  0.30572000  0.30192000  1
  N  223  1  0.80138100  0.30619400  0.45559700  1
  N  224  1  0.95757400  0.45166300  0.45527200  1
  N  266  1  0.95714100  0.80590500  0.80180700  1
  N  267  1  0.80141700  0.95190200  0.80210300  1
  N  268  1  0.95748400  0.95130700  0.95575700  1
  N  269  1  0.80113600  0.80598500  0.95548400  1
  N  311  1  0.30170100  0.30599800  0.95622300  1
  N  312  1  0.45736600  0.45195600  0.95597500  1
  N  313  1  0.30139300  0.45130200  0.80223000  1
  N  314  1  0.45772700  0.30600800  0.80258200  1
  N  356  1  0.45716300  0.95162100  0.45639400  1
  N  357  1  0.30123600  0.80570900  0.45605100  1
  N  358  1  0.45734900  0.80623900  0.30245700  1
  N  359  1  0.30115900  0.95174500  0.30274300  1
  N  367  1  0.02599700  0.97008100  0.95989300  1
  N  370  1  0.98250200  0.03548900  0.04963300  1
  N  385  1  0.73290500  0.28735900  0.45978500  1
  N  388  1  0.77650600  0.22213400  0.54958600  1
  N  403  1  0.23283900  0.46993900  0.79803400  1
  N  406  1  0.27637100  0.53560100  0.70844200  1
  N  421  1  0.52581100  0.78739700  0.29829600  1
  N  424  1  0.48228000  0.72222200  0.20844300  1
  N  439  1  0.27580200  0.71969800  0.54791600  1
  N  442  1  0.23215500  0.78580000  0.45860600  1
  N  457  1  0.77648600  0.53856700  0.21038400  1
  N  460  1  0.73193200  0.46936800  0.29760500  1
  N  475  1  0.48338600  0.22308000  0.70802600  1
  N  478  1  0.52562700  0.28484700  0.80008500  1
  N  493  1  0.02543400  0.47278000  0.45786500  1
  N  496  1  0.98314800  0.53449200  0.54993600  1
  N  511  1  0.73320000  0.78509600  0.95814100  1
  N  514  1  0.77548700  0.72290200  0.04997100  1
  N  529  1  0.23328900  0.97278900  0.30007900  1
  N  532  1  0.27565000  0.03467700  0.20812100  1
  N  547  1  0.27674400  0.21925300  0.04771600  1
  N  550  1  0.23219200  0.28816500  0.96032600  1
  N  565  1  0.77605100  0.03778100  0.71011500  1
  N  568  1  0.73238200  0.97188400  0.79953100  1
  N  583  1  0.52677100  0.96923900  0.46054500  1
  N  586  1  0.48221000  0.03865700  0.54763500  1
  N  601  1  0.02670500  0.78820000  0.79761900  1
  N  604  1  0.98203700  0.71894100  0.71047500  1
  N  619  1  0.98292000  0.21984800  0.20996700  1
  N  622  1  0.02651000  0.28576200  0.29940000  1
  N  637  1  0.52636700  0.47193500  0.95857200  1
  N  640  1  0.48272700  0.53776200  0.04803300  1
  N  689  1  0.20773900  0.05575900  0.39294700  1
  N  690  1  0.05148500  0.20119900  0.39321600  1
  N  691  1  0.05147900  0.05557600  0.23956500  1
  N  692  1  0.20724100  0.20140100  0.23924100  1
  N  734  1  0.55128300  0.20193900  0.89294200  1
  N  735  1  0.70750500  0.05643500  0.89330700  1
  N  736  1  0.70753400  0.20196300  0.73954400  1
  N  737  1  0.55176000  0.05621300  0.73931100  1
  N  779  1  0.05103500  0.55564100  0.73992300  1
  N  780  1  0.20723400  0.70111500  0.73959400  1
  N  781  1  0.20734200  0.55552700  0.89329800  1
  N  782  1  0.05157600  0.70128400  0.89365800  1
  N  824  1  0.70752900  0.70196600  0.24000500  1
  N  825  1  0.55127100  0.55649300  0.23964100  1
  N  826  1  0.55122000  0.70204600  0.39336800  1
  N  827  1  0.70696300  0.55626500  0.39364400  1
  N  869  1  0.80150600  0.45161900  0.48912900  1
  N  870  1  0.95744100  0.30572000  0.48935400  1
  N  871  1  0.80138100  0.30619400  0.64303100  1
  N  872  1  0.95757400  0.45166300  0.64270600  1
  N  914  1  0.95714100  0.80590500  0.98924100  1
  N  915  1  0.80141700  0.95190200  0.98953700  1
  N  916  1  0.95748400  0.95130700  0.14319100  1
  N  917  1  0.80113600  0.80598500  0.14291800  1
  N  959  1  0.30170100  0.30599800  0.14365700  1
  N  960  1  0.45736600  0.45195600  0.14340900  1
  N  961  1  0.30139300  0.45130200  0.98966400  1
  N  962  1  0.45772700  0.30600800  0.99001600  1
  N  1004  1  0.45716300  0.95162100  0.64382800  1
  N  1005  1  0.30123600  0.80570900  0.64348500  1
  N  1006  1  0.45734900  0.80623900  0.48989100  1
  N  1007  1  0.30115900  0.95174500  0.49017700  1
  N  1015  1  0.02599700  0.97008100  0.14732700  1
  N  1018  1  0.98250200  0.03548900  0.23706700  1
  N  1033  1  0.73290500  0.28735900  0.64721900  1
  N  1036  1  0.77650600  0.22213400  0.73702000  1
  N  1051  1  0.23283900  0.46993900  0.98546800  1
  N  1054  1  0.27637100  0.53560100  0.89587600  1
  N  1069  1  0.52581100  0.78739700  0.48573000  1
  N  1072  1  0.48228000  0.72222200  0.39587700  1
  N  1087  1  0.27580200  0.71969800  0.73535000  1
  N  1090  1  0.23215500  0.78580000  0.64604000  1
  N  1105  1  0.77648600  0.53856700  0.39781800  1
  N  1108  1  0.73193200  0.46936800  0.48503900  1
  N  1123  1  0.48338600  0.22308000  0.89546000  1
  N  1126  1  0.52562700  0.28484700  0.98751900  1
  N  1141  1  0.02543400  0.47278000  0.64529900  1
  N  1144  1  0.98314800  0.53449200  0.73737000  1
  N  1159  1  0.73320000  0.78509600  0.14557500  1
  N  1162  1  0.77548700  0.72290200  0.23740500  1
  N  1177  1  0.23328900  0.97278900  0.48751300  1
  N  1180  1  0.27565000  0.03467700  0.39555500  1
  N  1195  1  0.27674400  0.21925300  0.23515000  1
  N  1198  1  0.23219200  0.28816500  0.14776000  1
  N  1213  1  0.77605100  0.03778100  0.89754900  1
  N  1216  1  0.73238200  0.97188400  0.98696500  1
  N  1231  1  0.52677100  0.96923900  0.64797900  1
  N  1234  1  0.48221000  0.03865700  0.73506900  1
  N  1249  1  0.02670500  0.78820000  0.98505300  1
  N  1252  1  0.98203700  0.71894100  0.89790900  1
  N  1267  1  0.98292000  0.21984800  0.39740100  1
  N  1270  1  0.02651000  0.28576200  0.48683400  1
  N  1285  1  0.52636700  0.47193500  0.14600600  1
  N  1288  1  0.48272700  0.53776200  0.23546700  1
  N  1337  1  0.20773900  0.05575900  0.58038000  1
  N  1338  1  0.05148500  0.20119900  0.58064900  1
  N  1339  1  0.05147900  0.05557600  0.42699800  1
  N  1340  1  0.20724100  0.20140100  0.42667400  1
  N  1382  1  0.55128300  0.20193900  0.08037520  1
  N  1383  1  0.70750500  0.05643500  0.08074020  1
  N  1384  1  0.70753400  0.20196300  0.92697700  1
  N  1385  1  0.55176000  0.05621300  0.92674400  1
  N  1427  1  0.05103500  0.55564100  0.92735600  1
  N  1428  1  0.20723400  0.70111500  0.92702700  1
  N  1429  1  0.20734200  0.55552700  0.08073120  1
  N  1430  1  0.05157600  0.70128400  0.08109120  1
  N  1472  1  0.70752900  0.70196600  0.42743800  1
  N  1473  1  0.55127100  0.55649300  0.42707400  1
  N  1474  1  0.55122000  0.70204600  0.58080100  1
  N  1475  1  0.70696300  0.55626500  0.58107700  1
  N  1517  1  0.80150600  0.45161900  0.67656200  1
  N  1518  1  0.95744100  0.30572000  0.67678700  1
  N  1519  1  0.80138100  0.30619400  0.83046400  1
  N  1520  1  0.95757400  0.45166300  0.83013900  1
  N  1562  1  0.95714100  0.80590500  0.17667400  1
  N  1563  1  0.80141700  0.95190200  0.17697000  1
  N  1564  1  0.95748400  0.95130700  0.33062400  1
  N  1565  1  0.80113600  0.80598500  0.33035100  1
  N  1607  1  0.30170100  0.30599800  0.33109000  1
  N  1608  1  0.45736600  0.45195600  0.33084200  1
  N  1609  1  0.30139300  0.45130200  0.17709700  1
  N  1610  1  0.45772700  0.30600800  0.17744900  1
  N  1652  1  0.45716300  0.95162100  0.83126100  1
  N  1653  1  0.30123600  0.80570900  0.83091800  1
  N  1654  1  0.45734900  0.80623900  0.67732400  1
  N  1655  1  0.30115900  0.95174500  0.67761000  1
  N  1663  1  0.02599700  0.97008100  0.33476000  1
  N  1666  1  0.98250200  0.03548900  0.42450000  1
  N  1681  1  0.73290500  0.28735900  0.83465200  1
  N  1684  1  0.77650600  0.22213400  0.92445300  1
  N  1699  1  0.23283900  0.46993900  0.17290100  1
  N  1702  1  0.27637100  0.53560100  0.08330920  1
  N  1717  1  0.52581100  0.78739700  0.67316300  1
  N  1720  1  0.48228000  0.72222200  0.58331000  1
  N  1735  1  0.27580200  0.71969800  0.92278300  1
  N  1738  1  0.23215500  0.78580000  0.83347300  1
  N  1753  1  0.77648600  0.53856700  0.58525100  1
  N  1756  1  0.73193200  0.46936800  0.67247200  1
  N  1771  1  0.48338600  0.22308000  0.08289320  1
  N  1774  1  0.52562700  0.28484700  0.17495200  1
  N  1789  1  0.02543400  0.47278000  0.83273200  1
  N  1792  1  0.98314800  0.53449200  0.92480300  1
  N  1807  1  0.73320000  0.78509600  0.33300800  1
  N  1810  1  0.77548700  0.72290200  0.42483800  1
  N  1825  1  0.23328900  0.97278900  0.67494600  1
  N  1828  1  0.27565000  0.03467700  0.58298800  1
  N  1843  1  0.27674400  0.21925300  0.42258300  1
  N  1846  1  0.23219200  0.28816500  0.33519300  1
  N  1861  1  0.77605100  0.03778100  0.08498220  1
  N  1864  1  0.73238200  0.97188400  0.17439800  1
  N  1879  1  0.52677100  0.96923900  0.83541200  1
  N  1882  1  0.48221000  0.03865700  0.92250200  1
  N  1897  1  0.02670500  0.78820000  0.17248600  1
  N  1900  1  0.98203700  0.71894100  0.08534220  1
  N  1915  1  0.98292000  0.21984800  0.58483400  1
  N  1918  1  0.02651000  0.28576200  0.67426700  1
  N  1933  1  0.52636700  0.47193500  0.33343900  1
  N  1936  1  0.48272700  0.53776200  0.42290000  1
  O  368  1  0.06625600  0.99242500  0.98624800  1
  O  371  1  0.94220600  0.01317400  0.02330800  1
  O  386  1  0.69268200  0.26500600  0.48617500  1
  O  389  1  0.81676800  0.24447400  0.52323700  1
  O  404  1  0.19258400  0.49223000  0.77164100  1
  O  407  1  0.31666200  0.51332700  0.73480000  1
  O  422  1  0.56605300  0.76502900  0.27193700  1
  O  425  1  0.44199900  0.74455800  0.23477300  1
  O  440  1  0.31602500  0.74205600  0.52153000  1
  O  443  1  0.19189200  0.76347100  0.48496300  1
  O  458  1  0.81650900  0.51706100  0.23752400  1
  O  461  1  0.69191000  0.49088400  0.27047100  1
  O  476  1  0.44293300  0.24634000  0.73354000  1
  O  479  1  0.56608000  0.26158900  0.77457100  1
  O  494  1  0.06587000  0.49605300  0.48338900  1
  O  497  1  0.94270900  0.51122900  0.52440800  1
  O  512  1  0.69274200  0.76187600  0.98367600  1
  O  515  1  0.81594700  0.74611900  0.02443600  1
  O  530  1  0.19286900  0.99606200  0.27453800  1
  O  533  1  0.31607100  0.01139800  0.23365900  1
  O  548  1  0.31676600  0.24078900  0.02059300  1
  O  551  1  0.19217000  0.26662900  0.98745000  1
  O  566  1  0.81626400  0.01540700  0.73650300  1
  O  569  1  0.69213000  0.99422500  0.77317200  1
  O  584  1  0.56679100  0.99070000  0.48771400  1
  O  587  1  0.44219000  0.01720000  0.52046100  1
  O  602  1  0.06669300  0.76670400  0.77043500  1
  O  605  1  0.94205100  0.74044700  0.73765500  1
  O  620  1  0.94268300  0.24219500  0.23634300  1
  O  623  1  0.06678700  0.26343300  0.27305900  1
  O  638  1  0.56662400  0.49430300  0.98490900  1
  O  641  1  0.44250400  0.51538200  0.02165700  1
  O  1016  1  0.06625600  0.99242500  0.17368200  1
  O  1019  1  0.94220600  0.01317400  0.21074200  1
  O  1034  1  0.69268200  0.26500600  0.67360900  1
  O  1037  1  0.81676800  0.24447400  0.71067100  1
  O  1052  1  0.19258400  0.49223000  0.95907500  1
  O  1055  1  0.31666200  0.51332700  0.92223400  1
  O  1070  1  0.56605300  0.76502900  0.45937100  1
  O  1073  1  0.44199900  0.74455800  0.42220700  1
  O  1088  1  0.31602500  0.74205600  0.70896400  1
  O  1091  1  0.19189200  0.76347100  0.67239700  1
  O  1106  1  0.81650900  0.51706100  0.42495800  1
  O  1109  1  0.69191000  0.49088400  0.45790500  1
  O  1124  1  0.44293300  0.24634000  0.92097400  1
  O  1127  1  0.56608000  0.26158900  0.96200500  1
  O  1142  1  0.06587000  0.49605300  0.67082300  1
  O  1145  1  0.94270900  0.51122900  0.71184200  1
  O  1160  1  0.69274200  0.76187600  0.17111000  1
  O  1163  1  0.81594700  0.74611900  0.21187000  1
  O  1178  1  0.19286900  0.99606200  0.46197200  1
  O  1181  1  0.31607100  0.01139800  0.42109300  1
  O  1196  1  0.31676600  0.24078900  0.20802700  1
  O  1199  1  0.19217000  0.26662900  0.17488400  1
  O  1214  1  0.81626400  0.01540700  0.92393700  1
  O  1217  1  0.69213000  0.99422500  0.96060600  1
  O  1232  1  0.56679100  0.99070000  0.67514800  1
  O  1235  1  0.44219000  0.01720000  0.70789500  1
  O  1250  1  0.06669300  0.76670400  0.95786900  1
  O  1253  1  0.94205100  0.74044700  0.92508900  1
  O  1268  1  0.94268300  0.24219500  0.42377700  1
  O  1271  1  0.06678700  0.26343300  0.46049300  1
  O  1286  1  0.56662400  0.49430300  0.17234300  1
  O  1289  1  0.44250400  0.51538200  0.20909100  1
  O  1664  1  0.06625600  0.99242500  0.36111500  1
  O  1667  1  0.94220600  0.01317400  0.39817500  1
  O  1682  1  0.69268200  0.26500600  0.86104200  1
  O  1685  1  0.81676800  0.24447400  0.89810400  1
  O  1700  1  0.19258400  0.49223000  0.14650800  1
  O  1703  1  0.31666200  0.51332700  0.10966700  1
  O  1718  1  0.56605300  0.76502900  0.64680400  1
  O  1721  1  0.44199900  0.74455800  0.60964000  1
  O  1736  1  0.31602500  0.74205600  0.89639700  1
  O  1739  1  0.19189200  0.76347100  0.85983000  1
  O  1754  1  0.81650900  0.51706100  0.61239100  1
  O  1757  1  0.69191000  0.49088400  0.64533800  1
  O  1772  1  0.44293300  0.24634000  0.10840700  1
  O  1775  1  0.56608000  0.26158900  0.14943800  1
  O  1790  1  0.06587000  0.49605300  0.85825600  1
  O  1793  1  0.94270900  0.51122900  0.89927500  1
  O  1808  1  0.69274200  0.76187600  0.35854300  1
  O  1811  1  0.81594700  0.74611900  0.39930300  1
  O  1826  1  0.19286900  0.99606200  0.64940500  1
  O  1829  1  0.31607100  0.01139800  0.60852600  1
  O  1844  1  0.31676600  0.24078900  0.39546000  1
  O  1847  1  0.19217000  0.26662900  0.36231700  1
  O  1862  1  0.81626400  0.01540700  0.11137000  1
  O  1865  1  0.69213000  0.99422500  0.14803900  1
  O  1880  1  0.56679100  0.99070000  0.86258100  1
  O  1883  1  0.44219000  0.01720000  0.89532800  1
  O  1898  1  0.06669300  0.76670400  0.14530200  1
  O  1901  1  0.94205100  0.74044700  0.11252200  1
  O  1916  1  0.94268300  0.24219500  0.61121000  1
  O  1919  1  0.06678700  0.26343300  0.64792600  1
  O  1934  1  0.56662400  0.49430300  0.35977600  1
  O  1937  1  0.44250400  0.51538200  0.39652400  1
