# generated using pymatgen
data_H13C16N2O
_symmetry_space_group_name_H-M   'P 1'
_cell_length_a   41.43060000
_cell_length_b   41.43060000
_cell_length_c   54.99840000
_cell_angle_alpha   90.00000000
_cell_angle_beta   90.00000000
_cell_angle_gamma   90.00000000
_symmetry_Int_Tables_number   1
_chemical_formula_structural   H13C16N2O
_chemical_formula_sum   'H416 C512 N64 O32'
_cell_volume   94404.45750841
_cell_formula_units_Z   32
loop_
 _symmetry_equiv_pos_site_id
 _symmetry_equiv_pos_as_xyz
  1  'x, y, z'
loop_
 _atom_site_type_symbol
 _atom_site_label
 _atom_site_symmetry_multiplicity
 _atom_site_fract_x
 _atom_site_fract_y
 _atom_site_fract_z
 _atom_site_occupancy
  H  7  1  0.17339600  0.43523200  0.90554400  1
  H  8  1  0.19724600  0.35813400  0.95200100  1
  H  15  1  0.13183300  0.42058300  0.80168100  1
  H  16  1  0.20929300  0.39697200  0.84779800  1
  H  19  1  0.19848800  0.33134500  0.86631000  1
  H  20  1  0.10646900  0.42503900  0.88767000  1
  H  31  1  0.33110300  0.51737100  0.40554400  1
  H  32  1  0.30725100  0.59446900  0.45200400  1
  H  39  1  0.37266200  0.53202700  0.30168100  1
  H  40  1  0.29520200  0.55562800  0.34780300  1
  H  43  1  0.30600800  0.62125900  0.36631200  1
  H  44  1  0.39803200  0.52757400  0.38766900  1
  H  55  1  0.79277400  0.89589100  0.15532700  1
  H  56  1  0.87007200  0.91943700  0.20168400  1
  H  63  1  0.80654400  0.85617000  0.05099900  1
  H  64  1  0.83237100  0.93215000  0.09763100  1
  H  67  1  0.89691700  0.92097900  0.11616600  1
  H  68  1  0.80034100  0.82998600  0.13676700  1
  H  79  1  0.71172800  0.05670300  0.65532600  1
  H  80  1  0.63443500  0.03315600  0.70168700  1
  H  87  1  0.69793400  0.09643000  0.55099900  1
  H  88  1  0.67213400  0.02044200  0.59763300  1
  H  91  1  0.60758300  0.03161400  0.61617000  1
  H  92  1  0.70414400  0.12261300  0.63676900  1
  H  103  1  0.33141000  0.43321100  0.59769100  1
  H  104  1  0.30834500  0.35550300  0.55165400  1
  H  111  1  0.37006000  0.42165200  0.70196300  1
  H  112  1  0.29323000  0.39720900  0.65543700  1
  H  115  1  0.30386700  0.33032600  0.63767100  1
  H  116  1  0.39706400  0.42287400  0.61631400  1
  H  127  1  0.17307700  0.51938200  0.09769400  1
  H  128  1  0.19614100  0.59708800  0.05165500  1
  H  135  1  0.13445300  0.53093900  0.20197100  1
  H  136  1  0.21127300  0.55536500  0.15542900  1
  H  139  1  0.20063100  0.62226300  0.13767200  1
  H  140  1  0.10741900  0.52974200  0.11632500  1
  H  151  1  0.70970300  0.89568100  0.34789500  1
  H  152  1  0.63175300  0.91837700  0.30198300  1
  H  159  1  0.69917700  0.85875200  0.45255600  1
  H  160  1  0.67227200  0.93413600  0.40565100  1
  H  163  1  0.60655700  0.92315900  0.38782700  1
  H  164  1  0.70206600  0.83099000  0.36711600  1
  H  175  1  0.79479900  0.05692000  0.84789700  1
  H  176  1  0.87274900  0.03422400  0.80198300  1
  H  183  1  0.80536200  0.09386600  0.95255800  1
  H  184  1  0.83224000  0.01846900  0.90565600  1
  H  187  1  0.89794800  0.02943800  0.88782500  1
  H  188  1  0.80244100  0.12161200  0.86711400  1
  H  199  1  0.83278600  0.51676100  0.09920800  1
  H  200  1  0.80886400  0.59388500  0.05280400  1
  H  207  1  0.87204200  0.53028900  0.20353300  1
  H  208  1  0.79630100  0.55656700  0.15683500  1
  H  211  1  0.80723700  0.62091600  0.13825300  1
  H  212  1  0.89845700  0.52407700  0.11783900  1
  H  223  1  0.67171200  0.43583500  0.59921000  1
  H  224  1  0.69563100  0.35871100  0.55280500  1
  H  231  1  0.63245800  0.42233100  0.70353100  1
  H  232  1  0.70819400  0.39602400  0.65683700  1
  H  235  1  0.69725300  0.33168000  0.63825300  1
  H  236  1  0.60604300  0.42853100  0.61783700  1
  H  247  1  0.21061800  0.05769300  0.84899300  1
  H  248  1  0.13493600  0.03129800  0.80221200  1
  H  255  1  0.19651300  0.09578700  0.95320100  1
  H  256  1  0.17056800  0.01979800  0.90663100  1
  H  259  1  0.10714100  0.02801700  0.88745000  1
  H  260  1  0.20298300  0.12222500  0.86767900  1
  H  271  1  0.29388400  0.89491600  0.34899000  1
  H  272  1  0.36956300  0.92132900  0.30221000  1
  H  279  1  0.30799700  0.85681600  0.45319600  1
  H  280  1  0.33392700  0.93281300  0.40663000  1
  H  283  1  0.39735400  0.92460700  0.38745100  1
  H  284  1  0.30152600  0.83038400  0.36767400  1
  H  295  1  0.67149900  0.51876700  0.40658800  1
  H  296  1  0.69459100  0.59654500  0.45255100  1
  H  303  1  0.63500000  0.52908000  0.30194100  1
  H  304  1  0.71015400  0.55643900  0.34889300  1
  H  307  1  0.69941300  0.62192500  0.36677600  1
  H  308  1  0.60702500  0.52613600  0.38730900  1
  H  319  1  0.83301800  0.43384100  0.90658600  1
  H  320  1  0.80992600  0.35606600  0.95254700  1
  H  327  1  0.86949100  0.42355900  0.80193500  1
  H  328  1  0.79435300  0.39617600  0.84889500  1
  H  331  1  0.80509600  0.33068800  0.86677400  1
  H  332  1  0.89748700  0.42647700  0.88730000  1
  H  343  1  0.29588300  0.05780200  0.65675300  1
  H  344  1  0.37218200  0.03248800  0.70323600  1
  H  351  1  0.30678100  0.09317800  0.55226300  1
  H  352  1  0.33387700  0.01783000  0.59911700  1
  H  355  1  0.39839400  0.02593200  0.61768100  1
  H  356  1  0.30361900  0.12123100  0.63745100  1
  H  367  1  0.20861300  0.89479600  0.15675000  1
  H  368  1  0.13232200  0.92012500  0.20323500  1
  H  375  1  0.19768200  0.85940400  0.05226000  1
  H  376  1  0.17060900  0.93476100  0.09911100  1
  H  379  1  0.10610200  0.92667100  0.11768100  1
  H  380  1  0.20087800  0.83136400  0.13745000  1
  H  390  1  0.24788200  0.35564600  0.72901500  1
  H  392  1  0.28130900  0.45080000  0.73534300  1
  H  394  1  0.21814600  0.32915300  0.75878000  1
  H  395  1  0.19091300  0.35550800  0.77331300  1
  H  396  1  0.22660300  0.34273700  0.78847500  1
  H  398  1  0.24381500  0.46843900  0.79474400  1
  H  399  1  0.24764100  0.48582000  0.76572200  1
  H  400  1  0.28232500  0.47145900  0.78129100  1
  H  402  1  0.27104600  0.38533100  0.69394000  1
  H  404  1  0.23817200  0.41020400  0.81225900  1
  H  410  1  0.25660500  0.59693100  0.22900500  1
  H  412  1  0.22322500  0.50176200  0.23533800  1
  H  414  1  0.28631800  0.62344500  0.25877100  1
  H  415  1  0.31355300  0.59711500  0.27332200  1
  H  416  1  0.27784100  0.60986600  0.28846600  1
  H  418  1  0.26070400  0.48415900  0.29475200  1
  H  419  1  0.25689700  0.46676400  0.26573300  1
  H  420  1  0.22220000  0.48111800  0.28129000  1
  H  422  1  0.23347900  0.56723300  0.19393300  1
  H  424  1  0.26632000  0.54240400  0.31225800  1
  H  430  1  0.87338400  0.97219500  0.97900400  1
  H  432  1  0.77820100  0.00546500  0.98554400  1
  H  434  1  0.89994900  0.94227700  0.00865000  1
  H  435  1  0.87362500  0.91499100  0.02316400  1
  H  436  1  0.88644200  0.95061900  0.03838600  1
  H  438  1  0.76074000  0.96767900  0.04486800  1
  H  439  1  0.74329600  0.97156500  0.01586900  1
  H  440  1  0.75761000  0.00622800  0.03149300  1
  H  442  1  0.84348100  0.99548500  0.94398300  1
  H  444  1  0.81906200  0.96182300  0.06231800  1
  H  450  1  0.63113500  0.98038500  0.47900100  1
  H  452  1  0.72634000  0.94717700  0.48553600  1
  H  454  1  0.60455100  0.01027900  0.50865100  1
  H  455  1  0.63085000  0.03757200  0.52318000  1
  H  456  1  0.61805800  0.00192200  0.53838600  1
  H  458  1  0.74377200  0.98494600  0.54487200  1
  H  459  1  0.76122300  0.98108700  0.51587300  1
  H  460  1  0.74692900  0.94640700  0.53148400  1
  H  462  1  0.66104300  0.95713400  0.44398200  1
  H  464  1  0.68544100  0.99077300  0.56231800  1
  H  470  1  0.75636600  0.59752000  0.27551300  1
  H  472  1  0.72324600  0.50226900  0.26902000  1
  H  474  1  0.78609600  0.62416000  0.24578900  1
  H  475  1  0.81332200  0.59789200  0.23115400  1
  H  476  1  0.77758300  0.61068400  0.21607000  1
  H  478  1  0.76066800  0.48496800  0.20953900  1
  H  479  1  0.75705400  0.46746900  0.23853900  1
  H  480  1  0.72223700  0.48171700  0.22308100  1
  H  482  1  0.73330400  0.56748200  0.31059600  1
  H  484  1  0.76649400  0.54344900  0.19212500  1
  H  490  1  0.74814800  0.35510000  0.77552000  1
  H  492  1  0.78123000  0.45036500  0.76902200  1
  H  494  1  0.71843100  0.32844600  0.74579700  1
  H  495  1  0.69120000  0.35469700  0.73115000  1
  H  496  1  0.72695600  0.34191700  0.71608000  1
  H  498  1  0.74381100  0.46763800  0.70953300  1
  H  499  1  0.74741700  0.48514700  0.73853200  1
  H  500  1  0.78224100  0.47090300  0.72307900  1
  H  502  1  0.77119400  0.38513300  0.81059600  1
  H  504  1  0.73800600  0.40914500  0.69212700  1
  H  510  1  0.12939900  0.98030700  0.02537200  1
  H  512  1  0.22489900  0.94777800  0.01932100  1
  H  514  1  0.10270800  0.00958400  0.99541700  1
  H  515  1  0.12886600  0.03688000  0.98074400  1
  H  516  1  0.11641000  0.00093200  0.96578200  1
  H  518  1  0.24226800  0.98483500  0.95971600  1
  H  519  1  0.25962900  0.98159400  0.98879000  1
  H  520  1  0.24572200  0.94654200  0.97345300  1
  H  522  1  0.15960900  0.95787900  0.06072000  1
  H  524  1  0.18383100  0.99017000  0.94207600  1
  H  530  1  0.37507800  0.97231100  0.52537700  1
  H  532  1  0.27955700  0.00477900  0.51933300  1
  H  534  1  0.40178800  0.94306200  0.49541800  1
  H  535  1  0.37565200  0.91576100  0.48072800  1
  H  536  1  0.38808500  0.95172900  0.46578400  1
  H  538  1  0.26221900  0.96773700  0.45971500  1
  H  539  1  0.24484800  0.97095200  0.48878800  1
  H  540  1  0.25873600  0.00602100  0.47346400  1
  H  542  1  0.34486600  0.99470300  0.56072300  1
  H  544  1  0.32066200  0.96243600  0.44207800  1
  H  550  1  0.74822000  0.85392700  0.22926800  1
  H  552  1  0.78085600  0.94940700  0.23503800  1
  H  554  1  0.71880200  0.82745900  0.25921800  1
  H  555  1  0.69133200  0.85370500  0.27360200  1
  H  556  1  0.72714700  0.84142400  0.28883000  1
  H  558  1  0.74323800  0.96733600  0.29435000  1
  H  559  1  0.74692400  0.98444200  0.26522600  1
  H  560  1  0.78172700  0.97053700  0.28088200  1
  H  562  1  0.77087700  0.88365900  0.19394500  1
  H  564  1  0.73823000  0.90935500  0.31222500  1
  H  570  1  0.75627500  0.09867300  0.72927000  1
  H  572  1  0.72365600  0.00318600  0.73503700  1
  H  574  1  0.78568800  0.12514600  0.75921800  1
  H  575  1  0.81315800  0.09890900  0.77361500  1
  H  576  1  0.77732900  0.11118200  0.78882800  1
  H  578  1  0.76127300  0.98526500  0.79435300  1
  H  579  1  0.75759500  0.96815400  0.76522900  1
  H  580  1  0.72278700  0.98205500  0.78088000  1
  H  582  1  0.73362700  0.06893600  0.69394500  1
  H  584  1  0.76627200  0.04324300  0.81222500  1
  H  590  1  0.37294400  0.47214900  0.47912800  1
  H  592  1  0.27772500  0.50540700  0.48534300  1
  H  594  1  0.39935200  0.44226300  0.50884300  1
  H  595  1  0.37298100  0.41487200  0.52318700  1
  H  596  1  0.38561100  0.45047200  0.53853700  1
  H  598  1  0.25984400  0.46742800  0.54452600  1
  H  599  1  0.24260600  0.47150200  0.51547500  1
  H  600  1  0.25686800  0.50605900  0.53126000  1
  H  602  1  0.34343500  0.49548700  0.44408500  1
  H  604  1  0.31787600  0.46192000  0.56217400  1
  H  610  1  0.13154200  0.48043700  0.97913300  1
  H  612  1  0.22677200  0.44719900  0.98534100  1
  H  614  1  0.10513100  0.51031600  0.00884600  1
  H  615  1  0.13149100  0.53770700  0.02320200  1
  H  616  1  0.11887100  0.50209300  0.03853700  1
  H  618  1  0.24464300  0.48517800  0.04452700  1
  H  619  1  0.26188600  0.48111100  0.01547700  1
  H  620  1  0.24762900  0.44654900  0.03125600  1
  H  622  1  0.16105800  0.45710900  0.94408500  1
  H  624  1  0.18661700  0.49067100  0.06217500  1
  H  630  1  0.25601900  0.09920000  0.77524400  1
  H  632  1  0.22369100  0.00362000  0.76933300  1
  H  634  1  0.28544900  0.12579700  0.74533600  1
  H  635  1  0.31292300  0.09962400  0.73087300  1
  H  636  1  0.27707100  0.11191700  0.71570200  1
  H  638  1  0.26128300  0.98598200  0.70996400  1
  H  639  1  0.25777600  0.96878200  0.73907400  1
  H  640  1  0.22285900  0.98256400  0.72350200  1
  H  642  1  0.23342000  0.06916400  0.81057000  1
  H  644  1  0.26645500  0.04416900  0.69217000  1
  H  650  1  0.24849500  0.85340300  0.27523900  1
  H  652  1  0.28081200  0.94898500  0.26932800  1
  H  654  1  0.21906500  0.82680200  0.24533200  1
  H  655  1  0.19159000  0.85296900  0.23086100  1
  H  656  1  0.22745100  0.84068300  0.21570100  1
  H  658  1  0.24321600  0.96661700  0.20996000  1
  H  659  1  0.24672100  0.98382200  0.23906700  1
  H  660  1  0.28164000  0.97003700  0.22349700  1
  H  662  1  0.27109200  0.88343400  0.31056300  1
  H  664  1  0.23804700  0.90842600  0.19216700  1
  H  670  1  0.62978800  0.48032400  0.52523500  1
  H  672  1  0.72533400  0.44783300  0.51952600  1
  H  674  1  0.60326500  0.50958300  0.49521800  1
  H  675  1  0.62947000  0.53701400  0.48074400  1
  H  676  1  0.61722500  0.50110800  0.46562400  1
  H  678  1  0.74315400  0.48516800  0.46009300  1
  H  679  1  0.76029100  0.48169700  0.48922300  1
  H  680  1  0.74644900  0.44677100  0.47369200  1
  H  682  1  0.65962600  0.45786000  0.56061400  1
  H  684  1  0.68505700  0.49013300  0.44223600  1
  H  690  1  0.87472100  0.47228900  0.02523200  1
  H  692  1  0.77917100  0.50476000  0.01952400  1
  H  694  1  0.90125200  0.44303800  0.99521500  1
  H  695  1  0.87505900  0.41560600  0.98073100  1
  H  696  1  0.88729400  0.45152600  0.96562500  1
  H  698  1  0.76136300  0.46742800  0.96008700  1
  H  699  1  0.74421800  0.47089100  0.98921700  1
  H  700  1  0.75805600  0.50582200  0.97369100  1
  H  702  1  0.84487800  0.49474300  0.06061400  1
  H  704  1  0.81945500  0.46247500  0.94223400  1
  H  710  1  0.15695300  0.25972400  0.92691300  1
  H  712  1  0.25721800  0.25402000  0.93667200  1
  H  714  1  0.12290100  0.21500800  0.92566800  1
  H  715  1  0.13684100  0.18308000  0.94408700  1
  H  716  1  0.14135700  0.18127300  0.91196900  1
  H  718  1  0.26270700  0.16520600  0.93892300  1
  H  719  1  0.27576300  0.19844800  0.95636300  1
  H  720  1  0.28162000  0.19793700  0.92438600  1
  H  722  1  0.22577200  0.30565300  0.94304700  1
  H  724  1  0.20265100  0.15158000  0.95354300  1
  H  730  1  0.34754800  0.69288000  0.42691700  1
  H  732  1  0.24728100  0.69858300  0.43667800  1
  H  734  1  0.38159700  0.73759000  0.42566300  1
  H  735  1  0.36765600  0.76951400  0.44408500  1
  H  736  1  0.36314700  0.77133400  0.41196600  1
  H  738  1  0.24179500  0.78739900  0.43890300  1
  H  739  1  0.22874300  0.75417000  0.45635800  1
  H  740  1  0.22287400  0.75465800  0.42438100  1
  H  742  1  0.27873400  0.64695200  0.44305600  1
  H  744  1  0.30181800  0.80102700  0.45353100  1
  H  750  1  0.96861800  0.87968100  0.17644500  1
  H  752  1  0.97377800  0.97996000  0.18628300  1
  H  754  1  0.01351700  0.84586100  0.17529100  1
  H  755  1  0.04525700  0.85992500  0.19384200  1
  H  756  1  0.04724800  0.86451400  0.16173600  1
  H  758  1  0.06254500  0.98588500  0.18882500  1
  H  759  1  0.02913600  0.99876000  0.20615900  1
  H  760  1  0.02980800  0.00465100  0.17418600  1
  H  762  1  0.92229500  0.94841800  0.19242000  1
  H  764  1  0.07640200  0.92584800  0.20346000  1
  H  770  1  0.53588700  0.07291600  0.67645400  1
  H  772  1  0.53072400  0.97263900  0.68629400  1
  H  774  1  0.49099200  0.10673700  0.67529000  1
  H  775  1  0.45925700  0.09267300  0.69384700  1
  H  776  1  0.45725400  0.08809100  0.66174000  1
  H  778  1  0.44195600  0.96671400  0.68881200  1
  H  779  1  0.47535400  0.95384400  0.70615800  1
  H  780  1  0.47470000  0.94794500  0.67418600  1
  H  782  1  0.58220800  0.00418500  0.69243600  1
  H  784  1  0.42809900  0.02672600  0.70345400  1
  H  790  1  0.34758600  0.25771800  0.57755300  1
  H  792  1  0.24739700  0.25168400  0.56747200  1
  H  794  1  0.38173500  0.21309400  0.57914400  1
  H  795  1  0.36798200  0.18095800  0.56085000  1
  H  796  1  0.36327800  0.17944500  0.59296200  1
  H  798  1  0.24213800  0.16283400  0.56566000  1
  H  799  1  0.22910300  0.19588900  0.54801000  1
  H  800  1  0.22305200  0.19564500  0.57997100  1
  H  802  1  0.27885900  0.30332200  0.56085900  1
  H  804  1  0.30252500  0.14922300  0.55132100  1
  H  810  1  0.15690700  0.69487300  0.07753300  1
  H  812  1  0.25710200  0.70090500  0.06749400  1
  H  814  1  0.12275800  0.73949200  0.07911700  1
  H  815  1  0.13652500  0.77162100  0.06082100  1
  H  816  1  0.14119900  0.77315100  0.09293500  1
  H  818  1  0.26236400  0.78975700  0.06570100  1
  H  819  1  0.27541000  0.75670900  0.04804800  1
  H  820  1  0.28144200  0.75694100  0.08001000  1
  H  822  1  0.22563900  0.64926900  0.06086400  1
  H  824  1  0.20203400  0.80337000  0.05133200  1
  H  830  1  0.53385200  0.87970000  0.32801500  1
  H  832  1  0.52836800  0.97991200  0.31791300  1
  H  834  1  0.48904500  0.84577900  0.32948000  1
  H  835  1  0.45710200  0.85967900  0.31106000  1
  H  836  1  0.45539800  0.86441700  0.34316200  1
  H  838  1  0.43956400  0.98561500  0.31579400  1
  H  839  1  0.47279300  0.99848700  0.29826700  1
  H  840  1  0.47237800  0.00453300  0.33022600  1
  H  842  1  0.57985700  0.94836700  0.31152500  1
  H  844  1  0.42571900  0.92527600  0.30140700  1
  H  850  1  0.97064300  0.07290500  0.82799200  1
  H  852  1  0.97613900  0.97268500  0.81792700  1
  H  854  1  0.01544500  0.10683000  0.82945600  1
  H  855  1  0.04738200  0.09292200  0.81103000  1
  H  856  1  0.04910500  0.08821000  0.84313500  1
  H  858  1  0.06494600  0.96699100  0.81582700  1
  H  859  1  0.03172400  0.95410400  0.79829500  1
  H  860  1  0.03212900  0.94807800  0.83025600  1
  H  862  1  0.92464600  0.00423200  0.81152500  1
  H  864  1  0.07878700  0.02728000  0.80141400  1
  H  870  1  0.84803500  0.69260700  0.07786600  1
  H  872  1  0.74774200  0.69719000  0.06792400  1
  H  874  1  0.88162200  0.73768200  0.07889900  1
  H  875  1  0.86742500  0.76924800  0.06023700  1
  H  876  1  0.86276600  0.77138900  0.09233200  1
  H  878  1  0.74138500  0.78591200  0.06500200  1
  H  879  1  0.72868900  0.75229500  0.04782600  1
  H  880  1  0.72275600  0.75320900  0.07979100  1
  H  882  1  0.77951400  0.64583500  0.06206300  1
  H  884  1  0.80172900  0.80008800  0.05056200  1
  H  890  1  0.65645700  0.25999200  0.57784900  1
  H  892  1  0.75675700  0.25540600  0.56793800  1
  H  894  1  0.62287100  0.21492000  0.57888000  1
  H  895  1  0.63707500  0.18336400  0.56021400  1
  H  896  1  0.64171000  0.18120500  0.59230900  1
  H  898  1  0.76311000  0.16668200  0.56503400  1
  H  899  1  0.77581800  0.20029100  0.54785400  1
  H  900  1  0.78173700  0.19938700  0.57982000  1
  H  902  1  0.72498400  0.30676100  0.56206700  1
  H  904  1  0.70281700  0.15250700  0.55057000  1
  H  910  1  0.65649100  0.69462200  0.42673400  1
  H  912  1  0.75673800  0.69952200  0.43685100  1
  H  914  1  0.62280800  0.73961300  0.42541000  1
  H  915  1  0.63687300  0.77138900  0.44392500  1
  H  916  1  0.64163000  0.77323100  0.41182800  1
  H  918  1  0.76288600  0.78828500  0.43933200  1
  H  919  1  0.77560800  0.75484800  0.45669500  1
  H  920  1  0.78164000  0.75550000  0.42473700  1
  H  922  1  0.72495500  0.64816400  0.44300300  1
  H  924  1  0.70229000  0.80246500  0.45356600  1
  H  930  1  0.84801600  0.25798800  0.92674600  1
  H  932  1  0.74776200  0.25309600  0.93683000  1
  H  934  1  0.88169700  0.21299900  0.92542800  1
  H  935  1  0.86761800  0.18123100  0.94394500  1
  H  936  1  0.86288900  0.17937500  0.91184600  1
  H  938  1  0.74160900  0.16432900  0.93928600  1
  H  939  1  0.72888000  0.19775600  0.95665800  1
  H  940  1  0.72286200  0.19712200  0.92469700  1
  H  942  1  0.77955000  0.30445100  0.94299800  1
  H  944  1  0.80213000  0.15014300  0.95355100  1
  H  950  1  0.46866400  0.38186000  0.67714600  1
  H  952  1  0.47384100  0.48215100  0.68695600  1
  H  954  1  0.51353900  0.34801600  0.67604800  1
  H  955  1  0.54530300  0.36209500  0.69456900  1
  H  956  1  0.54726000  0.36663700  0.66245700  1
  H  958  1  0.56261600  0.48802800  0.68958100  1
  H  959  1  0.52917400  0.50093900  0.70686200  1
  H  960  1  0.52992700  0.50680900  0.67488600  1
  H  962  1  0.42231400  0.45045500  0.69310300  1
  H  964  1  0.57653100  0.42776600  0.70404300  1
  H  970  1  0.03583600  0.57075000  0.17717900  1
  H  972  1  0.03066700  0.47045400  0.18695600  1
  H  974  1  0.99095900  0.60459000  0.17607900  1
  H  975  1  0.95920000  0.59049400  0.19459600  1
  H  976  1  0.95723500  0.58597800  0.16248300  1
  H  978  1  0.94188900  0.46456300  0.18954500  1
  H  979  1  0.97531800  0.45165000  0.20683900  1
  H  980  1  0.97459200  0.44578900  0.17486400  1
  H  982  1  0.08219000  0.50214100  0.19310900  1
  H  984  1  0.92796400  0.52476700  0.20403500  1
  H  990  1  0.03385800  0.38186300  0.82728900  1
  H  992  1  0.02836300  0.48209100  0.81723200  1
  H  994  1  0.98906700  0.34792400  0.82871800  1
  H  995  1  0.95709300  0.36184600  0.81033600  1
  H  996  1  0.95543700  0.36653600  0.84244600  1
  H  998  1  0.93954500  0.48775800  0.81506500  1
  H  999  1  0.97279800  0.50067100  0.79758100  1
  H  1000  1  0.97232300  0.50668400  0.82954300  1
  H  1002  1  0.07989000  0.45037500  0.81080700  1
  H  1004  1  0.92563800  0.42719400  0.80084400  1
  H  1010  1  0.47064300  0.57074800  0.32727100  1
  H  1012  1  0.47612700  0.47051000  0.31725400  1
  H  1014  1  0.51543300  0.60467900  0.32869700  1
  H  1015  1  0.54740500  0.59073800  0.31032100  1
  H  1016  1  0.54906500  0.58608200  0.34243300  1
  H  1018  1  0.56494300  0.46482800  0.31512900  1
  H  1019  1  0.53170400  0.45191500  0.29762800  1
  H  1020  1  0.53214800  0.44591200  0.32959300  1
  H  1022  1  0.42460400  0.50222600  0.31081600  1
  H  1024  1  0.57886500  0.52530500  0.30087000  1
  C  1  1  0.17569700  0.38980400  0.88831200  1
  C  2  1  0.17807700  0.41124500  0.90822200  1
  C  3  1  0.18623200  0.39999200  0.93175400  1
  C  4  1  0.19239600  0.36672900  0.93493000  1
  C  5  1  0.18992200  0.34477700  0.91529300  1
  C  6  1  0.18146400  0.35647300  0.89199800  1
  C  9  1  0.16431700  0.40106100  0.86549300  1
  C  10  1  0.13100000  0.40713400  0.86200800  1
  C  11  1  0.11900900  0.41481700  0.83864900  1
  C  12  1  0.14066900  0.41637800  0.81878300  1
  C  13  1  0.17401700  0.41064400  0.82186500  1
  C  14  1  0.18549700  0.40272700  0.84537700  1
  C  25  1  0.32880100  0.56279900  0.38831300  1
  C  26  1  0.32642100  0.54135900  0.40822400  1
  C  27  1  0.31826500  0.55260900  0.43175600  1
  C  28  1  0.31210300  0.58587400  0.43493200  1
  C  29  1  0.31457700  0.60782600  0.41529500  1
  C  30  1  0.32303200  0.59613000  0.39200000  1
  C  33  1  0.34017900  0.55154200  0.36549400  1
  C  34  1  0.37349700  0.54547600  0.36200800  1
  C  35  1  0.38548800  0.53779400  0.33864800  1
  C  36  1  0.36382500  0.53623000  0.31878400  1
  C  37  1  0.33047800  0.54196200  0.32186500  1
  C  38  1  0.31899900  0.54987600  0.34537900  1
  C  49  1  0.83815900  0.89806400  0.13801100  1
  C  50  1  0.81679300  0.90043900  0.15797400  1
  C  51  1  0.82813500  0.90851000  0.18149900  1
  C  52  1  0.86141700  0.91461200  0.18462300  1
  C  53  1  0.88330400  0.91217900  0.16494600  1
  C  54  1  0.87151300  0.90380600  0.14165700  1
  C  57  1  0.82675900  0.88714900  0.11507900  1
  C  58  1  0.81948900  0.85409400  0.11138900  1
  C  59  1  0.81220700  0.84236300  0.08785000  1
  C  60  1  0.81136700  0.86438800  0.06815500  1
  C  61  1  0.81792500  0.89753300  0.07146800  1
  C  62  1  0.82601600  0.90853400  0.09505800  1
  C  73  1  0.66634100  0.05452900  0.63801300  1
  C  74  1  0.68770900  0.05215500  0.65797500  1
  C  75  1  0.67637000  0.04408200  0.68150100  1
  C  76  1  0.64308800  0.03798100  0.68462700  1
  C  77  1  0.62119800  0.04041400  0.66495100  1
  C  78  1  0.63298700  0.04878600  0.64166000  1
  C  81  1  0.67773900  0.06544600  0.61508100  1
  C  82  1  0.68500100  0.09850100  0.61139000  1
  C  83  1  0.69227900  0.11023400  0.58785100  1
  C  84  1  0.69312100  0.08820900  0.56815600  1
  C  85  1  0.68657000  0.05506300  0.57146900  1
  C  86  1  0.67848700  0.04405900  0.59506000  1
  C  97  1  0.32754600  0.38826200  0.61544100  1
  C  98  1  0.32582000  0.40937400  0.59529000  1
  C  99  1  0.31793900  0.39781500  0.57179100  1
  C  100  1  0.31242600  0.36441400  0.56875100  1
  C  101  1  0.31410400  0.34280700  0.58864400  1
  C  102  1  0.32167800  0.35490200  0.61199500  1
  C  105  1  0.33868500  0.39976000  0.63826000  1
  C  106  1  0.37196900  0.40574900  0.64198200  1
  C  107  1  0.38355700  0.41431200  0.66528600  1
  C  108  1  0.36154700  0.41667100  0.68489000  1
  C  109  1  0.32832800  0.41032700  0.68167200  1
  C  110  1  0.31717600  0.40206500  0.65813700  1
  C  121  1  0.17694600  0.56433000  0.11544300  1
  C  122  1  0.17866800  0.54322000  0.09529100  1
  C  123  1  0.18654700  0.55477900  0.07179200  1
  C  124  1  0.19206100  0.58817700  0.06875100  1
  C  125  1  0.19038700  0.60978600  0.08864600  1
  C  126  1  0.18281400  0.59768900  0.11199600  1
  C  129  1  0.16581000  0.55283300  0.13826200  1
  C  130  1  0.13252500  0.54685500  0.14199100  1
  C  131  1  0.12094400  0.53829100  0.16529700  1
  C  132  1  0.14296100  0.53592500  0.18489600  1
  C  133  1  0.17618000  0.54225600  0.18167100  1
  C  134  1  0.18732600  0.55051900  0.15813400  1
  C  145  1  0.66479600  0.89938200  0.36573900  1
  C  146  1  0.68582400  0.90111700  0.34553200  1
  C  147  1  0.67415400  0.90889400  0.32204400  1
  C  148  1  0.64073400  0.91433000  0.31906500  1
  C  149  1  0.61920400  0.91270000  0.33900800  1
  C  150  1  0.63141000  0.90521100  0.36234500  1
  C  153  1  0.67645400  0.88867700  0.38865600  1
  C  154  1  0.68369300  0.85565500  0.39252700  1
  C  155  1  0.69186300  0.84431400  0.41601000  1
  C  156  1  0.69350700  0.86666700  0.43546700  1
  C  157  1  0.68629700  0.89966400  0.43206500  1
  C  158  1  0.67779600  0.91036100  0.40847200  1
  C  169  1  0.83970800  0.05321600  0.86574100  1
  C  170  1  0.81868000  0.05148200  0.84553100  1
  C  171  1  0.83034800  0.04370700  0.82204300  1
  C  172  1  0.86376800  0.03826800  0.81906300  1
  C  173  1  0.88529800  0.03989800  0.83900500  1
  C  174  1  0.87309400  0.04738600  0.86234200  1
  C  177  1  0.82805300  0.06392500  0.88865600  1
  C  178  1  0.82081600  0.09694800  0.89252500  1
  C  179  1  0.81265600  0.10829500  0.91600600  1
  C  180  1  0.81101700  0.08594700  0.93546600  1
  C  181  1  0.81822400  0.05294800  0.93206600  1
  C  182  1  0.82671300  0.04224600  0.90847500  1
  C  193  1  0.83045400  0.56216700  0.11648700  1
  C  194  1  0.82815200  0.54076000  0.09654500  1
  C  195  1  0.82000300  0.55203700  0.07302000  1
  C  196  1  0.81374700  0.58528000  0.06986900  1
  C  197  1  0.81607800  0.60720400  0.08952900  1
  C  198  1  0.82453600  0.59548800  0.11282300  1
  C  201  1  0.84132100  0.55079800  0.13943900  1
  C  202  1  0.87432800  0.54333500  0.14315900  1
  C  203  1  0.88596600  0.53593300  0.16670300  1
  C  204  1  0.86389600  0.53518400  0.18637100  1
  C  205  1  0.83080200  0.54193500  0.18302000  1
  C  206  1  0.81988700  0.55011800  0.15943000  1
  C  217  1  0.67404100  0.39043100  0.61648600  1
  C  218  1  0.67634600  0.41183800  0.59654600  1
  C  219  1  0.68449200  0.40055900  0.57302000  1
  C  220  1  0.69074800  0.36731600  0.56987100  1
  C  221  1  0.68841400  0.34539500  0.58952900  1
  C  222  1  0.67995700  0.35711100  0.61282300  1
  C  225  1  0.66317400  0.40180000  0.63944000  1
  C  226  1  0.63017000  0.40927000  0.64315800  1
  C  227  1  0.61853300  0.41667800  0.66666667  1
  C  228  1  0.64060400  0.41742600  0.68636800  1
  C  229  1  0.67369600  0.41066800  0.68302100  1
  C  230  1  0.68461000  0.40247800  0.65943000  1
  C  241  1  0.16520000  0.05374300  0.86609400  1
  C  242  1  0.18678500  0.05238200  0.84621300  1
  C  243  1  0.17595700  0.04400300  0.82263200  1
  C  244  1  0.14293200  0.03687600  0.81929600  1
  C  245  1  0.12066600  0.03847900  0.83881100  1
  C  246  1  0.13214100  0.04656000  0.86227700  1
  C  249  1  0.17615600  0.06478700  0.88913800  1
  C  250  1  0.18359700  0.09782100  0.89280900  1
  C  251  1  0.19094400  0.10957000  0.91633500  1
  C  252  1  0.19165100  0.08757600  0.93605000  1
  C  253  1  0.18496100  0.05446100  0.93276400  1
  C  254  1  0.17686500  0.04343300  0.90918600  1
  C  265  1  0.33930300  0.89887200  0.36609000  1
  C  266  1  0.31771700  0.90023100  0.34621000  1
  C  267  1  0.32854500  0.90861400  0.32262900  1
  C  268  1  0.36156900  0.91574600  0.31929400  1
  C  269  1  0.38383500  0.91414400  0.33881000  1
  C  270  1  0.37236000  0.90606000  0.36227600  1
  C  273  1  0.32834700  0.88782500  0.38913600  1
  C  274  1  0.32090800  0.85478900  0.39280400  1
  C  275  1  0.31356300  0.84303900  0.41633000  1
  C  276  1  0.31285600  0.86503000  0.43604700  1
  C  277  1  0.31953900  0.89814600  0.43276100  1
  C  278  1  0.32763500  0.90917600  0.40918200  1
  C  289  1  0.67534200  0.56369500  0.38878400  1
  C  290  1  0.67701700  0.54262600  0.40897000  1
  C  291  1  0.68487100  0.55423100  0.43245900  1
  C  292  1  0.69047300  0.58761200  0.43546500  1
  C  293  1  0.68893300  0.60917600  0.41554300  1
  C  294  1  0.68134900  0.59704700  0.39219800  1
  C  297  1  0.66468100  0.55206600  0.36584800  1
  C  298  1  0.63170500  0.54463200  0.36195600  1
  C  299  1  0.62045000  0.53635700  0.33847000  1
  C  300  1  0.64284400  0.53481500  0.31903600  1
  C  301  1  0.67579100  0.54221100  0.32246700  1
  C  302  1  0.68640600  0.55080100  0.34605700  1
  C  313  1  0.82917300  0.38891600  0.88878000  1
  C  314  1  0.82750200  0.40998200  0.90896600  1
  C  315  1  0.81964600  0.39838000  0.93245500  1
  C  316  1  0.81404400  0.36499900  0.93546100  1
  C  317  1  0.81557900  0.34343500  0.91553700  1
  C  318  1  0.82316300  0.35556300  0.89219400  1
  C  321  1  0.83982900  0.40054500  0.86584300  1
  C  322  1  0.87280200  0.40798100  0.86194600  1
  C  323  1  0.88405200  0.41626300  0.83846000  1
  C  324  1  0.86165300  0.41781200  0.81903000  1
  C  325  1  0.82870900  0.41041400  0.82246700  1
  C  326  1  0.81809900  0.40181200  0.84605500  1
  C  337  1  0.34085000  0.05245600  0.63919400  1
  C  338  1  0.31956800  0.05167900  0.65928200  1
  C  339  1  0.33069800  0.04365400  0.68285000  1
  C  340  1  0.36387900  0.03722600  0.68609200  1
  C  341  1  0.38580900  0.03802800  0.66633700  1
  C  342  1  0.37393900  0.04523400  0.64282000  1
  C  345  1  0.32966500  0.06327400  0.61615000  1
  C  346  1  0.32224700  0.09627300  0.61229200  1
  C  347  1  0.31401900  0.10762000  0.58881800  1
  C  348  1  0.31250300  0.08528400  0.56934900  1
  C  349  1  0.31984800  0.05232000  0.57273100  1
  C  350  1  0.32838100  0.04161500  0.59631100  1
  C  361  1  0.16364700  0.90014400  0.13919300  1
  C  362  1  0.18492900  0.90091900  0.15928000  1
  C  363  1  0.17380400  0.90894900  0.18284700  1
  C  364  1  0.14062400  0.91538200  0.18609100  1
  C  365  1  0.11869100  0.91458100  0.16633600  1
  C  366  1  0.13055900  0.90736800  0.14281900  1
  C  369  1  0.17482800  0.88932100  0.11614900  1
  C  370  1  0.18224400  0.85632200  0.11229300  1
  C  371  1  0.19046300  0.84497000  0.08881900  1
  C  372  1  0.19197100  0.86730100  0.06934600  1
  C  373  1  0.18462900  0.90026700  0.07272500  1
  C  374  1  0.17610500  0.91097700  0.09630600  1
  C  385  1  0.26709700  0.40271500  0.72884800  1
  C  386  1  0.24923400  0.37678700  0.73864600  1
  C  387  1  0.23383100  0.37887700  0.76156300  1
  C  388  1  0.23576600  0.40828100  0.77502200  1
  C  389  1  0.25341700  0.43490100  0.76527100  1
  C  391  1  0.26878200  0.43161100  0.74238500  1
  C  393  1  0.21645500  0.34989400  0.77097100  1
  C  397  1  0.25685900  0.46679800  0.77758600  1
  C  401  1  0.28172400  0.39936200  0.70620900  1
  C  403  1  0.22291900  0.40985700  0.79833000  1
  C  405  1  0.23742000  0.54985200  0.22883700  1
  C  406  1  0.25527500  0.57578500  0.23863400  1
  C  407  1  0.27066000  0.57371200  0.26155800  1
  C  408  1  0.26873600  0.54431100  0.27501900  1
  C  409  1  0.25110000  0.51768000  0.26526700  1
  C  411  1  0.23574400  0.52095800  0.24237800  1
  C  413  1  0.28800900  0.60271200  0.27096800  1
  C  417  1  0.24766700  0.48578600  0.27759000  1
  C  421  1  0.22280500  0.55318300  0.20619100  1
  C  423  1  0.28157700  0.54275600  0.29833000  1
  C  425  1  0.82629500  0.99135700  0.97895100  1
  C  426  1  0.85226400  0.97347900  0.98867000  1
  C  427  1  0.85023900  0.95796200  0.01154700  1
  C  428  1  0.82086700  0.95979800  0.02504800  1
  C  429  1  0.79420100  0.97745700  0.01537700  1
  C  431  1  0.79742600  0.99293600  0.99253000  1
  C  433  1  0.87924200  0.94054200  0.02086900  1
  C  437  1  0.76231900  0.98078500  0.02773200  1
  C  441  1  0.82955400  0.00610500  0.95634700  1
  C  443  1  0.81931800  0.94673100  0.04828800  1
  C  445  1  0.67823800  0.96125900  0.47894300  1
  C  446  1  0.65226000  0.97912500  0.48865900  1
  C  447  1  0.65427300  0.99462800  0.51154500  1
  C  448  1  0.68364200  0.99280100  0.52504800  1
  C  449  1  0.71032100  0.97516400  0.51537300  1
  C  451  1  0.70710800  0.95969500  0.49252100  1
  C  453  1  0.62525300  0.01202000  0.52087300  1
  C  457  1  0.74220300  0.97185000  0.52772900  1
  C  461  1  0.67499700  0.94652300  0.45633100  1
  C  463  1  0.68517800  0.00586700  0.54828800  1
  C  465  1  0.73731000  0.55038600  0.27559300  1
  C  466  1  0.75507000  0.57641000  0.26583800  1
  C  467  1  0.77045300  0.57443800  0.24290900  1
  C  468  1  0.76857000  0.54507800  0.22939900  1
  C  469  1  0.75103700  0.51835600  0.23910300  1
  C  471  1  0.73569800  0.52152500  0.26200600  1
  C  473  1  0.78778000  0.60347500  0.23354700  1
  C  477  1  0.74769700  0.48648600  0.22673500  1
  C  481  1  0.72265000  0.55359600  0.29822500  1
  C  483  1  0.78158900  0.54355300  0.20615300  1
  C  485  1  0.76717700  0.40224400  0.77560000  1
  C  486  1  0.74942200  0.37621700  0.76584900  1
  C  487  1  0.73405000  0.37817500  0.74291500  1
  C  488  1  0.73592000  0.40753500  0.72940200  1
  C  489  1  0.75344600  0.43426100  0.73910600  1
  C  491  1  0.76878000  0.43110400  0.76201100  1
  C  493  1  0.71674400  0.34912900  0.73355200  1
  C  497  1  0.75678200  0.46612900  0.72673100  1
  C  501  1  0.78183300  0.39905100  0.79823700  1
  C  503  1  0.72290600  0.40904300  0.70615400  1
  C  505  1  0.17665800  0.96157700  0.02568200  1
  C  506  1  0.15056700  0.97907200  0.01576400  1
  C  507  1  0.15255600  0.99427000  0.99276400  1
  C  508  1  0.18199900  0.99248700  0.97934900  1
  C  509  1  0.20878400  0.97521200  0.98922100  1
  C  511  1  0.20559800  0.96004200  0.01218600  1
  C  513  1  0.12345100  0.01131800  0.98323300  1
  C  517  1  0.24074700  0.97199900  0.97696900  1
  C  521  1  0.17343100  0.94709000  0.04837500  1
  C  523  1  0.18356200  0.00535300  0.95605200  1
  C  525  1  0.32780600  0.99100500  0.52569300  1
  C  526  1  0.35390500  0.97352300  0.51577500  1
  C  527  1  0.35193100  0.95834000  0.49276700  1
  C  528  1  0.32248600  0.96011500  0.47935200  1
  C  529  1  0.29569000  0.97736500  0.48922700  1
  C  531  1  0.29886400  0.99252800  0.51219800  1
  C  533  1  0.38104900  0.94132400  0.48323000  1
  C  537  1  0.26372600  0.98056600  0.47697300  1
  C  541  1  0.33101400  0.00548000  0.54839200  1
  C  543  1  0.32093700  0.94725200  0.45605300  1
  C  545  1  0.76704700  0.90114400  0.22882600  1
  C  546  1  0.74941000  0.87517000  0.23878500  1
  C  547  1  0.73402500  0.87735400  0.26170700  1
  C  548  1  0.73571000  0.90690300  0.27500200  1
  C  549  1  0.75313000  0.93356900  0.26508000  1
  C  551  1  0.76850500  0.93018300  0.24220100  1
  C  553  1  0.71692500  0.84830600  0.27128600  1
  C  557  1  0.75630100  0.96562300  0.27720400  1
  C  561  1  0.78162300  0.89771100  0.20617100  1
  C  563  1  0.72292300  0.90858300  0.29833600  1
  C  565  1  0.73746000  0.05145100  0.72882400  1
  C  566  1  0.75510200  0.07742300  0.73878100  1
  C  567  1  0.77047900  0.07524600  0.76170500  1
  C  568  1  0.76879200  0.04569600  0.77500200  1
  C  569  1  0.75138000  0.01902600  0.76507800  1
  C  571  1  0.73600700  0.02241100  0.74219900  1
  C  573  1  0.78756600  0.10430000  0.77128900  1
  C  577  1  0.74821300  0.98697400  0.77720400  1
  C  581  1  0.72288400  0.05488500  0.70616900  1
  C  583  1  0.78158000  0.04402900  0.79833700  1
  C  585  1  0.32585800  0.49131600  0.47891500  1
  C  586  1  0.35175700  0.47340600  0.48871200  1
  C  587  1  0.34958500  0.45783300  0.51156000  1
  C  588  1  0.32011600  0.45961900  0.52494900  1
  C  589  1  0.29352500  0.47731700  0.51519600  1
  C  591  1  0.29689900  0.49285800  0.49238300  1
  C  593  1  0.37855600  0.44044300  0.52097100  1
  C  597  1  0.26156300  0.48062800  0.52743900  1
  C  601  1  0.32928600  0.50607500  0.45632600  1
  C  603  1  0.31847500  0.44668900  0.54823500  1
  C  605  1  0.17863500  0.46128700  0.97891500  1
  C  606  1  0.15273700  0.47919900  0.98870800  1
  C  607  1  0.15490400  0.49476000  0.01156000  1
  C  608  1  0.18437200  0.49297400  0.02494900  1
  C  609  1  0.21097000  0.47528700  0.01519500  1
  C  611  1  0.20759600  0.45975000  0.99238100  1
  C  613  1  0.12592400  0.51213600  0.02097500  1
  C  617  1  0.24292900  0.47198000  0.02743800  1
  C  621  1  0.17520700  0.44652500  0.95632500  1
  C  623  1  0.18600200  0.50590200  0.04823600  1
  C  625  1  0.23734700  0.05191900  0.77561100  1
  C  626  1  0.25488700  0.07798100  0.76569300  1
  C  627  1  0.27027100  0.07590000  0.74276500  1
  C  628  1  0.26864700  0.04638600  0.72942600  1
  C  629  1  0.25133600  0.01962500  0.73930600  1
  C  631  1  0.23597100  0.02290700  0.76219400  1
  C  633  1  0.28732900  0.10499300  0.73322400  1
  C  637  1  0.24827300  0.98758700  0.72714100  1
  C  641  1  0.22272100  0.05522800  0.79825200  1
  C  643  1  0.28161100  0.04474200  0.70615800  1
  C  645  1  0.26715500  0.90068700  0.27560800  1
  C  646  1  0.24960500  0.87462700  0.26569300  1
  C  647  1  0.23423000  0.87670500  0.24276300  1
  C  648  1  0.23585200  0.90622200  0.22942600  1
  C  649  1  0.25316100  0.93298000  0.23930500  1
  C  651  1  0.26852600  0.92970000  0.26219300  1
  C  653  1  0.21718400  0.84760600  0.23321900  1
  C  657  1  0.25622400  0.96501400  0.22713700  1
  C  661  1  0.28178500  0.89737600  0.29824700  1
  C  663  1  0.22289100  0.90785400  0.20615500  1
  C  665  1  0.67704600  0.46159600  0.52570900  1
  C  666  1  0.65103100  0.47912900  0.51571600  1
  C  667  1  0.65317700  0.49440800  0.49275400  1
  C  668  1  0.68272500  0.49270100  0.47946100  1
  C  669  1  0.70943300  0.47538300  0.48941400  1
  C  671  1  0.70608500  0.46011900  0.51233400  1
  C  673  1  0.62410400  0.51142700  0.48313500  1
  C  677  1  0.74148400  0.47220900  0.47728600  1
  C  681  1  0.67364700  0.44708800  0.54838300  1
  C  683  1  0.68439100  0.50544600  0.45612400  1
  C  685  1  0.82745900  0.49100200  0.02570900  1
  C  686  1  0.85347600  0.47346400  0.01571900  1
  C  687  1  0.85133500  0.45819500  0.99275300  1
  C  688  1  0.82178700  0.45990400  0.97945900  1
  C  689  1  0.79507500  0.47721300  0.98941300  1
  C  691  1  0.79842000  0.49247400  0.01233500  1
  C  693  1  0.88041700  0.44119600  0.98313100  1
  C  697  1  0.76302600  0.48038400  0.97728400  1
  C  701  1  0.83085700  0.50551100  0.04838300  1
  C  703  1  0.82013300  0.44716200  0.95612000  1
  C  705  1  0.20741300  0.26189600  0.93152600  1
  C  706  1  0.17741800  0.24608900  0.92890100  1
  C  707  1  0.17477000  0.21205700  0.92989000  1
  C  708  1  0.20321200  0.19317600  0.93337200  1
  C  709  1  0.23379500  0.20870800  0.93561500  1
  C  711  1  0.23528000  0.24281600  0.93475500  1
  C  713  1  0.14209400  0.19716000  0.92778600  1
  C  717  1  0.26504600  0.19140200  0.93902100  1
  C  721  1  0.20970500  0.29534000  0.93206400  1
  C  723  1  0.20067200  0.16012900  0.93674800  1
  C  725  1  0.29708700  0.69071000  0.43153200  1
  C  726  1  0.32708000  0.70651400  0.42888100  1
  C  727  1  0.32972700  0.74054700  0.42987800  1
  C  728  1  0.30128500  0.75942900  0.43335800  1
  C  729  1  0.27070300  0.74389500  0.43560700  1
  C  731  1  0.26921900  0.70978700  0.43475800  1
  C  733  1  0.36240600  0.75544000  0.42778100  1
  C  737  1  0.23945400  0.76120300  0.43901100  1
  C  741  1  0.29479700  0.65726300  0.43207000  1
  C  743  1  0.30383400  0.79247500  0.43674000  1
  C  745  1  0.96616100  0.93012200  0.18108300  1
  C  746  1  0.98213700  0.90021200  0.17848500  1
  C  747  1  0.01618000  0.89773300  0.17958100  1
  C  748  1  0.03490700  0.92625800  0.18315200  1
  C  749  1  0.01920700  0.95676200  0.18535600  1
  C  751  1  0.98509600  0.95807700  0.18438500  1
  C  753  1  0.03125500  0.86513900  0.17749600  1
  C  757  1  0.03633800  0.98809400  0.18883600  1
  C  761  1  0.93269300  0.93226300  0.18155800  1
  C  763  1  0.06795400  0.92388000  0.18663600  1
  C  765  1  0.53834200  0.02247500  0.68109400  1
  C  766  1  0.52236500  0.05238200  0.67847000  1
  C  767  1  0.48832300  0.05486200  0.67957400  1
  C  768  1  0.46959500  0.02633800  0.68314500  1
  C  769  1  0.48529600  0.99583700  0.68535200  1
  C  771  1  0.51940600  0.99451900  0.68439200  1
  C  773  1  0.47325400  0.08746100  0.67749500  1
  C  777  1  0.46816100  0.96450500  0.68883000  1
  C  781  1  0.57181000  0.02033700  0.68156800  1
  C  783  1  0.43655000  0.02872600  0.68663200  1
  C  785  1  0.29715300  0.25972100  0.57275600  1
  C  786  1  0.32716700  0.24401300  0.57556500  1
  C  787  1  0.32989900  0.20997900  0.57476200  1
  C  788  1  0.30152100  0.19099400  0.57128300  1
  C  789  1  0.27091800  0.20643600  0.56885100  1
  C  791  1  0.26934900  0.24054800  0.56952500  1
  C  793  1  0.36259700  0.19518000  0.57705600  1
  C  797  1  0.23973100  0.18902300  0.56542500  1
  C  801  1  0.29479200  0.29315100  0.57202700  1
  C  803  1  0.30416900  0.15792300  0.56809200  1
  C  805  1  0.20734500  0.69287000  0.07275500  1
  C  806  1  0.17733100  0.70857800  0.07557800  1
  C  807  1  0.17459900  0.74261100  0.07476200  1
  C  808  1  0.20297900  0.76159400  0.07129100  1
  C  809  1  0.23358300  0.74615400  0.06887200  1
  C  811  1  0.23515200  0.71204200  0.06954100  1
  C  813  1  0.14189600  0.75740700  0.07703600  1
  C  817  1  0.26477300  0.76356900  0.06546000  1
  C  821  1  0.20970300  0.65944000  0.07202900  1
  C  823  1  0.20032500  0.79466400  0.06809800  1
  C  825  1  0.53614500  0.93012000  0.32322400  1
  C  826  1  0.52026500  0.90018800  0.32598400  1
  C  827  1  0.48622100  0.89762700  0.32506400  1
  C  828  1  0.46738900  0.92608900  0.32151100  1
  C  829  1  0.48300100  0.95661500  0.31913800  1
  C  831  1  0.51711800  0.95801500  0.31993300  1
  C  833  1  0.47124100  0.86500600  0.32731800  1
  C  837  1  0.46576500  0.98788900  0.31565400  1
  C  841  1  0.56959900  0.93232800  0.32256400  1
  C  843  1  0.43431900  0.92361000  0.31820700  1
  C  845  1  0.96835700  0.02248100  0.82321800  1
  C  846  1  0.98423400  0.05241400  0.82599400  1
  C  847  1  0.01828000  0.05498000  0.82506100  1
  C  848  1  0.03711000  0.02651500  0.82151400  1
  C  849  1  0.02150300  0.99598700  0.81915200  1
  C  851  1  0.98738700  0.99458400  0.81994100  1
  C  853  1  0.03325100  0.08760600  0.82729600  1
  C  857  1  0.03874500  0.96471300  0.81568100  1
  C  861  1  0.93490400  0.02027200  0.82256100  1
  C  863  1  0.07018100  0.02900600  0.81820900  1
  C  865  1  0.79760900  0.68986500  0.07320700  1
  C  866  1  0.82743700  0.70600500  0.07575900  1
  C  867  1  0.82974000  0.74005000  0.07454800  1
  C  868  1  0.80112300  0.75860600  0.07089600  1
  C  869  1  0.77070600  0.74274100  0.06870600  1
  C  871  1  0.76956200  0.70863100  0.06980100  1
  C  873  1  0.86225400  0.75530700  0.07662200  1
  C  877  1  0.73929700  0.75969500  0.06512200  1
  C  881  1  0.79564400  0.65638700  0.07286300  1
  C  883  1  0.80334100  0.79165400  0.06741200  1
  C  885  1  0.70688600  0.26273300  0.57320500  1
  C  886  1  0.67706000  0.24659100  0.57577300  1
  C  887  1  0.67475300  0.21254800  0.57454900  1
  C  888  1  0.70337400  0.19399300  0.57090200  1
  C  889  1  0.73379100  0.20985600  0.56872100  1
  C  891  1  0.73493500  0.24396500  0.56981100  1
  C  893  1  0.64223600  0.19729500  0.57660500  1
  C  897  1  0.76520100  0.19289900  0.56514900  1
  C  901  1  0.70885100  0.29620900  0.57286500  1
  C  903  1  0.70114900  0.16094500  0.56741400  1
  C  905  1  0.70690500  0.69204200  0.43150500  1
  C  906  1  0.67705100  0.70809100  0.42881200  1
  C  907  1  0.67466800  0.74213800  0.42984500  1
  C  908  1  0.70323400  0.76078800  0.43345800  1
  C  909  1  0.73367800  0.74501500  0.43578700  1
  C  911  1  0.73489900  0.71089800  0.43487000  1
  C  913  1  0.64212700  0.75730300  0.42762700  1
  C  917  1  0.76503600  0.76207200  0.43934300  1
  C  921  1  0.70893300  0.65857600  0.43203400  1
  C  923  1  0.70092900  0.79386500  0.43675000  1
  C  925  1  0.79759900  0.26057100  0.93150100  1
  C  926  1  0.82744900  0.24452200  0.92879300  1
  C  927  1  0.82983200  0.21047200  0.92983700  1
  C  928  1  0.80126100  0.19182300  0.93344300  1
  C  929  1  0.77081700  0.20759900  0.93576300  1
  C  931  1  0.76960100  0.24171500  0.93485400  1
  C  933  1  0.86237500  0.19531000  0.92763900  1
  C  937  1  0.73945900  0.19054200  0.93930600  1
  C  941  1  0.79557400  0.29403600  0.93202800  1
  C  943  1  0.80357600  0.15874700  0.93673900  1
  C  945  1  0.46623300  0.43231400  0.68175200  1
  C  946  1  0.48219000  0.40238900  0.67919000  1
  C  947  1  0.51622300  0.39989500  0.68029700  1
  C  948  1  0.53494500  0.42842800  0.68385000  1
  C  949  1  0.51926600  0.45893600  0.68605900  1
  C  951  1  0.48515900  0.46026600  0.68507400  1
  C  953  1  0.53128400  0.36729200  0.67822600  1
  C  957  1  0.53641100  0.49025900  0.68955000  1
  C  961  1  0.43277900  0.43444200  0.68215700  1
  C  963  1  0.56799400  0.42603800  0.68722800  1
  C  965  1  0.03826900  0.52029400  0.18176900  1
  C  966  1  0.02231000  0.55021700  0.17919000  1
  C  967  1  0.98827500  0.55270300  0.18030300  1
  C  968  1  0.96955400  0.52416800  0.18384300  1
  C  969  1  0.98523800  0.49366200  0.18604900  1
  C  971  1  0.01934800  0.49233700  0.18507400  1
  C  973  1  0.97321400  0.58531200  0.17825000  1
  C  977  1  0.96809400  0.46233500  0.18952700  1
  C  981  1  0.07172400  0.51817300  0.18218000  1
  C  983  1  0.93650600  0.52656300  0.18722700  1
  C  985  1  0.03612500  0.43229700  0.82253200  1
  C  986  1  0.02026400  0.40234800  0.82526100  1
  C  987  1  0.98622600  0.39978000  0.82434500  1
  C  988  1  0.96740600  0.42825400  0.82081600  1
  C  989  1  0.98299600  0.45878700  0.81843900  1
  C  991  1  0.01711000  0.46019400  0.81923600  1
  C  993  1  0.97125800  0.36715200  0.82658700  1
  C  997  1  0.96574600  0.49005100  0.81495600  1
  C  1001  1  0.06956600  0.43449100  0.82193400  1
  C  1003  1  0.93433200  0.42576800  0.81762900  1
  C  1005  1  0.46837100  0.52031100  0.32253500  1
  C  1006  1  0.48423700  0.55025300  0.32528000  1
  C  1007  1  0.51827400  0.55281900  0.32435600  1
  C  1008  1  0.53709100  0.52434000  0.32084200  1
  C  1009  1  0.52149600  0.49380900  0.31847300  1
  C  1011  1  0.48738200  0.49240700  0.31925600  1
  C  1013  1  0.53324400  0.58544900  0.32657600  1
  C  1017  1  0.53874200  0.46253800  0.31500500  1
  C  1021  1  0.43493000  0.51812700  0.32192900  1
  C  1023  1  0.57016600  0.52682800  0.31764900  1
  N  21  1  0.19222300  0.41029400  0.80183700  1
  N  22  1  0.08718400  0.41710000  0.83600500  1
  N  23  1  0.19220900  0.31296900  0.91807700  1
  N  24  1  0.18758300  0.41873200  0.95151400  1
  N  45  1  0.31227200  0.54231000  0.30183900  1
  N  46  1  0.41731300  0.53551800  0.33600200  1
  N  47  1  0.31228900  0.63963400  0.41808100  1
  N  48  1  0.31691600  0.53386900  0.45151500  1
  N  69  1  0.81853800  0.91600200  0.05158100  1
  N  70  1  0.80820500  0.81057500  0.08554100  1
  N  71  1  0.91512400  0.91453700  0.16768500  1
  N  72  1  0.80947500  0.90991000  0.20130200  1
  N  93  1  0.68596000  0.03659400  0.55158300  1
  N  94  1  0.69626600  0.14202300  0.58554200  1
  N  95  1  0.58937900  0.03805600  0.66769200  1
  N  96  1  0.69503300  0.04268400  0.70130200  1
  N  117  1  0.30957300  0.41161900  0.70141800  1
  N  118  1  0.41533300  0.41680800  0.66813900  1
  N  119  1  0.31203500  0.31095400  0.58607100  1
  N  120  1  0.31828200  0.41598500  0.55173900  1
  N  141  1  0.19494400  0.54094800  0.20141300  1
  N  142  1  0.08916800  0.53580500  0.16815800  1
  N  143  1  0.19245800  0.64163700  0.08607200  1
  N  144  1  0.18619900  0.53660600  0.05174000  1
  N  165  1  0.68730600  0.91866000  0.45168900  1
  N  166  1  0.69605800  0.81257900  0.41849900  1
  N  167  1  0.58733900  0.91483600  0.33648400  1
  N  168  1  0.69224000  0.90857800  0.30194700  1
  N  189  1  0.81723000  0.03396100  0.95169600  1
  N  190  1  0.80847500  0.14003200  0.91849500  1
  N  191  1  0.91716300  0.03776300  0.83648000  1
  N  192  1  0.81226200  0.04402700  0.80194600  1
  N  213  1  0.81231100  0.54258700  0.20288400  1
  N  214  1  0.91771800  0.53173500  0.16906600  1
  N  215  1  0.81354200  0.63899700  0.08674000  1
  N  216  1  0.81866100  0.53336500  0.05323400  1
  N  237  1  0.69218700  0.41001600  0.70288300  1
  N  238  1  0.58678200  0.42088700  0.66906400  1
  N  239  1  0.69095100  0.31359900  0.58674000  1
  N  240  1  0.68583600  0.41923400  0.55323400  1
  N  261  1  0.18433700  0.03605800  0.95267400  1
  N  262  1  0.19524300  0.14132900  0.91863300  1
  N  263  1  0.08891900  0.03421300  0.83639600  1
  N  264  1  0.19486500  0.04295300  0.80296400  1
  N  285  1  0.32016200  0.91654800  0.45267300  1
  N  286  1  0.30927400  0.81127800  0.41862600  1
  N  287  1  0.41558000  0.91842100  0.33639700  1
  N  288  1  0.30963600  0.90966100  0.30296100  1
  N  309  1  0.69479100  0.54128100  0.30285800  1
  N  310  1  0.58874900  0.53197400  0.33593100  1
  N  311  1  0.69125800  0.64101700  0.41811500  1
  N  312  1  0.68452100  0.53612800  0.45253600  1
  N  333  1  0.80969900  0.41135600  0.80286100  1
  N  334  1  0.91575100  0.42066000  0.83592000  1
  N  335  1  0.81325200  0.31159400  0.91811100  1
  N  336  1  0.82000100  0.41648000  0.95253200  1
  N  357  1  0.31885400  0.03338800  0.55308300  1
  N  358  1  0.30952700  0.13932500  0.58633700  1
  N  359  1  0.41760900  0.03395700  0.66856800  1
  N  360  1  0.31232700  0.04426500  0.70278700  1
  N  381  1  0.18560600  0.91919300  0.05307300  1
  N  382  1  0.19494200  0.81326400  0.08633700  1
  N  383  1  0.08689200  0.91865700  0.16856800  1
  N  384  1  0.19217400  0.90833900  0.20278400  1
  O  17  1  0.17700400  0.33524000  0.87331000  1
  O  18  1  0.10998000  0.40335200  0.88091400  1
  O  41  1  0.32749200  0.61736500  0.37331200  1
  O  42  1  0.39451800  0.54925900  0.38091300  1
  O  65  1  0.89268800  0.89941800  0.12292000  1
  O  66  1  0.82226500  0.83290900  0.13029300  1
  O  89  1  0.61181100  0.05317400  0.62292500  1
  O  90  1  0.68222100  0.11968700  0.63029400  1
  O  113  1  0.32554500  0.33395900  0.63093800  1
  O  114  1  0.39328200  0.40138000  0.62333400  1
  O  137  1  0.17895100  0.61863500  0.13094000  1
  O  138  1  0.11120800  0.55123300  0.12334700  1
  O  161  1  0.61053500  0.90140900  0.38134000  1
  O  162  1  0.68032400  0.83419300  0.37385600  1
  O  185  1  0.89397000  0.05118900  0.88133800  1
  O  186  1  0.82418400  0.11840700  0.87385000  1
  O  209  1  0.82882500  0.61670600  0.13154300  1
  O  210  1  0.89556600  0.54601900  0.12428000  1
  O  233  1  0.67566500  0.33589200  0.63154300  1
  O  234  1  0.60893200  0.40658900  0.62427900  1
  O  257  1  0.11077000  0.04985800  0.88101900  1
  O  258  1  0.18096400  0.11898800  0.87387900  1
  O  281  1  0.39373100  0.90276600  0.38101800  1
  O  282  1  0.32354400  0.83362300  0.37387400  1
  O  305  1  0.67763700  0.61796400  0.37322100  1
  O  306  1  0.61019700  0.54790200  0.38060700  1
  O  329  1  0.82687200  0.33464700  0.87321600  1
  O  330  1  0.89431500  0.40471100  0.88059400  1
  O  353  1  0.39502500  0.04794800  0.62384500  1
  O  354  1  0.32546300  0.11772700  0.63098700  1
  O  377  1  0.10947000  0.90465500  0.12384600  1
  O  378  1  0.17903200  0.83487100  0.13099000  1
