# generated using pymatgen
data_H24C39N8
_symmetry_space_group_name_H-M   'P 1'
_cell_length_a   30.48660000
_cell_length_b   44.77100000
_cell_length_c   44.77100000
_cell_angle_alpha   90.00000000
_cell_angle_beta   90.00000000
_cell_angle_gamma   90.00000000
_symmetry_Int_Tables_number   1
_chemical_formula_structural   H24C39N8
_chemical_formula_sum   'H576 C936 N192'
_cell_volume   61108.63492179
_cell_formula_units_Z   24
loop_
 _symmetry_equiv_pos_site_id
 _symmetry_equiv_pos_as_xyz
  1  'x, y, z'
loop_
 _atom_site_type_symbol
 _atom_site_label
 _atom_site_symmetry_multiplicity
 _atom_site_fract_x
 _atom_site_fract_y
 _atom_site_fract_z
 _atom_site_occupancy
  H  25  1  0.99184200  0.16845600  0.20354000  1
  H  26  1  0.99575500  0.12154000  0.17905300  1
  H  27  1  0.00607100  0.08033600  0.14778000  1
  H  28  1  0.01244200  0.05261400  0.10285300  1
  H  29  1  0.12814500  0.10004600  0.08027100  1
  H  30  1  0.11682000  0.19172900  0.17006100  1
  H  31  1  0.12729000  0.16735800  0.07951900  1
  H  32  1  0.24325400  0.21596300  0.09884000  1
  H  33  1  0.25151800  0.18961200  0.14447100  1
  H  34  1  0.14247100  0.07864100  0.17199700  1
  H  35  1  0.26220300  0.15025500  0.17801500  1
  H  36  1  0.26705600  0.10443700  0.20446200  1
  H  66  1  0.50155100  0.57502700  0.07836300  1
  H  67  1  0.49044500  0.61081100  0.11647700  1
  H  68  1  0.48900800  0.65199200  0.14715400  1
  H  69  1  0.49751000  0.68911900  0.18424100  1
  H  70  1  0.63569500  0.67893800  0.18101400  1
  H  71  1  0.63891300  0.58926600  0.08235700  1
  H  72  1  0.62728800  0.58269700  0.17527500  1
  H  73  1  0.76524100  0.57199100  0.17972900  1
  H  74  1  0.77509400  0.61290900  0.14705500  1
  H  75  1  0.62698700  0.68381600  0.08867000  1
  H  76  1  0.77480600  0.65624200  0.11949400  1
  H  77  1  0.76467000  0.69663900  0.08621500  1
  H  107  1  0.77710800  0.08739200  0.68955600  1
  H  108  1  0.78036900  0.12554200  0.65282500  1
  H  109  1  0.77237200  0.16502300  0.62002700  1
  H  110  1  0.75588200  0.19822900  0.58047500  1
  H  111  1  0.62139700  0.17439700  0.58523200  1
  H  112  1  0.63857200  0.08622600  0.68383000  1
  H  113  1  0.63223500  0.09616000  0.58118000  1
  H  114  1  0.51124400  0.05529200  0.60367000  1
  H  115  1  0.50656000  0.08487700  0.64757200  1
  H  116  1  0.62985300  0.19045700  0.66949000  1
  H  117  1  0.50124900  0.12655600  0.67864100  1
  H  118  1  0.50257100  0.17338700  0.70324400  1
  H  148  1  0.26729600  0.67070900  0.56196700  1
  H  149  1  0.26995200  0.62504800  0.58856000  1
  H  150  1  0.26601300  0.58476300  0.62136300  1
  H  151  1  0.26136600  0.55551000  0.66545200  1
  H  152  1  0.13922300  0.59534100  0.68689600  1
  H  153  1  0.14039800  0.68824500  0.59623500  1
  H  154  1  0.14641400  0.67574800  0.68067600  1
  H  155  1  0.01093300  0.69744800  0.68153300  1
  H  156  1  0.99722400  0.66149100  0.64403400  1
  H  157  1  0.13623400  0.58437900  0.58416400  1
  H  158  1  0.99170400  0.61912000  0.61485600  1
  H  159  1  0.99776600  0.58049500  0.57875000  1
  H  189  1  0.51622600  0.94735500  0.43248400  1
  H  190  1  0.52734600  0.90756800  0.39857500  1
  H  191  1  0.52840600  0.86605700  0.36835000  1
  H  192  1  0.51918800  0.82636400  0.33407600  1
  H  193  1  0.38102000  0.83502400  0.33991000  1
  H  194  1  0.37861900  0.93463000  0.42788900  1
  H  195  1  0.38994200  0.84085500  0.43375400  1
  H  196  1  0.25220100  0.82821800  0.43695300  1
  H  197  1  0.24252600  0.86373200  0.39835600  1
  H  198  1  0.39108600  0.92978600  0.33490500  1
  H  199  1  0.24262800  0.90344500  0.36557400  1
  H  200  1  0.25321300  0.93971900  0.32776800  1
  H  230  1  0.03124900  0.82710300  0.83776000  1
  H  231  1  0.03569800  0.86674700  0.87263900  1
  H  232  1  0.02973600  0.90830800  0.90219900  1
  H  233  1  0.01447600  0.94811700  0.93499200  1
  H  234  1  0.87793600  0.93239000  0.92621700  1
  H  235  1  0.89272600  0.83271400  0.83830500  1
  H  236  1  0.88781600  0.93814800  0.84696000  1
  H  237  1  0.76273800  0.91971700  0.81017000  1
  H  238  1  0.75893000  0.87460100  0.83755600  1
  H  239  1  0.88506700  0.84714500  0.93934100  1
  H  240  1  0.76076700  0.83559500  0.87179500  1
  H  241  1  0.76326600  0.80749700  0.91669500  1
  H  271  1  0.76298700  0.46630900  0.35036100  1
  H  272  1  0.75508500  0.43867700  0.39525600  1
  H  273  1  0.74436900  0.39826500  0.42766600  1
  H  274  1  0.73980300  0.35194000  0.45324900  1
  H  275  1  0.86391000  0.32666900  0.41943900  1
  H  276  1  0.87791000  0.41753600  0.32877300  1
  H  277  1  0.87180200  0.34965700  0.32850800  1
  H  278  1  0.99145500  0.30375100  0.34350400  1
  H  279  1  0.00183000  0.33014000  0.38893100  1
  H  280  1  0.88898700  0.43770600  0.42223600  1
  H  281  1  0.01218000  0.36860300  0.42365000  1
  H  282  1  0.01579000  0.41354300  0.45180600  1
  H  312  1  0.24003300  0.32536000  0.92966100  1
  H  313  1  0.23490800  0.36728500  0.89754600  1
  H  314  1  0.24064900  0.41076600  0.87034800  1
  H  315  1  0.25549600  0.45028500  0.83691100  1
  H  316  1  0.39161400  0.43115500  0.84081300  1
  H  317  1  0.37857600  0.32995100  0.92677300  1
  H  318  1  0.38568100  0.43704500  0.92133600  1
  H  319  1  0.51225800  0.41694700  0.95460100  1
  H  320  1  0.51366500  0.37231700  0.92646700  1
  H  321  1  0.38099700  0.34800700  0.82754800  1
  H  322  1  0.51035500  0.33505900  0.89031400  1
  H  323  1  0.50483500  0.30849500  0.84455200  1
  H  334  1  0.97237100  0.07031100  0.99894200  1
  H  337  1  0.91693000  0.05572800  0.96510800  1
  H  338  1  0.89541900  0.01983200  0.97210100  1
  H  339  1  0.93446600  0.02537200  0.94309800  1
  H  341  1  0.01059000  0.08076600  0.04749400  1
  H  343  1  0.97558200  0.95015600  0.98705300  1
  H  349  1  0.48307800  0.70072200  0.27444800  1
  H  352  1  0.42380600  0.71619200  0.30411000  1
  H  353  1  0.40304900  0.75194100  0.29566300  1
  H  354  1  0.44000900  0.74693300  0.32601900  1
  H  356  1  0.53492000  0.68311700  0.23883800  1
  H  358  1  0.48370400  0.82110600  0.28118000  1
  H  364  1  0.76299700  0.20062900  0.48573500  1
  H  367  1  0.82019300  0.21779000  0.45454500  1
  H  368  1  0.84234000  0.25230000  0.46614400  1
  H  369  1  0.80503200  0.25075200  0.43565500  1
  H  371  1  0.71877800  0.18269200  0.52624100  1
  H  373  1  0.77491400  0.32025000  0.49192800  1
  H  379  1  0.29716300  0.56884600  0.76861200  1
  H  382  1  0.35270900  0.55453100  0.80228100  1
  H  383  1  0.37377100  0.51839400  0.79600900  1
  H  384  1  0.33469800  0.52473100  0.82484700  1
  H  386  1  0.25751400  0.58024900  0.72182100  1
  H  388  1  0.29119500  0.44907500  0.78318900  1
  H  394  1  0.53497600  0.32075300  0.74106300  1
  H  397  1  0.59110900  0.30429500  0.70820200  1
  H  398  1  0.61284900  0.26927700  0.71866000  1
  H  399  1  0.57551800  0.27201800  0.68828300  1
  H  401  1  0.49617800  0.33408500  0.78798600  1
  H  403  1  0.54540000  0.20115800  0.74263300  1
  H  409  1  0.24383200  0.81780000  0.53178900  1
  H  412  1  0.18630000  0.80146400  0.56312600  1
  H  413  1  0.16139000  0.76801400  0.55104300  1
  H  414  1  0.20013000  0.76753600  0.58072700  1
  H  416  1  0.28905200  0.83598600  0.49176700  1
  H  418  1  0.22457400  0.69858700  0.52241500  1
  H  424  1  0.72288800  0.44763200  0.24746400  1
  H  427  1  0.66750300  0.46249200  0.21377100  1
  H  428  1  0.64775000  0.49895300  0.22020900  1
  H  429  1  0.68570400  0.49197100  0.19083900  1
  H  431  1  0.76215400  0.43699500  0.29504600  1
  H  433  1  0.73112400  0.56731600  0.23244500  1
  H  439  1  0.47364100  0.06936100  0.50087600  1
  H  442  1  0.41760900  0.05482700  0.46761100  1
  H  443  1  0.39767000  0.01836700  0.47373100  1
  H  444  1  0.43567000  0.02551600  0.44442700  1
  H  446  1  0.51440300  0.08070000  0.54715800  1
  H  448  1  0.48034500  0.94961800  0.48581000  1
  H  454  1  0.99461700  0.70059700  0.77259900  1
  H  457  1  0.93495400  0.71644700  0.80171600  1
  H  458  1  0.91648700  0.75292100  0.79391400  1
  H  459  1  0.95135800  0.74607300  0.82504800  1
  H  461  1  0.04611100  0.68334900  0.73663600  1
  H  463  1  0.00097000  0.82064100  0.78387700  1
  H  469  1  0.28453200  0.19739100  0.99825000  1
  H  472  1  0.34113300  0.21331400  0.96596600  1
  H  473  1  0.35805900  0.25043000  0.97240900  1
  H  474  1  0.32276000  0.24186900  0.94194800  1
  H  476  1  0.24285000  0.18601000  0.04419800  1
  H  478  1  0.27220900  0.31675400  0.98232000  1
  H  484  1  0.02390500  0.31915800  0.24179300  1
  H  487  1  0.08061400  0.30168900  0.20995000  1
  H  488  1  0.09966700  0.26595800  0.22042500  1
  H  489  1  0.06434400  0.27015100  0.18911600  1
  H  491  1  0.98393000  0.33275800  0.28789000  1
  H  493  1  0.02847300  0.19967800  0.24222000  1
  H  499  1  0.72401900  0.81989500  0.01890500  1
  H  502  1  0.66757200  0.80479200  0.05156100  1
  H  503  1  0.64778300  0.76843800  0.04464200  1
  H  504  1  0.68525100  0.77508500  0.07437900  1
  H  506  1  0.76535200  0.83192800  0.97297500  1
  H  508  1  0.73159300  0.70007900  0.03273400  1
  H  514  1  0.49494200  0.56517000  0.98322900  1
  H  517  1  0.43759500  0.54902600  0.95172400  1
  H  518  1  0.41146900  0.51616500  0.96421700  1
  H  519  1  0.45073500  0.51459000  0.93488500  1
  H  521  1  0.53918100  0.58342500  0.02364200  1
  H  523  1  0.47350900  0.44610800  0.99416500  1
  H  529  1  0.78481600  0.06699100  0.78258500  1
  H  532  1  0.84126100  0.05057000  0.81469100  1
  H  533  1  0.86733100  0.01749600  0.80272600  1
  H  534  1  0.82697900  0.01627900  0.83138300  1
  H  536  1  0.73837000  0.08583600  0.74363400  1
  H  538  1  0.80631100  0.94802500  0.77145800  1
  H  544  1  0.24725500  0.95328500  0.23520800  1
  H  547  1  0.19029000  0.97034600  0.20393100  1
  H  548  1  0.16672700  0.00428900  0.21586800  1
  H  549  1  0.20517800  0.00388300  0.18599800  1
  H  551  1  0.29360900  0.93433300  0.27402800  1
  H  553  1  0.23268200  0.07286300  0.24377400  1
  H  559  1  0.98999200  0.56281600  0.48665700  1
  H  562  1  0.93348800  0.54543200  0.45525300  1
  H  563  1  0.91109500  0.51086000  0.46638300  1
  H  564  1  0.94977700  0.51255600  0.43669200  1
  H  566  1  0.03798700  0.58206300  0.52441800  1
  H  568  1  0.97990500  0.44280000  0.49310800  1
  H  593  1  0.99184200  0.16845600  0.44923500  1
  H  594  1  0.99575500  0.12154000  0.42474800  1
  H  595  1  0.00607100  0.08033600  0.39347500  1
  H  596  1  0.01244200  0.05261400  0.34854800  1
  H  597  1  0.12814500  0.10004600  0.32596600  1
  H  598  1  0.11682000  0.19172900  0.41575600  1
  H  599  1  0.12729000  0.16735800  0.32521400  1
  H  600  1  0.24325400  0.21596300  0.34453500  1
  H  601  1  0.25151800  0.18961200  0.39016600  1
  H  602  1  0.14247100  0.07864100  0.41769200  1
  H  603  1  0.26220300  0.15025500  0.42371000  1
  H  604  1  0.26705600  0.10443700  0.45015700  1
  H  634  1  0.50155100  0.57502700  0.32405800  1
  H  635  1  0.49044500  0.61081100  0.36217200  1
  H  636  1  0.48900800  0.65199200  0.39284900  1
  H  637  1  0.49751000  0.68911900  0.42993600  1
  H  638  1  0.63569500  0.67893800  0.42670900  1
  H  639  1  0.63891300  0.58926600  0.32805200  1
  H  640  1  0.62728800  0.58269700  0.42097000  1
  H  641  1  0.76524100  0.57199100  0.42542400  1
  H  642  1  0.77509400  0.61290900  0.39275000  1
  H  643  1  0.62698700  0.68381600  0.33436500  1
  H  644  1  0.77480600  0.65624200  0.36518900  1
  H  645  1  0.76467000  0.69663900  0.33191000  1
  H  675  1  0.77710800  0.08739200  0.93525100  1
  H  676  1  0.78036900  0.12554200  0.89852000  1
  H  677  1  0.77237200  0.16502300  0.86572200  1
  H  678  1  0.75588200  0.19822900  0.82617000  1
  H  679  1  0.62139700  0.17439700  0.83092700  1
  H  680  1  0.63857200  0.08622600  0.92952500  1
  H  681  1  0.63223500  0.09616000  0.82687500  1
  H  682  1  0.51124400  0.05529200  0.84936500  1
  H  683  1  0.50656000  0.08487700  0.89326700  1
  H  684  1  0.62985300  0.19045700  0.91518500  1
  H  685  1  0.50124900  0.12655600  0.92433600  1
  H  686  1  0.50257100  0.17338700  0.94893900  1
  H  716  1  0.26729600  0.67070900  0.80766200  1
  H  717  1  0.26995200  0.62504800  0.83425500  1
  H  718  1  0.26601300  0.58476300  0.86705800  1
  H  719  1  0.26136600  0.55551000  0.91114700  1
  H  720  1  0.13922300  0.59534100  0.93259100  1
  H  721  1  0.14039800  0.68824500  0.84193000  1
  H  722  1  0.14641400  0.67574800  0.92637100  1
  H  723  1  0.01093300  0.69744800  0.92722800  1
  H  724  1  0.99722400  0.66149100  0.88972900  1
  H  725  1  0.13623400  0.58437900  0.82985900  1
  H  726  1  0.99170400  0.61912000  0.86055100  1
  H  727  1  0.99776600  0.58049500  0.82444500  1
  H  757  1  0.51622600  0.94735500  0.67817900  1
  H  758  1  0.52734600  0.90756800  0.64427000  1
  H  759  1  0.52840600  0.86605700  0.61404500  1
  H  760  1  0.51918800  0.82636400  0.57977100  1
  H  761  1  0.38102000  0.83502400  0.58560500  1
  H  762  1  0.37861900  0.93463000  0.67358400  1
  H  763  1  0.38994200  0.84085500  0.67944900  1
  H  764  1  0.25220100  0.82821800  0.68264800  1
  H  765  1  0.24252600  0.86373200  0.64405100  1
  H  766  1  0.39108600  0.92978600  0.58060000  1
  H  767  1  0.24262800  0.90344500  0.61126900  1
  H  768  1  0.25321300  0.93971900  0.57346300  1
  H  798  1  0.03124900  0.82710300  0.08345480  1
  H  799  1  0.03569800  0.86674700  0.11833400  1
  H  800  1  0.02973600  0.90830800  0.14789400  1
  H  801  1  0.01447600  0.94811700  0.18068700  1
  H  802  1  0.87793600  0.93239000  0.17191200  1
  H  803  1  0.89272600  0.83271400  0.08399980  1
  H  804  1  0.88781600  0.93814800  0.09265480  1
  H  805  1  0.76273800  0.91971700  0.05586480  1
  H  806  1  0.75893000  0.87460100  0.08325080  1
  H  807  1  0.88506700  0.84714500  0.18503600  1
  H  808  1  0.76076700  0.83559500  0.11749000  1
  H  809  1  0.76326600  0.80749700  0.16239000  1
  H  839  1  0.76298700  0.46630900  0.59605600  1
  H  840  1  0.75508500  0.43867700  0.64095100  1
  H  841  1  0.74436900  0.39826500  0.67336100  1
  H  842  1  0.73980300  0.35194000  0.69894400  1
  H  843  1  0.86391000  0.32666900  0.66513400  1
  H  844  1  0.87791000  0.41753600  0.57446800  1
  H  845  1  0.87180200  0.34965700  0.57420300  1
  H  846  1  0.99145500  0.30375100  0.58919900  1
  H  847  1  0.00183000  0.33014000  0.63462600  1
  H  848  1  0.88898700  0.43770600  0.66793100  1
  H  849  1  0.01218000  0.36860300  0.66934500  1
  H  850  1  0.01579000  0.41354300  0.69750100  1
  H  880  1  0.24003300  0.32536000  0.17535600  1
  H  881  1  0.23490800  0.36728500  0.14324100  1
  H  882  1  0.24064900  0.41076600  0.11604300  1
  H  883  1  0.25549600  0.45028500  0.08260580  1
  H  884  1  0.39161400  0.43115500  0.08650780  1
  H  885  1  0.37857600  0.32995100  0.17246800  1
  H  886  1  0.38568100  0.43704500  0.16703100  1
  H  887  1  0.51225800  0.41694700  0.20029600  1
  H  888  1  0.51366500  0.37231700  0.17216200  1
  H  889  1  0.38099700  0.34800700  0.07324280  1
  H  890  1  0.51035500  0.33505900  0.13600900  1
  H  891  1  0.50483500  0.30849500  0.09024680  1
  H  902  1  0.97237100  0.07031100  0.24463700  1
  H  905  1  0.91693000  0.05572800  0.21080300  1
  H  906  1  0.89541900  0.01983200  0.21779600  1
  H  907  1  0.93446600  0.02537200  0.18879300  1
  H  909  1  0.01059000  0.08076600  0.29318900  1
  H  911  1  0.97558200  0.95015600  0.23274800  1
  H  917  1  0.48307800  0.70072200  0.52014300  1
  H  920  1  0.42380600  0.71619200  0.54980500  1
  H  921  1  0.40304900  0.75194100  0.54135800  1
  H  922  1  0.44000900  0.74693300  0.57171400  1
  H  924  1  0.53492000  0.68311700  0.48453300  1
  H  926  1  0.48370400  0.82110600  0.52687500  1
  H  932  1  0.76299700  0.20062900  0.73143000  1
  H  935  1  0.82019300  0.21779000  0.70024000  1
  H  936  1  0.84234000  0.25230000  0.71183900  1
  H  937  1  0.80503200  0.25075200  0.68135000  1
  H  939  1  0.71877800  0.18269200  0.77193600  1
  H  941  1  0.77491400  0.32025000  0.73762300  1
  H  947  1  0.29716300  0.56884600  0.01430680  1
  H  950  1  0.35270900  0.55453100  0.04797580  1
  H  951  1  0.37377100  0.51839400  0.04170380  1
  H  952  1  0.33469800  0.52473100  0.07054180  1
  H  954  1  0.25751400  0.58024900  0.96751600  1
  H  956  1  0.29119500  0.44907500  0.02888380  1
  H  962  1  0.53497600  0.32075300  0.98675800  1
  H  965  1  0.59110900  0.30429500  0.95389700  1
  H  966  1  0.61284900  0.26927700  0.96435500  1
  H  967  1  0.57551800  0.27201800  0.93397800  1
  H  969  1  0.49617800  0.33408500  0.03368080  1
  H  971  1  0.54540000  0.20115800  0.98832800  1
  H  977  1  0.24383200  0.81780000  0.77748400  1
  H  980  1  0.18630000  0.80146400  0.80882100  1
  H  981  1  0.16139000  0.76801400  0.79673800  1
  H  982  1  0.20013000  0.76753600  0.82642200  1
  H  984  1  0.28905200  0.83598600  0.73746200  1
  H  986  1  0.22457400  0.69858700  0.76811000  1
  H  992  1  0.72288800  0.44763200  0.49315900  1
  H  995  1  0.66750300  0.46249200  0.45946600  1
  H  996  1  0.64775000  0.49895300  0.46590400  1
  H  997  1  0.68570400  0.49197100  0.43653400  1
  H  999  1  0.76215400  0.43699500  0.54074100  1
  H  1001  1  0.73112400  0.56731600  0.47814000  1
  H  1007  1  0.47364100  0.06936100  0.74657100  1
  H  1010  1  0.41760900  0.05482700  0.71330600  1
  H  1011  1  0.39767000  0.01836700  0.71942600  1
  H  1012  1  0.43567000  0.02551600  0.69012200  1
  H  1014  1  0.51440300  0.08070000  0.79285300  1
  H  1016  1  0.48034500  0.94961800  0.73150500  1
  H  1022  1  0.99461700  0.70059700  0.01829380  1
  H  1025  1  0.93495400  0.71644700  0.04741080  1
  H  1026  1  0.91648700  0.75292100  0.03960880  1
  H  1027  1  0.95135800  0.74607300  0.07074280  1
  H  1029  1  0.04611100  0.68334900  0.98233100  1
  H  1031  1  0.00097000  0.82064100  0.02957180  1
  H  1037  1  0.28453200  0.19739100  0.24394500  1
  H  1040  1  0.34113300  0.21331400  0.21166100  1
  H  1041  1  0.35805900  0.25043000  0.21810400  1
  H  1042  1  0.32276000  0.24186900  0.18764300  1
  H  1044  1  0.24285000  0.18601000  0.28989300  1
  H  1046  1  0.27220900  0.31675400  0.22801500  1
  H  1052  1  0.02390500  0.31915800  0.48748800  1
  H  1055  1  0.08061400  0.30168900  0.45564500  1
  H  1056  1  0.09966700  0.26595800  0.46612000  1
  H  1057  1  0.06434400  0.27015100  0.43481100  1
  H  1059  1  0.98393000  0.33275800  0.53358500  1
  H  1061  1  0.02847300  0.19967800  0.48791500  1
  H  1067  1  0.72401900  0.81989500  0.26460000  1
  H  1070  1  0.66757200  0.80479200  0.29725600  1
  H  1071  1  0.64778300  0.76843800  0.29033700  1
  H  1072  1  0.68525100  0.77508500  0.32007400  1
  H  1074  1  0.76535200  0.83192800  0.21867000  1
  H  1076  1  0.73159300  0.70007900  0.27842900  1
  H  1082  1  0.49494200  0.56517000  0.22892400  1
  H  1085  1  0.43759500  0.54902600  0.19741900  1
  H  1086  1  0.41146900  0.51616500  0.20991200  1
  H  1087  1  0.45073500  0.51459000  0.18058000  1
  H  1089  1  0.53918100  0.58342500  0.26933700  1
  H  1091  1  0.47350900  0.44610800  0.23986000  1
  H  1097  1  0.78481600  0.06699100  0.02827980  1
  H  1100  1  0.84126100  0.05057000  0.06038580  1
  H  1101  1  0.86733100  0.01749600  0.04842080  1
  H  1102  1  0.82697900  0.01627900  0.07707780  1
  H  1104  1  0.73837000  0.08583600  0.98932900  1
  H  1106  1  0.80631100  0.94802500  0.01715280  1
  H  1112  1  0.24725500  0.95328500  0.48090300  1
  H  1115  1  0.19029000  0.97034600  0.44962600  1
  H  1116  1  0.16672700  0.00428900  0.46156300  1
  H  1117  1  0.20517800  0.00388300  0.43169300  1
  H  1119  1  0.29360900  0.93433300  0.51972300  1
  H  1121  1  0.23268200  0.07286300  0.48946900  1
  H  1127  1  0.98999200  0.56281600  0.73235200  1
  H  1130  1  0.93348800  0.54543200  0.70094800  1
  H  1131  1  0.91109500  0.51086000  0.71207800  1
  H  1132  1  0.94977700  0.51255600  0.68238700  1
  H  1134  1  0.03798700  0.58206300  0.77011300  1
  H  1136  1  0.97990500  0.44280000  0.73880300  1
  H  1161  1  0.99184200  0.16845600  0.69493000  1
  H  1162  1  0.99575500  0.12154000  0.67044300  1
  H  1163  1  0.00607100  0.08033600  0.63917000  1
  H  1164  1  0.01244200  0.05261400  0.59424300  1
  H  1165  1  0.12814500  0.10004600  0.57166100  1
  H  1166  1  0.11682000  0.19172900  0.66145100  1
  H  1167  1  0.12729000  0.16735800  0.57090900  1
  H  1168  1  0.24325400  0.21596300  0.59023000  1
  H  1169  1  0.25151800  0.18961200  0.63586100  1
  H  1170  1  0.14247100  0.07864100  0.66338700  1
  H  1171  1  0.26220300  0.15025500  0.66940500  1
  H  1172  1  0.26705600  0.10443700  0.69585200  1
  H  1202  1  0.50155100  0.57502700  0.56975300  1
  H  1203  1  0.49044500  0.61081100  0.60786700  1
  H  1204  1  0.48900800  0.65199200  0.63854400  1
  H  1205  1  0.49751000  0.68911900  0.67563100  1
  H  1206  1  0.63569500  0.67893800  0.67240400  1
  H  1207  1  0.63891300  0.58926600  0.57374700  1
  H  1208  1  0.62728800  0.58269700  0.66666667  1
  H  1209  1  0.76524100  0.57199100  0.67111900  1
  H  1210  1  0.77509400  0.61290900  0.63844500  1
  H  1211  1  0.62698700  0.68381600  0.58006000  1
  H  1212  1  0.77480600  0.65624200  0.61088400  1
  H  1213  1  0.76467000  0.69663900  0.57760500  1
  H  1243  1  0.77710800  0.08739200  0.18094600  1
  H  1244  1  0.78036900  0.12554200  0.14421500  1
  H  1245  1  0.77237200  0.16502300  0.11141700  1
  H  1246  1  0.75588200  0.19822900  0.07186450  1
  H  1247  1  0.62139700  0.17439700  0.07662150  1
  H  1248  1  0.63857200  0.08622600  0.17522000  1
  H  1249  1  0.63223500  0.09616000  0.07256950  1
  H  1250  1  0.51124400  0.05529200  0.09505950  1
  H  1251  1  0.50656000  0.08487700  0.13896200  1
  H  1252  1  0.62985300  0.19045700  0.16088000  1
  H  1253  1  0.50124900  0.12655600  0.17003100  1
  H  1254  1  0.50257100  0.17338700  0.19463400  1
  H  1284  1  0.26729600  0.67070900  0.05335650  1
  H  1285  1  0.26995200  0.62504800  0.07994950  1
  H  1286  1  0.26601300  0.58476300  0.11275300  1
  H  1287  1  0.26136600  0.55551000  0.15684200  1
  H  1288  1  0.13922300  0.59534100  0.17828600  1
  H  1289  1  0.14039800  0.68824500  0.08762450  1
  H  1290  1  0.14641400  0.67574800  0.17206600  1
  H  1291  1  0.01093300  0.69744800  0.17292300  1
  H  1292  1  0.99722400  0.66149100  0.13542400  1
  H  1293  1  0.13623400  0.58437900  0.07555350  1
  H  1294  1  0.99170400  0.61912000  0.10624600  1
  H  1295  1  0.99776600  0.58049500  0.07013950  1
  H  1325  1  0.51622600  0.94735500  0.92387400  1
  H  1326  1  0.52734600  0.90756800  0.88996500  1
  H  1327  1  0.52840600  0.86605700  0.85974000  1
  H  1328  1  0.51918800  0.82636400  0.82546600  1
  H  1329  1  0.38102000  0.83502400  0.83130000  1
  H  1330  1  0.37861900  0.93463000  0.91927900  1
  H  1331  1  0.38994200  0.84085500  0.92514400  1
  H  1332  1  0.25220100  0.82821800  0.92834300  1
  H  1333  1  0.24252600  0.86373200  0.88974600  1
  H  1334  1  0.39108600  0.92978600  0.82629500  1
  H  1335  1  0.24262800  0.90344500  0.85696400  1
  H  1336  1  0.25321300  0.93971900  0.81915800  1
  H  1366  1  0.03124900  0.82710300  0.32915000  1
  H  1367  1  0.03569800  0.86674700  0.36402900  1
  H  1368  1  0.02973600  0.90830800  0.39358900  1
  H  1369  1  0.01447600  0.94811700  0.42638200  1
  H  1370  1  0.87793600  0.93239000  0.41760700  1
  H  1371  1  0.89272600  0.83271400  0.32969500  1
  H  1372  1  0.88781600  0.93814800  0.33835000  1
  H  1373  1  0.76273800  0.91971700  0.30156000  1
  H  1374  1  0.75893000  0.87460100  0.32894600  1
  H  1375  1  0.88506700  0.84714500  0.43073100  1
  H  1376  1  0.76076700  0.83559500  0.36318500  1
  H  1377  1  0.76326600  0.80749700  0.40808500  1
  H  1407  1  0.76298700  0.46630900  0.84175100  1
  H  1408  1  0.75508500  0.43867700  0.88664600  1
  H  1409  1  0.74436900  0.39826500  0.91905600  1
  H  1410  1  0.73980300  0.35194000  0.94463900  1
  H  1411  1  0.86391000  0.32666900  0.91082900  1
  H  1412  1  0.87791000  0.41753600  0.82016300  1
  H  1413  1  0.87180200  0.34965700  0.81989800  1
  H  1414  1  0.99145500  0.30375100  0.83489400  1
  H  1415  1  0.00183000  0.33014000  0.88032100  1
  H  1416  1  0.88898700  0.43770600  0.91362600  1
  H  1417  1  0.01218000  0.36860300  0.91504000  1
  H  1418  1  0.01579000  0.41354300  0.94319600  1
  H  1448  1  0.24003300  0.32536000  0.42105100  1
  H  1449  1  0.23490800  0.36728500  0.38893600  1
  H  1450  1  0.24064900  0.41076600  0.36173800  1
  H  1451  1  0.25549600  0.45028500  0.32830100  1
  H  1452  1  0.39161400  0.43115500  0.33220300  1
  H  1453  1  0.37857600  0.32995100  0.41816300  1
  H  1454  1  0.38568100  0.43704500  0.41272600  1
  H  1455  1  0.51225800  0.41694700  0.44599100  1
  H  1456  1  0.51366500  0.37231700  0.41785700  1
  H  1457  1  0.38099700  0.34800700  0.31893800  1
  H  1458  1  0.51035500  0.33505900  0.38170400  1
  H  1459  1  0.50483500  0.30849500  0.33594200  1
  H  1470  1  0.97237100  0.07031100  0.49033200  1
  H  1473  1  0.91693000  0.05572800  0.45649800  1
  H  1474  1  0.89541900  0.01983200  0.46349100  1
  H  1475  1  0.93446600  0.02537200  0.43448800  1
  H  1477  1  0.01059000  0.08076600  0.53888400  1
  H  1479  1  0.97558200  0.95015600  0.47844300  1
  H  1485  1  0.48307800  0.70072200  0.76583800  1
  H  1488  1  0.42380600  0.71619200  0.79550000  1
  H  1489  1  0.40304900  0.75194100  0.78705300  1
  H  1490  1  0.44000900  0.74693300  0.81740900  1
  H  1492  1  0.53492000  0.68311700  0.73022800  1
  H  1494  1  0.48370400  0.82110600  0.77257000  1
  H  1500  1  0.76299700  0.20062900  0.97712500  1
  H  1503  1  0.82019300  0.21779000  0.94593500  1
  H  1504  1  0.84234000  0.25230000  0.95753400  1
  H  1505  1  0.80503200  0.25075200  0.92704500  1
  H  1507  1  0.71877800  0.18269200  0.01763050  1
  H  1509  1  0.77491400  0.32025000  0.98331800  1
  H  1515  1  0.29716300  0.56884600  0.26000200  1
  H  1518  1  0.35270900  0.55453100  0.29367100  1
  H  1519  1  0.37377100  0.51839400  0.28739900  1
  H  1520  1  0.33469800  0.52473100  0.31623700  1
  H  1522  1  0.25751400  0.58024900  0.21321100  1
  H  1524  1  0.29119500  0.44907500  0.27457900  1
  H  1530  1  0.53497600  0.32075300  0.23245300  1
  H  1533  1  0.59110900  0.30429500  0.19959200  1
  H  1534  1  0.61284900  0.26927700  0.21005000  1
  H  1535  1  0.57551800  0.27201800  0.17967300  1
  H  1537  1  0.49617800  0.33408500  0.27937600  1
  H  1539  1  0.54540000  0.20115800  0.23402300  1
  H  1545  1  0.24383200  0.81780000  0.02317850  1
  H  1548  1  0.18630000  0.80146400  0.05451550  1
  H  1549  1  0.16139000  0.76801400  0.04243250  1
  H  1550  1  0.20013000  0.76753600  0.07211650  1
  H  1552  1  0.28905200  0.83598600  0.98315700  1
  H  1554  1  0.22457400  0.69858700  0.01380450  1
  H  1560  1  0.72288800  0.44763200  0.73885400  1
  H  1563  1  0.66750300  0.46249200  0.70516100  1
  H  1564  1  0.64775000  0.49895300  0.71159900  1
  H  1565  1  0.68570400  0.49197100  0.68222900  1
  H  1567  1  0.76215400  0.43699500  0.78643600  1
  H  1569  1  0.73112400  0.56731600  0.72383500  1
  H  1575  1  0.47364100  0.06936100  0.99226600  1
  H  1578  1  0.41760900  0.05482700  0.95900100  1
  H  1579  1  0.39767000  0.01836700  0.96512100  1
  H  1580  1  0.43567000  0.02551600  0.93581700  1
  H  1582  1  0.51440300  0.08070000  0.03854750  1
  H  1584  1  0.48034500  0.94961800  0.97720000  1
  H  1590  1  0.99461700  0.70059700  0.26398900  1
  H  1593  1  0.93495400  0.71644700  0.29310600  1
  H  1594  1  0.91648700  0.75292100  0.28530400  1
  H  1595  1  0.95135800  0.74607300  0.31643800  1
  H  1597  1  0.04611100  0.68334900  0.22802600  1
  H  1599  1  0.00097000  0.82064100  0.27526700  1
  H  1605  1  0.28453200  0.19739100  0.48964000  1
  H  1608  1  0.34113300  0.21331400  0.45735600  1
  H  1609  1  0.35805900  0.25043000  0.46379900  1
  H  1610  1  0.32276000  0.24186900  0.43333800  1
  H  1612  1  0.24285000  0.18601000  0.53558800  1
  H  1614  1  0.27220900  0.31675400  0.47371000  1
  H  1620  1  0.02390500  0.31915800  0.73318300  1
  H  1623  1  0.08061400  0.30168900  0.70134000  1
  H  1624  1  0.09966700  0.26595800  0.71181500  1
  H  1625  1  0.06434400  0.27015100  0.68050600  1
  H  1627  1  0.98393000  0.33275800  0.77928000  1
  H  1629  1  0.02847300  0.19967800  0.73361000  1
  H  1635  1  0.72401900  0.81989500  0.51029500  1
  H  1638  1  0.66757200  0.80479200  0.54295100  1
  H  1639  1  0.64778300  0.76843800  0.53603200  1
  H  1640  1  0.68525100  0.77508500  0.56576900  1
  H  1642  1  0.76535200  0.83192800  0.46436500  1
  H  1644  1  0.73159300  0.70007900  0.52412400  1
  H  1650  1  0.49494200  0.56517000  0.47461900  1
  H  1653  1  0.43759500  0.54902600  0.44311400  1
  H  1654  1  0.41146900  0.51616500  0.45560700  1
  H  1655  1  0.45073500  0.51459000  0.42627500  1
  H  1657  1  0.53918100  0.58342500  0.51503200  1
  H  1659  1  0.47350900  0.44610800  0.48555500  1
  H  1665  1  0.78481600  0.06699100  0.27397500  1
  H  1668  1  0.84126100  0.05057000  0.30608100  1
  H  1669  1  0.86733100  0.01749600  0.29411600  1
  H  1670  1  0.82697900  0.01627900  0.32277300  1
  H  1672  1  0.73837000  0.08583600  0.23502400  1
  H  1674  1  0.80631100  0.94802500  0.26284800  1
  H  1680  1  0.24725500  0.95328500  0.72659800  1
  H  1683  1  0.19029000  0.97034600  0.69532100  1
  H  1684  1  0.16672700  0.00428900  0.70725800  1
  H  1685  1  0.20517800  0.00388300  0.67738800  1
  H  1687  1  0.29360900  0.93433300  0.76541800  1
  H  1689  1  0.23268200  0.07286300  0.73516400  1
  H  1695  1  0.98999200  0.56281600  0.97804700  1
  H  1698  1  0.93348800  0.54543200  0.94664300  1
  H  1699  1  0.91109500  0.51086000  0.95777300  1
  H  1700  1  0.94977700  0.51255600  0.92808200  1
  H  1702  1  0.03798700  0.58206300  0.01580750  1
  H  1704  1  0.97990500  0.44280000  0.98449800  1
  C  1  1  0.16353900  0.12175300  0.15819400  1
  C  2  1  0.19854800  0.14182700  0.16043500  1
  C  3  1  0.19362600  0.16364300  0.13897800  1
  C  4  1  0.15629900  0.15754400  0.12156700  1
  C  5  1  0.15261000  0.17246900  0.09355900  1
  C  6  1  0.18577300  0.19305600  0.08432100  1
  C  7  1  0.21949400  0.20082200  0.10464700  1
  C  8  1  0.22441500  0.18568900  0.13161900  1
  C  9  1  0.23582300  0.13617700  0.17797500  1
  C  10  1  0.23848600  0.10911200  0.19337800  1
  C  11  1  0.20423500  0.08777600  0.19193600  1
  C  12  1  0.16673000  0.09425200  0.17408700  1
  C  13  1  0.09483900  0.14827700  0.15801200  1
  C  14  1  0.05972500  0.12845100  0.16136700  1
  C  15  1  0.06396000  0.10587200  0.14058900  1
  C  16  1  0.10103000  0.11102500  0.12263800  1
  C  17  1  0.03273100  0.08375700  0.13437100  1
  C  18  1  0.03654500  0.06781200  0.10778200  1
  C  19  1  0.06951600  0.07482100  0.08662900  1
  C  20  1  0.10330200  0.09543400  0.09486800  1
  C  21  1  0.09227000  0.17643700  0.17280700  1
  C  22  1  0.05504300  0.18399700  0.19049600  1
  C  23  1  0.02030400  0.16307100  0.19265600  1
  C  24  1  0.02247000  0.13530800  0.17849200  1
  C  37  1  0.12890900  0.13454800  0.13771500  1
  C  42  1  0.66370400  0.65338600  0.11523100  1
  C  43  1  0.70680200  0.64586300  0.12302400  1
  C  44  1  0.70690000  0.62230100  0.14261500  1
  C  45  1  0.66382900  0.61398300  0.14960800  1
  C  46  1  0.65821000  0.58956300  0.16978300  1
  C  47  1  0.69544300  0.57457300  0.18219800  1
  C  48  1  0.73785500  0.58319500  0.17258700  1
  C  49  1  0.74398200  0.60723700  0.15337200  1
  C  50  1  0.74372300  0.66139300  0.11268600  1
  C  51  1  0.73743200  0.68510500  0.09309000  1
  C  52  1  0.69507200  0.69292700  0.08272200  1
  C  53  1  0.65793800  0.67752600  0.09474900  1
  C  54  1  0.60148000  0.61546800  0.11272900  1
  C  55  1  0.55817300  0.62161700  0.12114900  1
  C  56  1  0.55740200  0.64314000  0.14291500  1
  C  57  1  0.60021100  0.65083700  0.15125100  1
  C  58  1  0.51987700  0.65705500  0.15446400  1
  C  59  1  0.52523000  0.67895800  0.17615700  1
  C  60  1  0.56724200  0.68632400  0.18744900  1
  C  61  1  0.60503300  0.67285800  0.17411300  1
  C  62  1  0.60785400  0.59418400  0.08936000  1
  C  63  1  0.57103400  0.58006100  0.07546700  1
  C  64  1  0.52853700  0.58575500  0.08686100  1
  C  65  1  0.52166200  0.60681300  0.10919100  1
  C  78  1  0.63230700  0.63344900  0.13219400  1
  C  83  1  0.60294700  0.14839800  0.65735300  1
  C  84  1  0.56558600  0.13046900  0.66065200  1
  C  85  1  0.56711800  0.10736200  0.64030800  1
  C  86  1  0.60473700  0.11023100  0.62249100  1
  C  87  1  0.60654500  0.09329500  0.59555100  1
  C  88  1  0.57109000  0.07398200  0.58766700  1
  C  89  1  0.53666800  0.06951100  0.60842600  1
  C  90  1  0.53377200  0.08662400  0.63435800  1
  C  91  1  0.52926500  0.13906300  0.67785200  1
  C  92  1  0.53030200  0.16671400  0.69217200  1
  C  93  1  0.56727500  0.18580500  0.69010400  1
  C  94  1  0.60364200  0.17651000  0.67229100  1
  C  95  1  0.66985100  0.11753500  0.65505900  1
  C  96  1  0.71111200  0.12871400  0.64733000  1
  C  97  1  0.70660200  0.14988400  0.62540300  1
  C  98  1  0.66248400  0.15261800  0.61686000  1
  C  99  1  0.74064600  0.16673900  0.61285300  1
  C  100  1  0.73061200  0.18619500  0.58964800  1
  C  101  1  0.68753400  0.18817600  0.57800400  1
  C  102  1  0.65294900  0.17226800  0.59261000  1
  C  103  1  0.66813200  0.09490400  0.67750000  1
  C  104  1  0.70738600  0.08431600  0.69123200  1
  C  105  1  0.74819700  0.09546200  0.68109800  1
  C  106  1  0.75039500  0.11788000  0.65956600  1
  C  119  1  0.63472100  0.13289600  0.63675700  1
  C  124  1  0.10269000  0.61478300  0.61273700  1
  C  125  1  0.06067800  0.62482500  0.62008300  1
  C  126  1  0.06370700  0.64716100  0.64087300  1
  C  127  1  0.10748800  0.65145600  0.64960200  1
  C  128  1  0.11527100  0.67263000  0.67286500  1
  C  129  1  0.07949300  0.68871200  0.68592900  1
  C  130  1  0.03704500  0.68540600  0.67352800  1
  C  131  1  0.02858600  0.66421200  0.65163000  1
  C  132  1  0.02219600  0.61229200  0.60829600  1
  C  133  1  0.02602900  0.58958500  0.58719500  1
  C  134  1  0.06763900  0.57999700  0.57699200  1
  C  135  1  0.10607900  0.59197100  0.59059000  1
  C  136  1  0.16810700  0.64684600  0.60971700  1
  C  137  1  0.20601800  0.62934800  0.60713200  1
  C  138  1  0.20517900  0.60702100  0.62830500  1
  C  139  1  0.16730800  0.60979500  0.64589200  1
  C  140  1  0.23878100  0.58657700  0.63454500  1
  C  141  1  0.23587300  0.56962800  0.66056700  1
  C  142  1  0.20107500  0.57386300  0.68108900  1
  C  143  1  0.16535000  0.59282900  0.67283100  1
  C  144  1  0.16675700  0.67436800  0.59374200  1
  C  145  1  0.20269500  0.68320400  0.57529300  1
  C  146  1  0.23984000  0.66426100  0.57348300  1
  C  147  1  0.24170200  0.63732200  0.58904500  1
  C  160  1  0.13669500  0.63156100  0.63076800  1
  C  165  1  0.35392200  0.90230400  0.36425600  1
  C  166  1  0.31073900  0.89481900  0.37183500  1
  C  167  1  0.31058100  0.87360200  0.39393600  1
  C  168  1  0.35359400  0.86710900  0.40283500  1
  C  169  1  0.35911200  0.84599700  0.42644400  1
  C  170  1  0.32175900  0.83242600  0.44020700  1
  C  171  1  0.27956100  0.83853000  0.42850300  1
  C  172  1  0.27353400  0.85940300  0.40586600  1
  C  173  1  0.27387300  0.90843300  0.35898700  1
  C  174  1  0.28042200  0.92974600  0.33682300  1
  C  175  1  0.32306000  0.93690400  0.32652900  1
  C  176  1  0.36005600  0.92386700  0.34115900  1
  C  177  1  0.41615000  0.90466200  0.40133400  1
  C  178  1  0.45944700  0.89733400  0.39386900  1
  C  179  1  0.46002200  0.87427400  0.37369500  1
  C  180  1  0.41710400  0.86583100  0.36642500  1
  C  181  1  0.49736600  0.86017600  0.36207400  1
  C  182  1  0.49161900  0.83695600  0.34181100  1
  C  183  1  0.44928900  0.82813500  0.33224900  1
  C  184  1  0.41183300  0.84205500  0.34549600  1
  C  185  1  0.40974000  0.92846800  0.42208600  1
  C  186  1  0.44652700  0.94365200  0.43481300  1
  C  187  1  0.48920800  0.93597100  0.42497900  1
  C  188  1  0.49607000  0.91263200  0.40502200  1
  C  201  1  0.38519200  0.88492600  0.38383400  1
  C  206  1  0.85839000  0.86117700  0.89776500  1
  C  207  1  0.82148800  0.85781700  0.87933600  1
  C  208  1  0.82210500  0.87924000  0.85725200  1
  C  209  1  0.86001000  0.89670900  0.86017800  1
  C  210  1  0.86183100  0.92405200  0.84394200  1
  C  211  1  0.82667400  0.93252400  0.82465300  1
  C  212  1  0.78976300  0.91344300  0.82224700  1
  C  213  1  0.78724000  0.88680300  0.83826200  1
  C  214  1  0.78737500  0.83774000  0.88551200  1
  C  215  1  0.78901800  0.82146600  0.91200900  1
  C  216  1  0.82314100  0.82592400  0.93299800  1
  C  217  1  0.85926900  0.84464600  0.92499900  1
  C  218  1  0.92492100  0.86416100  0.86645500  1
  C  219  1  0.96660800  0.87344400  0.87546300  1
  C  220  1  0.96278000  0.89635800  0.89560500  1
  C  221  1  0.91849800  0.90268600  0.90146400  1
  C  222  1  0.99781800  0.91256700  0.90770700  1
  C  223  1  0.98846000  0.93600400  0.92698000  1
  C  224  1  0.94485400  0.94286400  0.93546400  1
  C  225  1  0.90968100  0.92668800  0.92166900  1
  C  226  1  0.92260200  0.84042400  0.84518900  1
  C  227  1  0.96161500  0.82734700  0.83339100  1
  C  228  1  0.00265000  0.83705200  0.84452300  1
  C  229  1  0.00552600  0.86024500  0.86514800  1
  C  242  1  0.89013500  0.88216800  0.88259200  1
  C  247  1  0.91169800  0.39571000  0.40636800  1
  C  248  1  0.94757300  0.37626600  0.40738000  1
  C  249  1  0.94253800  0.35497800  0.38544900  1
  C  250  1  0.90372800  0.36031200  0.36935800  1
  C  251  1  0.89847000  0.34518400  0.34157400  1
  C  252  1  0.93177600  0.32529600  0.33113900  1
  C  253  1  0.96754300  0.31844500  0.35011500  1
  C  254  1  0.97378500  0.33365600  0.37692300  1
  C  255  1  0.98525900  0.38217400  0.42443800  1
  C  256  1  0.98712800  0.40862400  0.44093800  1
  C  257  1  0.95178500  0.42915100  0.44082600  1
  C  258  1  0.91403100  0.42257500  0.42333000  1
  C  259  1  0.84975000  0.40697800  0.37091700  1
  C  260  1  0.81250400  0.41251300  0.38856200  1
  C  261  1  0.80764600  0.39008800  0.40941300  1
  C  262  1  0.84241200  0.36990900  0.40642200  1
  C  263  1  0.77063000  0.38409700  0.42707800  1
  C  264  1  0.76819300  0.35676500  0.44202300  1
  C  265  1  0.80240800  0.33543200  0.44000600  1
  C  266  1  0.83959500  0.34218400  0.42193900  1
  C  267  1  0.85305000  0.42255100  0.34322500  1
  C  268  1  0.81993400  0.44351500  0.33475300  1
  C  269  1  0.78670900  0.45093100  0.35557900  1
  C  270  1  0.78201900  0.43505400  0.38215600  1
  C  283  1  0.87675800  0.38311400  0.38607800  1
  C  288  1  0.41081000  0.36097700  0.86847800  1
  C  289  1  0.44887200  0.35710400  0.88566100  1
  C  290  1  0.44952500  0.37770200  0.90854900  1
  C  291  1  0.41163600  0.39537000  0.90713300  1
  C  292  1  0.41141300  0.42260200  0.92364800  1
  C  293  1  0.44784600  0.43061200  0.94204400  1
  C  294  1  0.48430100  0.41101200  0.94337500  1
  C  295  1  0.48540000  0.38457700  0.92692200  1
  C  296  1  0.48276900  0.33752700  0.87758500  1
  C  297  1  0.47940700  0.32223100  0.85056700  1
  C  298  1  0.44348600  0.32694600  0.83108600  1
  C  299  1  0.40790700  0.34525300  0.84086000  1
  C  300  1  0.34581100  0.36331600  0.90128300  1
  C  301  1  0.30395800  0.37365100  0.89390800  1
  C  302  1  0.30738800  0.39733100  0.87463000  1
  C  303  1  0.35145900  0.40283300  0.86741300  1
  C  304  1  0.27234700  0.41450500  0.86393700  1
  C  305  1  0.28143500  0.43769400  0.84428000  1
  C  306  1  0.32465100  0.44329600  0.83412600  1
  C  307  1  0.36001000  0.42644600  0.84675700  1
  C  308  1  0.34856300  0.33831300  0.92101700  1
  C  309  1  0.30981600  0.32476900  0.93270300  1
  C  310  1  0.26853000  0.33549400  0.92298000  1
  C  311  1  0.26522900  0.36013800  0.90412400  1
  C  324  1  0.38019600  0.38158000  0.88505600  1
  C  329  1  0.01737500  0.04313700  0.02235800  1
  C  330  1  0.98265400  0.04876000  0.00209400  1
  C  331  1  0.96107400  0.02508400  0.98685400  1
  C  332  1  0.97441100  0.99525200  0.99315300  1
  C  336  1  0.92498000  0.03195900  0.96564600  1
  C  340  1  0.03213900  0.06478800  0.04234700  1
  C  342  1  0.96086100  0.96863700  0.97950300  1
  C  344  1  0.52870400  0.72704100  0.25044800  1
  C  345  1  0.49289800  0.72216000  0.27004300  1
  C  346  1  0.46966800  0.74628100  0.28313000  1
  C  347  1  0.48324800  0.77581800  0.27586000  1
  C  351  1  0.43208100  0.73991900  0.30332600  1
  C  355  1  0.54697800  0.70339600  0.23447100  1
  C  357  1  0.46900900  0.80260500  0.28864900  1
  C  359  1  0.71867600  0.22591200  0.51192300  1
  C  360  1  0.75301900  0.22185100  0.49093700  1
  C  361  1  0.77563200  0.24655300  0.47838800  1
  C  362  1  0.76271800  0.27565600  0.48751900  1
  C  366  1  0.81284800  0.24148200  0.45754400  1
  C  370  1  0.70329500  0.20212900  0.52916700  1
  C  372  1  0.78013900  0.30290400  0.47838800  1
  C  374  1  0.25201500  0.54157200  0.74541200  1
  C  375  1  0.28680200  0.54729000  0.76559500  1
  C  376  1  0.30821500  0.52372100  0.78105300  1
  C  377  1  0.29447700  0.49389200  0.77514800  1
  C  381  1  0.34433500  0.53080600  0.80218700  1
  C  385  1  0.23689000  0.56337900  0.72574300  1
  C  387  1  0.30717800  0.46751500  0.78953200  1
  C  389  1  0.48968400  0.29464000  0.76553900  1
  C  390  1  0.52433200  0.29940600  0.74495600  1
  C  391  1  0.54627200  0.27506200  0.73112100  1
  C  392  1  0.53283700  0.24567900  0.73889200  1
  C  396  1  0.58350200  0.28056100  0.71044300  1
  C  400  1  0.47555000  0.31706900  0.78485900  1
  C  402  1  0.55014300  0.21861900  0.72912700  1
  C  404  1  0.28517900  0.79203400  0.50386700  1
  C  405  1  0.25185800  0.79648500  0.52551900  1
  C  406  1  0.22780600  0.77213500  0.53750200  1
  C  407  1  0.23811100  0.74298400  0.52706300  1
  C  411  1  0.19194100  0.77767600  0.55929300  1
  C  415  1  0.30236300  0.81601600  0.48776900  1
  C  417  1  0.21969200  0.71593700  0.53601000  1
  C  419  1  0.76967900  0.47444800  0.26967700  1
  C  420  1  0.73433500  0.46900700  0.24987600  1
  C  421  1  0.71357500  0.49272800  0.23422300  1
  C  422  1  0.72860200  0.52237200  0.23953900  1
  C  426  1  0.67659200  0.48609400  0.21365300  1
  C  430  1  0.78381600  0.45293400  0.28997800  1
  C  432  1  0.71576300  0.54886000  0.22546300  1
  C  434  1  0.51998900  0.04223300  0.52316100  1
  C  435  1  0.48467500  0.04789700  0.50340000  1
  C  436  1  0.46353500  0.02430800  0.48781600  1
  C  437  1  0.47824600  0.99458200  0.49312100  1
  C  441  1  0.42658400  0.03120800  0.46729200  1
  C  445  1  0.53498200  0.06383300  0.54306900  1
  C  447  1  0.46518400  0.96819500  0.47898200  1
  C  449  1  0.04298100  0.72660300  0.75083100  1
  C  450  1  0.00597300  0.72190100  0.76941600  1
  C  451  1  0.98348400  0.74608400  0.78298300  1
  C  452  1  0.99913700  0.77548500  0.77726300  1
  C  456  1  0.94443700  0.73997500  0.80194000  1
  C  460  1  0.06022800  0.70330600  0.73384000  1
  C  462  1  0.98547200  0.80213800  0.79052100  1
  C  464  1  0.23478700  0.22319900  0.01862600  1
  C  465  1  0.27155600  0.21843300  0.99987400  1
  C  466  1  0.29174600  0.24243800  0.98433900  1
  C  467  1  0.27443800  0.27165600  0.98861600  1
  C  471  1  0.33057100  0.23661500  0.96513500  1
  C  475  1  0.22091100  0.20177800  0.03910300  1
  C  477  1  0.28715600  0.29830500  0.97494000  1
  C  479  1  0.97586100  0.29395600  0.26473600  1
  C  480  1  0.01169000  0.29808400  0.24497400  1
  C  481  1  0.03278000  0.27337800  0.23117400  1
  C  482  1  0.01705000  0.24428600  0.23801400  1
  C  486  1  0.07150300  0.27815100  0.21160600  1
  C  490  1  0.96237600  0.31635900  0.28435400  1
  C  492  1  0.03379500  0.21695600  0.22859900  1
  C  494  1  0.77096100  0.79325300  0.99662800  1
  C  495  1  0.73520800  0.79849500  0.01614700  1
  C  496  1  0.71387700  0.77464100  0.03120900  1
  C  497  1  0.72880200  0.74502300  0.02561200  1
  C  501  1  0.67656600  0.78117200  0.05154400  1
  C  505  1  0.78617100  0.81525400  0.97720700  1
  C  507  1  0.71575300  0.71844800  0.03943900  1
  C  509  1  0.53520900  0.53946400  0.01191100  1
  C  510  1  0.50228300  0.54388200  0.98996300  1
  C  511  1  0.47774400  0.51961400  0.97825500  1
  C  512  1  0.48703300  0.49052600  0.98932000  1
  C  516  1  0.44245600  0.52524200  0.95605300  1
  C  520  1  0.55262900  0.56353300  0.02780900  1
  C  522  1  0.46825800  0.46347500  0.98065100  1
  C  524  1  0.74553400  0.04143500  0.75314200  1
  C  525  1  0.77769900  0.04575300  0.77558500  1
  C  526  1  0.80165300  0.02137500  0.78755100  1
  C  527  1  0.79241700  0.99237300  0.77624900  1
  C  531  1  0.83619600  0.02681100  0.81033600  1
  C  535  1  0.72772900  0.06559900  0.73774800  1
  C  537  1  0.81069700  0.96530900  0.78521200  1
  C  539  1  0.28978800  0.97851400  0.26279500  1
  C  540  1  0.25622500  0.97449600  0.24125000  1
  C  541  1  0.23312800  0.99918800  0.22913500  1
  C  542  1  0.24479500  0.02821400  0.23928700  1
  C  546  1  0.19684100  0.99406000  0.20755300  1
  C  550  1  0.30607700  0.95436400  0.27897100  1
  C  552  1  0.22717600  0.05547500  0.23035200  1
  C  554  1  0.03312500  0.53775700  0.51395600  1
  C  555  1  0.99943500  0.54164800  0.49251400  1
  C  556  1  0.97717300  0.51680800  0.48004300  1
  C  557  1  0.98980800  0.48782700  0.48981500  1
  C  561  1  0.94089200  0.52176700  0.45841300  1
  C  565  1  0.04937800  0.56190700  0.53001500  1
  C  567  1  0.97338400  0.46047000  0.48027300  1
  C  569  1  0.16353900  0.12175300  0.40388900  1
  C  570  1  0.19854800  0.14182700  0.40613000  1
  C  571  1  0.19362600  0.16364300  0.38467300  1
  C  572  1  0.15629900  0.15754400  0.36726200  1
  C  573  1  0.15261000  0.17246900  0.33925400  1
  C  574  1  0.18577300  0.19305600  0.33001600  1
  C  575  1  0.21949400  0.20082200  0.35034200  1
  C  576  1  0.22441500  0.18568900  0.37731400  1
  C  577  1  0.23582300  0.13617700  0.42367000  1
  C  578  1  0.23848600  0.10911200  0.43907300  1
  C  579  1  0.20423500  0.08777600  0.43763100  1
  C  580  1  0.16673000  0.09425200  0.41978200  1
  C  581  1  0.09483900  0.14827700  0.40370700  1
  C  582  1  0.05972500  0.12845100  0.40706200  1
  C  583  1  0.06396000  0.10587200  0.38628400  1
  C  584  1  0.10103000  0.11102500  0.36833300  1
  C  585  1  0.03273100  0.08375700  0.38006600  1
  C  586  1  0.03654500  0.06781200  0.35347700  1
  C  587  1  0.06951600  0.07482100  0.33232400  1
  C  588  1  0.10330200  0.09543400  0.34056300  1
  C  589  1  0.09227000  0.17643700  0.41850200  1
  C  590  1  0.05504300  0.18399700  0.43619100  1
  C  591  1  0.02030400  0.16307100  0.43835100  1
  C  592  1  0.02247000  0.13530800  0.42418700  1
  C  605  1  0.12890900  0.13454800  0.38341000  1
  C  610  1  0.66370400  0.65338600  0.36092600  1
  C  611  1  0.70680200  0.64586300  0.36871900  1
  C  612  1  0.70690000  0.62230100  0.38831000  1
  C  613  1  0.66382900  0.61398300  0.39530300  1
  C  614  1  0.65821000  0.58956300  0.41547800  1
  C  615  1  0.69544300  0.57457300  0.42789300  1
  C  616  1  0.73785500  0.58319500  0.41828200  1
  C  617  1  0.74398200  0.60723700  0.39906700  1
  C  618  1  0.74372300  0.66139300  0.35838100  1
  C  619  1  0.73743200  0.68510500  0.33878500  1
  C  620  1  0.69507200  0.69292700  0.32841700  1
  C  621  1  0.65793800  0.67752600  0.34044400  1
  C  622  1  0.60148000  0.61546800  0.35842400  1
  C  623  1  0.55817300  0.62161700  0.36684400  1
  C  624  1  0.55740200  0.64314000  0.38861000  1
  C  625  1  0.60021100  0.65083700  0.39694600  1
  C  626  1  0.51987700  0.65705500  0.40015900  1
  C  627  1  0.52523000  0.67895800  0.42185200  1
  C  628  1  0.56724200  0.68632400  0.43314400  1
  C  629  1  0.60503300  0.67285800  0.41980800  1
  C  630  1  0.60785400  0.59418400  0.33505500  1
  C  631  1  0.57103400  0.58006100  0.32116200  1
  C  632  1  0.52853700  0.58575500  0.33255600  1
  C  633  1  0.52166200  0.60681300  0.35488600  1
  C  646  1  0.63230700  0.63344900  0.37788900  1
  C  651  1  0.60294700  0.14839800  0.90304800  1
  C  652  1  0.56558600  0.13046900  0.90634700  1
  C  653  1  0.56711800  0.10736200  0.88600300  1
  C  654  1  0.60473700  0.11023100  0.86818600  1
  C  655  1  0.60654500  0.09329500  0.84124600  1
  C  656  1  0.57109000  0.07398200  0.83336200  1
  C  657  1  0.53666800  0.06951100  0.85412100  1
  C  658  1  0.53377200  0.08662400  0.88005300  1
  C  659  1  0.52926500  0.13906300  0.92354700  1
  C  660  1  0.53030200  0.16671400  0.93786700  1
  C  661  1  0.56727500  0.18580500  0.93579900  1
  C  662  1  0.60364200  0.17651000  0.91798600  1
  C  663  1  0.66985100  0.11753500  0.90075400  1
  C  664  1  0.71111200  0.12871400  0.89302500  1
  C  665  1  0.70660200  0.14988400  0.87109800  1
  C  666  1  0.66248400  0.15261800  0.86255500  1
  C  667  1  0.74064600  0.16673900  0.85854800  1
  C  668  1  0.73061200  0.18619500  0.83534300  1
  C  669  1  0.68753400  0.18817600  0.82369900  1
  C  670  1  0.65294900  0.17226800  0.83830500  1
  C  671  1  0.66813200  0.09490400  0.92319500  1
  C  672  1  0.70738600  0.08431600  0.93692700  1
  C  673  1  0.74819700  0.09546200  0.92679300  1
  C  674  1  0.75039500  0.11788000  0.90526100  1
  C  687  1  0.63472100  0.13289600  0.88245200  1
  C  692  1  0.10269000  0.61478300  0.85843200  1
  C  693  1  0.06067800  0.62482500  0.86577800  1
  C  694  1  0.06370700  0.64716100  0.88656800  1
  C  695  1  0.10748800  0.65145600  0.89529700  1
  C  696  1  0.11527100  0.67263000  0.91856000  1
  C  697  1  0.07949300  0.68871200  0.93162400  1
  C  698  1  0.03704500  0.68540600  0.91922300  1
  C  699  1  0.02858600  0.66421200  0.89732500  1
  C  700  1  0.02219600  0.61229200  0.85399100  1
  C  701  1  0.02602900  0.58958500  0.83289000  1
  C  702  1  0.06763900  0.57999700  0.82268700  1
  C  703  1  0.10607900  0.59197100  0.83628500  1
  C  704  1  0.16810700  0.64684600  0.85541200  1
  C  705  1  0.20601800  0.62934800  0.85282700  1
  C  706  1  0.20517900  0.60702100  0.87400000  1
  C  707  1  0.16730800  0.60979500  0.89158700  1
  C  708  1  0.23878100  0.58657700  0.88024000  1
  C  709  1  0.23587300  0.56962800  0.90626200  1
  C  710  1  0.20107500  0.57386300  0.92678400  1
  C  711  1  0.16535000  0.59282900  0.91852600  1
  C  712  1  0.16675700  0.67436800  0.83943700  1
  C  713  1  0.20269500  0.68320400  0.82098800  1
  C  714  1  0.23984000  0.66426100  0.81917800  1
  C  715  1  0.24170200  0.63732200  0.83474000  1
  C  728  1  0.13669500  0.63156100  0.87646300  1
  C  733  1  0.35392200  0.90230400  0.60995100  1
  C  734  1  0.31073900  0.89481900  0.61753000  1
  C  735  1  0.31058100  0.87360200  0.63963100  1
  C  736  1  0.35359400  0.86710900  0.64853000  1
  C  737  1  0.35911200  0.84599700  0.67213900  1
  C  738  1  0.32175900  0.83242600  0.68590200  1
  C  739  1  0.27956100  0.83853000  0.67419800  1
  C  740  1  0.27353400  0.85940300  0.65156100  1
  C  741  1  0.27387300  0.90843300  0.60468200  1
  C  742  1  0.28042200  0.92974600  0.58251800  1
  C  743  1  0.32306000  0.93690400  0.57222400  1
  C  744  1  0.36005600  0.92386700  0.58685400  1
  C  745  1  0.41615000  0.90466200  0.64702900  1
  C  746  1  0.45944700  0.89733400  0.63956400  1
  C  747  1  0.46002200  0.87427400  0.61939000  1
  C  748  1  0.41710400  0.86583100  0.61212000  1
  C  749  1  0.49736600  0.86017600  0.60776900  1
  C  750  1  0.49161900  0.83695600  0.58750600  1
  C  751  1  0.44928900  0.82813500  0.57794400  1
  C  752  1  0.41183300  0.84205500  0.59119100  1
  C  753  1  0.40974000  0.92846800  0.66778100  1
  C  754  1  0.44652700  0.94365200  0.68050800  1
  C  755  1  0.48920800  0.93597100  0.67067400  1
  C  756  1  0.49607000  0.91263200  0.65071700  1
  C  769  1  0.38519200  0.88492600  0.62952900  1
  C  774  1  0.85839000  0.86117700  0.14346000  1
  C  775  1  0.82148800  0.85781700  0.12503100  1
  C  776  1  0.82210500  0.87924000  0.10294700  1
  C  777  1  0.86001000  0.89670900  0.10587300  1
  C  778  1  0.86183100  0.92405200  0.08963680  1
  C  779  1  0.82667400  0.93252400  0.07034780  1
  C  780  1  0.78976300  0.91344300  0.06794180  1
  C  781  1  0.78724000  0.88680300  0.08395680  1
  C  782  1  0.78737500  0.83774000  0.13120700  1
  C  783  1  0.78901800  0.82146600  0.15770400  1
  C  784  1  0.82314100  0.82592400  0.17869300  1
  C  785  1  0.85926900  0.84464600  0.17069400  1
  C  786  1  0.92492100  0.86416100  0.11215000  1
  C  787  1  0.96660800  0.87344400  0.12115800  1
  C  788  1  0.96278000  0.89635800  0.14130000  1
  C  789  1  0.91849800  0.90268600  0.14715900  1
  C  790  1  0.99781800  0.91256700  0.15340200  1
  C  791  1  0.98846000  0.93600400  0.17267500  1
  C  792  1  0.94485400  0.94286400  0.18115900  1
  C  793  1  0.90968100  0.92668800  0.16736400  1
  C  794  1  0.92260200  0.84042400  0.09088380  1
  C  795  1  0.96161500  0.82734700  0.07908580  1
  C  796  1  0.00265000  0.83705200  0.09021780  1
  C  797  1  0.00552600  0.86024500  0.11084300  1
  C  810  1  0.89013500  0.88216800  0.12828700  1
  C  815  1  0.91169800  0.39571000  0.65206300  1
  C  816  1  0.94757300  0.37626600  0.65307500  1
  C  817  1  0.94253800  0.35497800  0.63114400  1
  C  818  1  0.90372800  0.36031200  0.61505300  1
  C  819  1  0.89847000  0.34518400  0.58726900  1
  C  820  1  0.93177600  0.32529600  0.57683400  1
  C  821  1  0.96754300  0.31844500  0.59581000  1
  C  822  1  0.97378500  0.33365600  0.62261800  1
  C  823  1  0.98525900  0.38217400  0.67013300  1
  C  824  1  0.98712800  0.40862400  0.68663300  1
  C  825  1  0.95178500  0.42915100  0.68652100  1
  C  826  1  0.91403100  0.42257500  0.66902500  1
  C  827  1  0.84975000  0.40697800  0.61661200  1
  C  828  1  0.81250400  0.41251300  0.63425700  1
  C  829  1  0.80764600  0.39008800  0.65510800  1
  C  830  1  0.84241200  0.36990900  0.65211700  1
  C  831  1  0.77063000  0.38409700  0.67277300  1
  C  832  1  0.76819300  0.35676500  0.68771800  1
  C  833  1  0.80240800  0.33543200  0.68570100  1
  C  834  1  0.83959500  0.34218400  0.66763400  1
  C  835  1  0.85305000  0.42255100  0.58892000  1
  C  836  1  0.81993400  0.44351500  0.58044800  1
  C  837  1  0.78670900  0.45093100  0.60127400  1
  C  838  1  0.78201900  0.43505400  0.62785100  1
  C  851  1  0.87675800  0.38311400  0.63177300  1
  C  856  1  0.41081000  0.36097700  0.11417300  1
  C  857  1  0.44887200  0.35710400  0.13135600  1
  C  858  1  0.44952500  0.37770200  0.15424400  1
  C  859  1  0.41163600  0.39537000  0.15282800  1
  C  860  1  0.41141300  0.42260200  0.16934300  1
  C  861  1  0.44784600  0.43061200  0.18773900  1
  C  862  1  0.48430100  0.41101200  0.18907000  1
  C  863  1  0.48540000  0.38457700  0.17261700  1
  C  864  1  0.48276900  0.33752700  0.12328000  1
  C  865  1  0.47940700  0.32223100  0.09626180  1
  C  866  1  0.44348600  0.32694600  0.07678080  1
  C  867  1  0.40790700  0.34525300  0.08655480  1
  C  868  1  0.34581100  0.36331600  0.14697800  1
  C  869  1  0.30395800  0.37365100  0.13960300  1
  C  870  1  0.30738800  0.39733100  0.12032500  1
  C  871  1  0.35145900  0.40283300  0.11310800  1
  C  872  1  0.27234700  0.41450500  0.10963200  1
  C  873  1  0.28143500  0.43769400  0.08997480  1
  C  874  1  0.32465100  0.44329600  0.07982080  1
  C  875  1  0.36001000  0.42644600  0.09245180  1
  C  876  1  0.34856300  0.33831300  0.16671200  1
  C  877  1  0.30981600  0.32476900  0.17839800  1
  C  878  1  0.26853000  0.33549400  0.16867500  1
  C  879  1  0.26522900  0.36013800  0.14981900  1
  C  892  1  0.38019600  0.38158000  0.13075100  1
  C  897  1  0.01737500  0.04313700  0.26805300  1
  C  898  1  0.98265400  0.04876000  0.24778900  1
  C  899  1  0.96107400  0.02508400  0.23254900  1
  C  900  1  0.97441100  0.99525200  0.23884800  1
  C  904  1  0.92498000  0.03195900  0.21134100  1
  C  908  1  0.03213900  0.06478800  0.28804200  1
  C  910  1  0.96086100  0.96863700  0.22519800  1
  C  912  1  0.52870400  0.72704100  0.49614300  1
  C  913  1  0.49289800  0.72216000  0.51573800  1
  C  914  1  0.46966800  0.74628100  0.52882500  1
  C  915  1  0.48324800  0.77581800  0.52155500  1
  C  919  1  0.43208100  0.73991900  0.54902100  1
  C  923  1  0.54697800  0.70339600  0.48016600  1
  C  925  1  0.46900900  0.80260500  0.53434400  1
  C  927  1  0.71867600  0.22591200  0.75761800  1
  C  928  1  0.75301900  0.22185100  0.73663200  1
  C  929  1  0.77563200  0.24655300  0.72408300  1
  C  930  1  0.76271800  0.27565600  0.73321400  1
  C  934  1  0.81284800  0.24148200  0.70323900  1
  C  938  1  0.70329500  0.20212900  0.77486200  1
  C  940  1  0.78013900  0.30290400  0.72408300  1
  C  942  1  0.25201500  0.54157200  0.99110700  1
  C  943  1  0.28680200  0.54729000  0.01128980  1
  C  944  1  0.30821500  0.52372100  0.02674780  1
  C  945  1  0.29447700  0.49389200  0.02084280  1
  C  949  1  0.34433500  0.53080600  0.04788180  1
  C  953  1  0.23689000  0.56337900  0.97143800  1
  C  955  1  0.30717800  0.46751500  0.03522680  1
  C  957  1  0.48968400  0.29464000  0.01123380  1
  C  958  1  0.52433200  0.29940600  0.99065100  1
  C  959  1  0.54627200  0.27506200  0.97681600  1
  C  960  1  0.53283700  0.24567900  0.98458700  1
  C  964  1  0.58350200  0.28056100  0.95613800  1
  C  968  1  0.47555000  0.31706900  0.03055380  1
  C  970  1  0.55014300  0.21861900  0.97482200  1
  C  972  1  0.28517900  0.79203400  0.74956200  1
  C  973  1  0.25185800  0.79648500  0.77121400  1
  C  974  1  0.22780600  0.77213500  0.78319700  1
  C  975  1  0.23811100  0.74298400  0.77275800  1
  C  979  1  0.19194100  0.77767600  0.80498800  1
  C  983  1  0.30236300  0.81601600  0.73346400  1
  C  985  1  0.21969200  0.71593700  0.78170500  1
  C  987  1  0.76967900  0.47444800  0.51537200  1
  C  988  1  0.73433500  0.46900700  0.49557100  1
  C  989  1  0.71357500  0.49272800  0.47991800  1
  C  990  1  0.72860200  0.52237200  0.48523400  1
  C  994  1  0.67659200  0.48609400  0.45934800  1
  C  998  1  0.78381600  0.45293400  0.53567300  1
  C  1000  1  0.71576300  0.54886000  0.47115800  1
  C  1002  1  0.51998900  0.04223300  0.76885600  1
  C  1003  1  0.48467500  0.04789700  0.74909500  1
  C  1004  1  0.46353500  0.02430800  0.73351100  1
  C  1005  1  0.47824600  0.99458200  0.73881600  1
  C  1009  1  0.42658400  0.03120800  0.71298700  1
  C  1013  1  0.53498200  0.06383300  0.78876400  1
  C  1015  1  0.46518400  0.96819500  0.72467700  1
  C  1017  1  0.04298100  0.72660300  0.99652600  1
  C  1018  1  0.00597300  0.72190100  0.01511080  1
  C  1019  1  0.98348400  0.74608400  0.02867780  1
  C  1020  1  0.99913700  0.77548500  0.02295780  1
  C  1024  1  0.94443700  0.73997500  0.04763480  1
  C  1028  1  0.06022800  0.70330600  0.97953500  1
  C  1030  1  0.98547200  0.80213800  0.03621580  1
  C  1032  1  0.23478700  0.22319900  0.26432100  1
  C  1033  1  0.27155600  0.21843300  0.24556900  1
  C  1034  1  0.29174600  0.24243800  0.23003400  1
  C  1035  1  0.27443800  0.27165600  0.23431100  1
  C  1039  1  0.33057100  0.23661500  0.21083000  1
  C  1043  1  0.22091100  0.20177800  0.28479800  1
  C  1045  1  0.28715600  0.29830500  0.22063500  1
  C  1047  1  0.97586100  0.29395600  0.51043100  1
  C  1048  1  0.01169000  0.29808400  0.49066900  1
  C  1049  1  0.03278000  0.27337800  0.47686900  1
  C  1050  1  0.01705000  0.24428600  0.48370900  1
  C  1054  1  0.07150300  0.27815100  0.45730100  1
  C  1058  1  0.96237600  0.31635900  0.53004900  1
  C  1060  1  0.03379500  0.21695600  0.47429400  1
  C  1062  1  0.77096100  0.79325300  0.24232300  1
  C  1063  1  0.73520800  0.79849500  0.26184200  1
  C  1064  1  0.71387700  0.77464100  0.27690400  1
  C  1065  1  0.72880200  0.74502300  0.27130700  1
  C  1069  1  0.67656600  0.78117200  0.29723900  1
  C  1073  1  0.78617100  0.81525400  0.22290200  1
  C  1075  1  0.71575300  0.71844800  0.28513400  1
  C  1077  1  0.53520900  0.53946400  0.25760600  1
  C  1078  1  0.50228300  0.54388200  0.23565800  1
  C  1079  1  0.47774400  0.51961400  0.22395000  1
  C  1080  1  0.48703300  0.49052600  0.23501500  1
  C  1084  1  0.44245600  0.52524200  0.20174800  1
  C  1088  1  0.55262900  0.56353300  0.27350400  1
  C  1090  1  0.46825800  0.46347500  0.22634600  1
  C  1092  1  0.74553400  0.04143500  0.99883700  1
  C  1093  1  0.77769900  0.04575300  0.02127980  1
  C  1094  1  0.80165300  0.02137500  0.03324580  1
  C  1095  1  0.79241700  0.99237300  0.02194380  1
  C  1099  1  0.83619600  0.02681100  0.05603080  1
  C  1103  1  0.72772900  0.06559900  0.98344300  1
  C  1105  1  0.81069700  0.96530900  0.03090680  1
  C  1107  1  0.28978800  0.97851400  0.50849000  1
  C  1108  1  0.25622500  0.97449600  0.48694500  1
  C  1109  1  0.23312800  0.99918800  0.47483000  1
  C  1110  1  0.24479500  0.02821400  0.48498200  1
  C  1114  1  0.19684100  0.99406000  0.45324800  1
  C  1118  1  0.30607700  0.95436400  0.52466600  1
  C  1120  1  0.22717600  0.05547500  0.47604700  1
  C  1122  1  0.03312500  0.53775700  0.75965100  1
  C  1123  1  0.99943500  0.54164800  0.73820900  1
  C  1124  1  0.97717300  0.51680800  0.72573800  1
  C  1125  1  0.98980800  0.48782700  0.73551000  1
  C  1129  1  0.94089200  0.52176700  0.70410800  1
  C  1133  1  0.04937800  0.56190700  0.77571000  1
  C  1135  1  0.97338400  0.46047000  0.72596800  1
  C  1137  1  0.16353900  0.12175300  0.64958400  1
  C  1138  1  0.19854800  0.14182700  0.65182500  1
  C  1139  1  0.19362600  0.16364300  0.63036800  1
  C  1140  1  0.15629900  0.15754400  0.61295700  1
  C  1141  1  0.15261000  0.17246900  0.58494900  1
  C  1142  1  0.18577300  0.19305600  0.57571100  1
  C  1143  1  0.21949400  0.20082200  0.59603700  1
  C  1144  1  0.22441500  0.18568900  0.62300900  1
  C  1145  1  0.23582300  0.13617700  0.66936500  1
  C  1146  1  0.23848600  0.10911200  0.68476800  1
  C  1147  1  0.20423500  0.08777600  0.68332600  1
  C  1148  1  0.16673000  0.09425200  0.66547700  1
  C  1149  1  0.09483900  0.14827700  0.64940200  1
  C  1150  1  0.05972500  0.12845100  0.65275700  1
  C  1151  1  0.06396000  0.10587200  0.63197900  1
  C  1152  1  0.10103000  0.11102500  0.61402800  1
  C  1153  1  0.03273100  0.08375700  0.62576100  1
  C  1154  1  0.03654500  0.06781200  0.59917200  1
  C  1155  1  0.06951600  0.07482100  0.57801900  1
  C  1156  1  0.10330200  0.09543400  0.58625800  1
  C  1157  1  0.09227000  0.17643700  0.66419700  1
  C  1158  1  0.05504300  0.18399700  0.68188600  1
  C  1159  1  0.02030400  0.16307100  0.68404600  1
  C  1160  1  0.02247000  0.13530800  0.66988200  1
  C  1173  1  0.12890900  0.13454800  0.62910500  1
  C  1178  1  0.66370400  0.65338600  0.60662100  1
  C  1179  1  0.70680200  0.64586300  0.61441400  1
  C  1180  1  0.70690000  0.62230100  0.63400500  1
  C  1181  1  0.66382900  0.61398300  0.64099800  1
  C  1182  1  0.65821000  0.58956300  0.66117300  1
  C  1183  1  0.69544300  0.57457300  0.67358800  1
  C  1184  1  0.73785500  0.58319500  0.66397700  1
  C  1185  1  0.74398200  0.60723700  0.64476200  1
  C  1186  1  0.74372300  0.66139300  0.60407600  1
  C  1187  1  0.73743200  0.68510500  0.58448000  1
  C  1188  1  0.69507200  0.69292700  0.57411200  1
  C  1189  1  0.65793800  0.67752600  0.58613900  1
  C  1190  1  0.60148000  0.61546800  0.60411900  1
  C  1191  1  0.55817300  0.62161700  0.61253900  1
  C  1192  1  0.55740200  0.64314000  0.63430500  1
  C  1193  1  0.60021100  0.65083700  0.64264100  1
  C  1194  1  0.51987700  0.65705500  0.64585400  1
  C  1195  1  0.52523000  0.67895800  0.66754700  1
  C  1196  1  0.56724200  0.68632400  0.67883900  1
  C  1197  1  0.60503300  0.67285800  0.66550300  1
  C  1198  1  0.60785400  0.59418400  0.58075000  1
  C  1199  1  0.57103400  0.58006100  0.56685700  1
  C  1200  1  0.52853700  0.58575500  0.57825100  1
  C  1201  1  0.52166200  0.60681300  0.60058100  1
  C  1214  1  0.63230700  0.63344900  0.62358400  1
  C  1219  1  0.60294700  0.14839800  0.14874300  1
  C  1220  1  0.56558600  0.13046900  0.15204200  1
  C  1221  1  0.56711800  0.10736200  0.13169800  1
  C  1222  1  0.60473700  0.11023100  0.11388100  1
  C  1223  1  0.60654500  0.09329500  0.08694050  1
  C  1224  1  0.57109000  0.07398200  0.07905650  1
  C  1225  1  0.53666800  0.06951100  0.09981550  1
  C  1226  1  0.53377200  0.08662400  0.12574800  1
  C  1227  1  0.52926500  0.13906300  0.16924200  1
  C  1228  1  0.53030200  0.16671400  0.18356200  1
  C  1229  1  0.56727500  0.18580500  0.18149400  1
  C  1230  1  0.60364200  0.17651000  0.16368100  1
  C  1231  1  0.66985100  0.11753500  0.14644900  1
  C  1232  1  0.71111200  0.12871400  0.13872000  1
  C  1233  1  0.70660200  0.14988400  0.11679300  1
  C  1234  1  0.66248400  0.15261800  0.10825000  1
  C  1235  1  0.74064600  0.16673900  0.10424300  1
  C  1236  1  0.73061200  0.18619500  0.08103750  1
  C  1237  1  0.68753400  0.18817600  0.06939350  1
  C  1238  1  0.65294900  0.17226800  0.08399950  1
  C  1239  1  0.66813200  0.09490400  0.16889000  1
  C  1240  1  0.70738600  0.08431600  0.18262200  1
  C  1241  1  0.74819700  0.09546200  0.17248800  1
  C  1242  1  0.75039500  0.11788000  0.15095600  1
  C  1255  1  0.63472100  0.13289600  0.12814700  1
  C  1260  1  0.10269000  0.61478300  0.10412700  1
  C  1261  1  0.06067800  0.62482500  0.11147300  1
  C  1262  1  0.06370700  0.64716100  0.13226300  1
  C  1263  1  0.10748800  0.65145600  0.14099200  1
  C  1264  1  0.11527100  0.67263000  0.16425500  1
  C  1265  1  0.07949300  0.68871200  0.17731900  1
  C  1266  1  0.03704500  0.68540600  0.16491800  1
  C  1267  1  0.02858600  0.66421200  0.14302000  1
  C  1268  1  0.02219600  0.61229200  0.09968550  1
  C  1269  1  0.02602900  0.58958500  0.07858450  1
  C  1270  1  0.06763900  0.57999700  0.06838150  1
  C  1271  1  0.10607900  0.59197100  0.08197950  1
  C  1272  1  0.16810700  0.64684600  0.10110700  1
  C  1273  1  0.20601800  0.62934800  0.09852150  1
  C  1274  1  0.20517900  0.60702100  0.11969500  1
  C  1275  1  0.16730800  0.60979500  0.13728200  1
  C  1276  1  0.23878100  0.58657700  0.12593500  1
  C  1277  1  0.23587300  0.56962800  0.15195700  1
  C  1278  1  0.20107500  0.57386300  0.17247900  1
  C  1279  1  0.16535000  0.59282900  0.16422100  1
  C  1280  1  0.16675700  0.67436800  0.08513150  1
  C  1281  1  0.20269500  0.68320400  0.06668250  1
  C  1282  1  0.23984000  0.66426100  0.06487250  1
  C  1283  1  0.24170200  0.63732200  0.08043450  1
  C  1296  1  0.13669500  0.63156100  0.12215800  1
  C  1301  1  0.35392200  0.90230400  0.85564600  1
  C  1302  1  0.31073900  0.89481900  0.86322500  1
  C  1303  1  0.31058100  0.87360200  0.88532600  1
  C  1304  1  0.35359400  0.86710900  0.89422500  1
  C  1305  1  0.35911200  0.84599700  0.91783400  1
  C  1306  1  0.32175900  0.83242600  0.93159700  1
  C  1307  1  0.27956100  0.83853000  0.91989300  1
  C  1308  1  0.27353400  0.85940300  0.89725600  1
  C  1309  1  0.27387300  0.90843300  0.85037700  1
  C  1310  1  0.28042200  0.92974600  0.82821300  1
  C  1311  1  0.32306000  0.93690400  0.81791900  1
  C  1312  1  0.36005600  0.92386700  0.83254900  1
  C  1313  1  0.41615000  0.90466200  0.89272400  1
  C  1314  1  0.45944700  0.89733400  0.88525900  1
  C  1315  1  0.46002200  0.87427400  0.86508500  1
  C  1316  1  0.41710400  0.86583100  0.85781500  1
  C  1317  1  0.49736600  0.86017600  0.85346400  1
  C  1318  1  0.49161900  0.83695600  0.83320100  1
  C  1319  1  0.44928900  0.82813500  0.82363900  1
  C  1320  1  0.41183300  0.84205500  0.83688600  1
  C  1321  1  0.40974000  0.92846800  0.91347600  1
  C  1322  1  0.44652700  0.94365200  0.92620300  1
  C  1323  1  0.48920800  0.93597100  0.91636900  1
  C  1324  1  0.49607000  0.91263200  0.89641200  1
  C  1337  1  0.38519200  0.88492600  0.87522400  1
  C  1342  1  0.85839000  0.86117700  0.38915500  1
  C  1343  1  0.82148800  0.85781700  0.37072600  1
  C  1344  1  0.82210500  0.87924000  0.34864200  1
  C  1345  1  0.86001000  0.89670900  0.35156800  1
  C  1346  1  0.86183100  0.92405200  0.33533200  1
  C  1347  1  0.82667400  0.93252400  0.31604300  1
  C  1348  1  0.78976300  0.91344300  0.31363700  1
  C  1349  1  0.78724000  0.88680300  0.32965200  1
  C  1350  1  0.78737500  0.83774000  0.37690200  1
  C  1351  1  0.78901800  0.82146600  0.40339900  1
  C  1352  1  0.82314100  0.82592400  0.42438800  1
  C  1353  1  0.85926900  0.84464600  0.41638900  1
  C  1354  1  0.92492100  0.86416100  0.35784500  1
  C  1355  1  0.96660800  0.87344400  0.36685300  1
  C  1356  1  0.96278000  0.89635800  0.38699500  1
  C  1357  1  0.91849800  0.90268600  0.39285400  1
  C  1358  1  0.99781800  0.91256700  0.39909700  1
  C  1359  1  0.98846000  0.93600400  0.41837000  1
  C  1360  1  0.94485400  0.94286400  0.42685400  1
  C  1361  1  0.90968100  0.92668800  0.41305900  1
  C  1362  1  0.92260200  0.84042400  0.33657900  1
  C  1363  1  0.96161500  0.82734700  0.32478100  1
  C  1364  1  0.00265000  0.83705200  0.33591300  1
  C  1365  1  0.00552600  0.86024500  0.35653800  1
  C  1378  1  0.89013500  0.88216800  0.37398200  1
  C  1383  1  0.91169800  0.39571000  0.89775800  1
  C  1384  1  0.94757300  0.37626600  0.89877000  1
  C  1385  1  0.94253800  0.35497800  0.87683900  1
  C  1386  1  0.90372800  0.36031200  0.86074800  1
  C  1387  1  0.89847000  0.34518400  0.83296400  1
  C  1388  1  0.93177600  0.32529600  0.82252900  1
  C  1389  1  0.96754300  0.31844500  0.84150500  1
  C  1390  1  0.97378500  0.33365600  0.86831300  1
  C  1391  1  0.98525900  0.38217400  0.91582800  1
  C  1392  1  0.98712800  0.40862400  0.93232800  1
  C  1393  1  0.95178500  0.42915100  0.93221600  1
  C  1394  1  0.91403100  0.42257500  0.91472000  1
  C  1395  1  0.84975000  0.40697800  0.86230700  1
  C  1396  1  0.81250400  0.41251300  0.87995200  1
  C  1397  1  0.80764600  0.39008800  0.90080300  1
  C  1398  1  0.84241200  0.36990900  0.89781200  1
  C  1399  1  0.77063000  0.38409700  0.91846800  1
  C  1400  1  0.76819300  0.35676500  0.93341300  1
  C  1401  1  0.80240800  0.33543200  0.93139600  1
  C  1402  1  0.83959500  0.34218400  0.91332900  1
  C  1403  1  0.85305000  0.42255100  0.83461500  1
  C  1404  1  0.81993400  0.44351500  0.82614300  1
  C  1405  1  0.78670900  0.45093100  0.84696900  1
  C  1406  1  0.78201900  0.43505400  0.87354600  1
  C  1419  1  0.87675800  0.38311400  0.87746800  1
  C  1424  1  0.41081000  0.36097700  0.35986800  1
  C  1425  1  0.44887200  0.35710400  0.37705100  1
  C  1426  1  0.44952500  0.37770200  0.39993900  1
  C  1427  1  0.41163600  0.39537000  0.39852300  1
  C  1428  1  0.41141300  0.42260200  0.41503800  1
  C  1429  1  0.44784600  0.43061200  0.43343400  1
  C  1430  1  0.48430100  0.41101200  0.43476500  1
  C  1431  1  0.48540000  0.38457700  0.41831200  1
  C  1432  1  0.48276900  0.33752700  0.36897500  1
  C  1433  1  0.47940700  0.32223100  0.34195700  1
  C  1434  1  0.44348600  0.32694600  0.32247600  1
  C  1435  1  0.40790700  0.34525300  0.33225000  1
  C  1436  1  0.34581100  0.36331600  0.39267300  1
  C  1437  1  0.30395800  0.37365100  0.38529800  1
  C  1438  1  0.30738800  0.39733100  0.36602000  1
  C  1439  1  0.35145900  0.40283300  0.35880300  1
  C  1440  1  0.27234700  0.41450500  0.35532700  1
  C  1441  1  0.28143500  0.43769400  0.33567000  1
  C  1442  1  0.32465100  0.44329600  0.32551600  1
  C  1443  1  0.36001000  0.42644600  0.33814700  1
  C  1444  1  0.34856300  0.33831300  0.41240700  1
  C  1445  1  0.30981600  0.32476900  0.42409300  1
  C  1446  1  0.26853000  0.33549400  0.41437000  1
  C  1447  1  0.26522900  0.36013800  0.39551400  1
  C  1460  1  0.38019600  0.38158000  0.37644600  1
  C  1465  1  0.01737500  0.04313700  0.51374800  1
  C  1466  1  0.98265400  0.04876000  0.49348400  1
  C  1467  1  0.96107400  0.02508400  0.47824400  1
  C  1468  1  0.97441100  0.99525200  0.48454300  1
  C  1472  1  0.92498000  0.03195900  0.45703600  1
  C  1476  1  0.03213900  0.06478800  0.53373700  1
  C  1478  1  0.96086100  0.96863700  0.47089300  1
  C  1480  1  0.52870400  0.72704100  0.74183800  1
  C  1481  1  0.49289800  0.72216000  0.76143300  1
  C  1482  1  0.46966800  0.74628100  0.77452000  1
  C  1483  1  0.48324800  0.77581800  0.76725000  1
  C  1487  1  0.43208100  0.73991900  0.79471600  1
  C  1491  1  0.54697800  0.70339600  0.72586100  1
  C  1493  1  0.46900900  0.80260500  0.78003900  1
  C  1495  1  0.71867600  0.22591200  0.00331252  1
  C  1496  1  0.75301900  0.22185100  0.98232700  1
  C  1497  1  0.77563200  0.24655300  0.96977800  1
  C  1498  1  0.76271800  0.27565600  0.97890900  1
  C  1502  1  0.81284800  0.24148200  0.94893400  1
  C  1506  1  0.70329500  0.20212900  0.02055650  1
  C  1508  1  0.78013900  0.30290400  0.96977800  1
  C  1510  1  0.25201500  0.54157200  0.23680200  1
  C  1511  1  0.28680200  0.54729000  0.25698500  1
  C  1512  1  0.30821500  0.52372100  0.27244300  1
  C  1513  1  0.29447700  0.49389200  0.26653800  1
  C  1517  1  0.34433500  0.53080600  0.29357700  1
  C  1521  1  0.23689000  0.56337900  0.21713300  1
  C  1523  1  0.30717800  0.46751500  0.28092200  1
  C  1525  1  0.48968400  0.29464000  0.25692900  1
  C  1526  1  0.52433200  0.29940600  0.23634600  1
  C  1527  1  0.54627200  0.27506200  0.22251100  1
  C  1528  1  0.53283700  0.24567900  0.23028200  1
  C  1532  1  0.58350200  0.28056100  0.20183300  1
  C  1536  1  0.47555000  0.31706900  0.27624900  1
  C  1538  1  0.55014300  0.21861900  0.22051700  1
  C  1540  1  0.28517900  0.79203400  0.99525700  1
  C  1541  1  0.25185800  0.79648500  0.01690850  1
  C  1542  1  0.22780600  0.77213500  0.02889150  1
  C  1543  1  0.23811100  0.74298400  0.01845250  1
  C  1547  1  0.19194100  0.77767600  0.05068250  1
  C  1551  1  0.30236300  0.81601600  0.97915900  1
  C  1553  1  0.21969200  0.71593700  0.02739950  1
  C  1555  1  0.76967900  0.47444800  0.76106700  1
  C  1556  1  0.73433500  0.46900700  0.74126600  1
  C  1557  1  0.71357500  0.49272800  0.72561300  1
  C  1558  1  0.72860200  0.52237200  0.73092900  1
  C  1562  1  0.67659200  0.48609400  0.70504300  1
  C  1566  1  0.78381600  0.45293400  0.78136800  1
  C  1568  1  0.71576300  0.54886000  0.71685300  1
  C  1570  1  0.51998900  0.04223300  0.01455050  1
  C  1571  1  0.48467500  0.04789700  0.99479000  1
  C  1572  1  0.46353500  0.02430800  0.97920600  1
  C  1573  1  0.47824600  0.99458200  0.98451100  1
  C  1577  1  0.42658400  0.03120800  0.95868200  1
  C  1581  1  0.53498200  0.06383300  0.03445850  1
  C  1583  1  0.46518400  0.96819500  0.97037200  1
  C  1585  1  0.04298100  0.72660300  0.24222100  1
  C  1586  1  0.00597300  0.72190100  0.26080600  1
  C  1587  1  0.98348400  0.74608400  0.27437300  1
  C  1588  1  0.99913700  0.77548500  0.26865300  1
  C  1592  1  0.94443700  0.73997500  0.29333000  1
  C  1596  1  0.06022800  0.70330600  0.22523000  1
  C  1598  1  0.98547200  0.80213800  0.28191100  1
  C  1600  1  0.23478700  0.22319900  0.51001600  1
  C  1601  1  0.27155600  0.21843300  0.49126400  1
  C  1602  1  0.29174600  0.24243800  0.47572900  1
  C  1603  1  0.27443800  0.27165600  0.48000600  1
  C  1607  1  0.33057100  0.23661500  0.45652500  1
  C  1611  1  0.22091100  0.20177800  0.53049300  1
  C  1613  1  0.28715600  0.29830500  0.46633000  1
  C  1615  1  0.97586100  0.29395600  0.75612600  1
  C  1616  1  0.01169000  0.29808400  0.73636400  1
  C  1617  1  0.03278000  0.27337800  0.72256400  1
  C  1618  1  0.01705000  0.24428600  0.72940400  1
  C  1622  1  0.07150300  0.27815100  0.70299600  1
  C  1626  1  0.96237600  0.31635900  0.77574400  1
  C  1628  1  0.03379500  0.21695600  0.71998900  1
  C  1630  1  0.77096100  0.79325300  0.48801800  1
  C  1631  1  0.73520800  0.79849500  0.50753700  1
  C  1632  1  0.71387700  0.77464100  0.52259900  1
  C  1633  1  0.72880200  0.74502300  0.51700200  1
  C  1637  1  0.67656600  0.78117200  0.54293400  1
  C  1641  1  0.78617100  0.81525400  0.46859700  1
  C  1643  1  0.71575300  0.71844800  0.53082900  1
  C  1645  1  0.53520900  0.53946400  0.50330100  1
  C  1646  1  0.50228300  0.54388200  0.48135300  1
  C  1647  1  0.47774400  0.51961400  0.46964500  1
  C  1648  1  0.48703300  0.49052600  0.48071000  1
  C  1652  1  0.44245600  0.52524200  0.44744300  1
  C  1656  1  0.55262900  0.56353300  0.51919900  1
  C  1658  1  0.46825800  0.46347500  0.47204100  1
  C  1660  1  0.74553400  0.04143500  0.24453200  1
  C  1661  1  0.77769900  0.04575300  0.26697500  1
  C  1662  1  0.80165300  0.02137500  0.27894100  1
  C  1663  1  0.79241700  0.99237300  0.26763900  1
  C  1667  1  0.83619600  0.02681100  0.30172600  1
  C  1671  1  0.72772900  0.06559900  0.22913800  1
  C  1673  1  0.81069700  0.96530900  0.27660200  1
  C  1675  1  0.28978800  0.97851400  0.75418500  1
  C  1676  1  0.25622500  0.97449600  0.73264000  1
  C  1677  1  0.23312800  0.99918800  0.72052500  1
  C  1678  1  0.24479500  0.02821400  0.73067700  1
  C  1682  1  0.19684100  0.99406000  0.69894300  1
  C  1686  1  0.30607700  0.95436400  0.77036100  1
  C  1688  1  0.22717600  0.05547500  0.72174200  1
  C  1690  1  0.03312500  0.53775700  0.00534552  1
  C  1691  1  0.99943500  0.54164800  0.98390400  1
  C  1692  1  0.97717300  0.51680800  0.97143300  1
  C  1693  1  0.98980800  0.48782700  0.98120500  1
  C  1697  1  0.94089200  0.52176700  0.94980300  1
  C  1701  1  0.04937800  0.56190700  0.02140450  1
  C  1703  1  0.97338400  0.46047000  0.97166300  1
  N  38  1  0.06457700  0.06033400  0.06056400  1
  N  39  1  0.21220300  0.06086000  0.20388700  1
  N  40  1  0.18937400  0.20677700  0.05784800  1
  N  41  1  0.04797100  0.21130400  0.20197600  1
  N  79  1  0.56578300  0.70733400  0.20881600  1
  N  80  1  0.69469800  0.71677500  0.06451500  1
  N  81  1  0.69515700  0.55055300  0.20021000  1
  N  82  1  0.57107400  0.55960800  0.05358900  1
  N  120  1  0.68483200  0.20694400  0.55477900  1
  N  121  1  0.56223000  0.21316300  0.70196800  1
  N  122  1  0.56611100  0.05877200  0.56210800  1
  N  123  1  0.71046900  0.06245700  0.71153100  1
  N  161  1  0.20586200  0.55844500  0.70657900  1
  N  162  1  0.06619600  0.55850700  0.55631400  1
  N  163  1  0.08002400  0.70818700  0.70869200  1
  N  164  1  0.20783900  0.71039600  0.56319100  1
  N  202  1  0.44942300  0.80422700  0.31425100  1
  N  203  1  0.32326700  0.95786700  0.30518900  1
  N  204  1  0.32119200  0.81202200  0.46212800  1
  N  205  1  0.44561500  0.96719000  0.45333900  1
  N  243  1  0.94246600  0.96690400  0.95344600  1
  N  244  1  0.81780100  0.81053900  0.95845000  1
  N  245  1  0.82170500  0.95968200  0.81252500  1
  N  246  1  0.96355400  0.80362100  0.81522500  1
  N  284  1  0.79470900  0.30839200  0.45183100  1
  N  285  1  0.95862700  0.45570800  0.45366700  1
  N  286  1  0.93345500  0.31104100  0.30488300  1
  N  287  1  0.81570500  0.45769600  0.30852800  1
  N  325  1  0.32701000  0.46645600  0.81511800  1
  N  326  1  0.44654000  0.31185000  0.80535000  1
  N  327  1  0.45433400  0.45780400  0.95394400  1
  N  328  1  0.30834100  0.30030000  0.94997300  1
  N  333  1  0.00796000  0.99208500  0.01309600  1
  N  335  1  0.02754400  0.01400600  0.02703900  1
  N  348  1  0.51782700  0.77836000  0.25663100  1
  N  350  1  0.53870200  0.75594100  0.24437300  1
  N  363  1  0.72932000  0.27753000  0.50767500  1
  N  365  1  0.70909500  0.25458200  0.51935000  1
  N  378  1  0.26090400  0.49060800  0.75524900  1
  N  380  1  0.24154200  0.51244600  0.74105000  1
  N  393  1  0.49915700  0.24317300  0.75873500  1
  N  395  1  0.47937800  0.26573300  0.77140200  1
  N  408  1  0.27068300  0.74076400  0.50629900  1
  N  410  1  0.29229700  0.76339900  0.49515800  1
  N  423  1  0.76276700  0.52536700  0.25899800  1
  N  425  1  0.78153600  0.50341800  0.27337100  1
  N  438  1  0.51237600  0.99136600  0.51256700  1
  N  440  1  0.53148600  0.01320700  0.52689300  1
  N  453  1  0.03475200  0.77789000  0.75893600  1
  N  455  1  0.05489400  0.75543600  0.74620900  1
  N  468  1  0.23906700  0.27407700  0.00709900  1
  N  470  1  0.22090700  0.25186000  0.02139500  1
  N  483  1  0.98235600  0.24238300  0.25708200  1
  N  485  1  0.96343600  0.26527000  0.26976600  1
  N  498  1  0.76327300  0.74217800  0.00637800  1
  N  500  1  0.78254000  0.76427900  0.99253600  1
  N  513  1  0.51922800  0.48833200  0.01036300  1
  N  515  1  0.54129000  0.51090500  0.02122300  1
  N  528  1  0.76087800  0.99029400  0.75474400  1
  N  530  1  0.73931100  0.01296500  0.74364700  1
  N  543  1  0.27749200  0.02999900  0.25999000  1
  N  545  1  0.29818000  0.00704600  0.27127900  1
  N  558  1  0.02253800  0.48619200  0.51049200  1
  N  560  1  0.04250200  0.50927200  0.52207500  1
  N  606  1  0.06457700  0.06033400  0.30625900  1
  N  607  1  0.21220300  0.06086000  0.44958200  1
  N  608  1  0.18937400  0.20677700  0.30354300  1
  N  609  1  0.04797100  0.21130400  0.44767100  1
  N  647  1  0.56578300  0.70733400  0.45451100  1
  N  648  1  0.69469800  0.71677500  0.31021000  1
  N  649  1  0.69515700  0.55055300  0.44590500  1
  N  650  1  0.57107400  0.55960800  0.29928400  1
  N  688  1  0.68483200  0.20694400  0.80047400  1
  N  689  1  0.56223000  0.21316300  0.94766300  1
  N  690  1  0.56611100  0.05877200  0.80780300  1
  N  691  1  0.71046900  0.06245700  0.95722600  1
  N  729  1  0.20586200  0.55844500  0.95227400  1
  N  730  1  0.06619600  0.55850700  0.80200900  1
  N  731  1  0.08002400  0.70818700  0.95438700  1
  N  732  1  0.20783900  0.71039600  0.80888600  1
  N  770  1  0.44942300  0.80422700  0.55994600  1
  N  771  1  0.32326700  0.95786700  0.55088400  1
  N  772  1  0.32119200  0.81202200  0.70782300  1
  N  773  1  0.44561500  0.96719000  0.69903400  1
  N  811  1  0.94246600  0.96690400  0.19914100  1
  N  812  1  0.81780100  0.81053900  0.20414500  1
  N  813  1  0.82170500  0.95968200  0.05821980  1
  N  814  1  0.96355400  0.80362100  0.06091980  1
  N  852  1  0.79470900  0.30839200  0.69752600  1
  N  853  1  0.95862700  0.45570800  0.69936200  1
  N  854  1  0.93345500  0.31104100  0.55057800  1
  N  855  1  0.81570500  0.45769600  0.55422300  1
  N  893  1  0.32701000  0.46645600  0.06081280  1
  N  894  1  0.44654000  0.31185000  0.05104480  1
  N  895  1  0.45433400  0.45780400  0.19963900  1
  N  896  1  0.30834100  0.30030000  0.19566800  1
  N  901  1  0.00796000  0.99208500  0.25879100  1
  N  903  1  0.02754400  0.01400600  0.27273400  1
  N  916  1  0.51782700  0.77836000  0.50232600  1
  N  918  1  0.53870200  0.75594100  0.49006800  1
  N  931  1  0.72932000  0.27753000  0.75337000  1
  N  933  1  0.70909500  0.25458200  0.76504500  1
  N  946  1  0.26090400  0.49060800  0.00094376  1
  N  948  1  0.24154200  0.51244600  0.98674500  1
  N  961  1  0.49915700  0.24317300  0.00442976  1
  N  963  1  0.47937800  0.26573300  0.01709680  1
  N  976  1  0.27068300  0.74076400  0.75199400  1
  N  978  1  0.29229700  0.76339900  0.74085300  1
  N  991  1  0.76276700  0.52536700  0.50469300  1
  N  993  1  0.78153600  0.50341800  0.51906600  1
  N  1006  1  0.51237600  0.99136600  0.75826200  1
  N  1008  1  0.53148600  0.01320700  0.77258800  1
  N  1021  1  0.03475200  0.77789000  0.00463076  1
  N  1023  1  0.05489400  0.75543600  0.99190400  1
  N  1036  1  0.23906700  0.27407700  0.25279400  1
  N  1038  1  0.22090700  0.25186000  0.26709000  1
  N  1051  1  0.98235600  0.24238300  0.50277700  1
  N  1053  1  0.96343600  0.26527000  0.51546100  1
  N  1066  1  0.76327300  0.74217800  0.25207300  1
  N  1068  1  0.78254000  0.76427900  0.23823100  1
  N  1081  1  0.51922800  0.48833200  0.25605800  1
  N  1083  1  0.54129000  0.51090500  0.26691800  1
  N  1096  1  0.76087800  0.99029400  0.00043876  1
  N  1098  1  0.73931100  0.01296500  0.98934200  1
  N  1111  1  0.27749200  0.02999900  0.50568500  1
  N  1113  1  0.29818000  0.00704600  0.51697400  1
  N  1126  1  0.02253800  0.48619200  0.75618700  1
  N  1128  1  0.04250200  0.50927200  0.76777000  1
  N  1174  1  0.06457700  0.06033400  0.55195400  1
  N  1175  1  0.21220300  0.06086000  0.69527700  1
  N  1176  1  0.18937400  0.20677700  0.54923800  1
  N  1177  1  0.04797100  0.21130400  0.69336600  1
  N  1215  1  0.56578300  0.70733400  0.70020600  1
  N  1216  1  0.69469800  0.71677500  0.55590500  1
  N  1217  1  0.69515700  0.55055300  0.69160000  1
  N  1218  1  0.57107400  0.55960800  0.54497900  1
  N  1256  1  0.68483200  0.20694400  0.04616850  1
  N  1257  1  0.56223000  0.21316300  0.19335800  1
  N  1258  1  0.56611100  0.05877200  0.05349750  1
  N  1259  1  0.71046900  0.06245700  0.20292100  1
  N  1297  1  0.20586200  0.55844500  0.19796900  1
  N  1298  1  0.06619600  0.55850700  0.04770350  1
  N  1299  1  0.08002400  0.70818700  0.20008200  1
  N  1300  1  0.20783900  0.71039600  0.05458050  1
  N  1338  1  0.44942300  0.80422700  0.80564100  1
  N  1339  1  0.32326700  0.95786700  0.79657900  1
  N  1340  1  0.32119200  0.81202200  0.95351800  1
  N  1341  1  0.44561500  0.96719000  0.94472900  1
  N  1379  1  0.94246600  0.96690400  0.44483600  1
  N  1380  1  0.81780100  0.81053900  0.44984000  1
  N  1381  1  0.82170500  0.95968200  0.30391500  1
  N  1382  1  0.96355400  0.80362100  0.30661500  1
  N  1420  1  0.79470900  0.30839200  0.94322100  1
  N  1421  1  0.95862700  0.45570800  0.94505700  1
  N  1422  1  0.93345500  0.31104100  0.79627300  1
  N  1423  1  0.81570500  0.45769600  0.79991800  1
  N  1461  1  0.32701000  0.46645600  0.30650800  1
  N  1462  1  0.44654000  0.31185000  0.29674000  1
  N  1463  1  0.45433400  0.45780400  0.44533400  1
  N  1464  1  0.30834100  0.30030000  0.44136300  1
  N  1469  1  0.00796000  0.99208500  0.50448600  1
  N  1471  1  0.02754400  0.01400600  0.51842900  1
  N  1484  1  0.51782700  0.77836000  0.74802100  1
  N  1486  1  0.53870200  0.75594100  0.73576300  1
  N  1499  1  0.72932000  0.27753000  0.99906500  1
  N  1501  1  0.70909500  0.25458200  0.01073950  1
  N  1514  1  0.26090400  0.49060800  0.24663900  1
  N  1516  1  0.24154200  0.51244600  0.23244000  1
  N  1529  1  0.49915700  0.24317300  0.25012500  1
  N  1531  1  0.47937800  0.26573300  0.26279200  1
  N  1544  1  0.27068300  0.74076400  0.99768900  1
  N  1546  1  0.29229700  0.76339900  0.98654800  1
  N  1559  1  0.76276700  0.52536700  0.75038800  1
  N  1561  1  0.78153600  0.50341800  0.76476100  1
  N  1574  1  0.51237600  0.99136600  0.00395652  1
  N  1576  1  0.53148600  0.01320700  0.01828250  1
  N  1589  1  0.03475200  0.77789000  0.25032600  1
  N  1591  1  0.05489400  0.75543600  0.23759900  1
  N  1604  1  0.23906700  0.27407700  0.49848900  1
  N  1606  1  0.22090700  0.25186000  0.51278500  1
  N  1619  1  0.98235600  0.24238300  0.74847200  1
  N  1621  1  0.96343600  0.26527000  0.76115600  1
  N  1634  1  0.76327300  0.74217800  0.49776800  1
  N  1636  1  0.78254000  0.76427900  0.48392600  1
  N  1649  1  0.51922800  0.48833200  0.50175300  1
  N  1651  1  0.54129000  0.51090500  0.51261300  1
  N  1664  1  0.76087800  0.99029400  0.24613400  1
  N  1666  1  0.73931100  0.01296500  0.23503700  1
  N  1679  1  0.27749200  0.02999900  0.75138000  1
  N  1681  1  0.29818000  0.00704600  0.76266900  1
  N  1694  1  0.02253800  0.48619200  0.00188152  1
  N  1696  1  0.04250200  0.50927200  0.01346450  1
