# generated using pymatgen
data_H38C53(N3O2)2
_symmetry_space_group_name_H-M   'P 1'
_cell_length_a   37.51130000
_cell_length_b   55.62870000
_cell_length_c   55.62870000
_cell_angle_alpha   90.00000000
_cell_angle_beta   89.99800000
_cell_angle_gamma   90.00000000
_symmetry_Int_Tables_number   1
_chemical_formula_structural   H38C53(N3O2)2
_chemical_formula_sum   'H608 C848 N96 O64'
_cell_volume   116080.67825823
_cell_formula_units_Z   16
loop_
 _symmetry_equiv_pos_site_id
 _symmetry_equiv_pos_as_xyz
  1  'x, y, z'
loop_
 _atom_site_type_symbol
 _atom_site_label
 _atom_site_symmetry_multiplicity
 _atom_site_fract_x
 _atom_site_fract_y
 _atom_site_fract_z
 _atom_site_occupancy
  H  25  1  0.09968700  0.22764000  0.18526500  1
  H  26  1  0.03693700  0.23395500  0.19269300  1
  H  27  1  0.96978300  0.23812000  0.19128300  1
  H  28  1  0.90649000  0.23742600  0.18309100  1
  H  29  1  0.92279900  0.18615900  0.12817100  1
  H  30  1  0.07477300  0.18130000  0.12743200  1
  H  31  1  0.99932000  0.22759100  0.10381400  1
  H  32  1  0.99220800  0.18956600  0.03818200  1
  H  33  1  0.99318600  0.15196100  0.05977500  1
  H  34  1  0.00140200  0.15003600  0.17085500  1
  H  35  1  0.99831000  0.11744300  0.08948900  1
  H  36  1  0.00246000  0.09062500  0.12356500  1
  H  39  1  0.86808300  0.21546800  0.13193100  1
  H  41  1  0.02042100  0.10825800  0.18316200  1
  H  43  1  0.99152500  0.24843600  0.06654600  1
  H  45  1  0.13584500  0.18706900  0.14089800  1
  H  70  1  0.09901000  0.77416000  0.71034000  1
  H  71  1  0.03619900  0.76806400  0.70297800  1
  H  72  1  0.96905500  0.76402100  0.70451600  1
  H  73  1  0.90581000  0.76481000  0.71283900  1
  H  74  1  0.92258600  0.81584700  0.76790700  1
  H  75  1  0.07459400  0.82033700  0.76840000  1
  H  76  1  0.99901100  0.77415200  0.79193600  1
  H  77  1  0.99229800  0.81191500  0.85774300  1
  H  78  1  0.99336200  0.84960300  0.83630900  1
  H  79  1  0.00137200  0.85204200  0.72523400  1
  H  80  1  0.99881900  0.88420500  0.80678100  1
  H  81  1  0.00319200  0.91118600  0.77284600  1
  H  84  1  0.86772800  0.78683500  0.76419700  1
  H  86  1  0.02182100  0.89409100  0.71352500  1
  H  88  1  0.99148800  0.75314900  0.82911000  1
  H  90  1  0.13564300  0.81450800  0.75466300  1
  H  115  1  0.09882600  0.76323200  0.17476100  1
  H  116  1  0.03598500  0.75594600  0.18081200  1
  H  117  1  0.96880400  0.75747200  0.18470000  1
  H  118  1  0.90556700  0.76583500  0.18380600  1
  H  119  1  0.92261300  0.82091400  0.13281900  1
  H  120  1  0.07464200  0.82127900  0.12851200  1
  H  121  1  0.99910200  0.84498100  0.17458000  1
  H  122  1  0.99244200  0.91071900  0.13669600  1
  H  123  1  0.99346900  0.88921400  0.09904600  1
  H  124  1  0.00124600  0.77812500  0.09684200  1
  H  125  1  0.99872000  0.85959400  0.06448200  1
  H  126  1  0.00292500  0.82558800  0.03757600  1
  H  129  1  0.86755500  0.81722900  0.16157800  1
  H  131  1  0.02104700  0.76611000  0.05492000  1
  H  133  1  0.99159500  0.88219700  0.19551400  1
  H  135  1  0.13565800  0.80744600  0.13438500  1
  H  160  1  0.09891600  0.23846000  0.72103600  1
  H  161  1  0.03609000  0.24581200  0.71499700  1
  H  162  1  0.96894800  0.24421700  0.71096800  1
  H  163  1  0.90571100  0.23584800  0.71177900  1
  H  164  1  0.92260700  0.18085100  0.76287600  1
  H  165  1  0.07461200  0.18041400  0.76726100  1
  H  166  1  0.99896300  0.15682000  0.72117600  1
  H  167  1  0.99225800  0.09105900  0.75901500  1
  H  168  1  0.99337300  0.11253400  0.79668100  1
  H  169  1  0.00130300  0.22361700  0.79897600  1
  H  170  1  0.99869900  0.14211800  0.83126500  1
  H  171  1  0.00298200  0.17609800  0.85819700  1
  H  174  1  0.86768800  0.18450500  0.73394400  1
  H  176  1  0.02135800  0.23550800  0.84095600  1
  H  178  1  0.99132800  0.11961400  0.70022500  1
  H  180  1  0.13564800  0.19417500  0.76138300  1
  H  205  1  0.59998200  0.73819600  0.67513700  1
  H  206  1  0.53758500  0.74028700  0.68563200  1
  H  207  1  0.47105800  0.73575000  0.69118100  1
  H  208  1  0.40817000  0.72643300  0.68998000  1
  H  209  1  0.42556000  0.67874000  0.63202400  1
  H  210  1  0.57686100  0.68627700  0.62189200  1
  H  211  1  0.49412300  0.72818300  0.60109400  1
  H  212  1  0.48929500  0.68966700  0.53566200  1
  H  213  1  0.49578400  0.65231100  0.55729800  1
  H  214  1  0.50938300  0.65101600  0.66817400  1
  H  215  1  0.50575200  0.61835200  0.58681700  1
  H  216  1  0.51409600  0.59178100  0.62073800  1
  H  219  1  0.36933700  0.67873600  0.65870500  1
  H  221  1  0.53518000  0.60830600  0.67856700  1
  H  223  1  0.48205500  0.74827200  0.56368500  1
  H  225  1  0.63584000  0.70435400  0.62554000  1
  H  250  1  0.59964100  0.26343800  0.22056800  1
  H  251  1  0.53721700  0.26146800  0.21011600  1
  H  252  1  0.47066600  0.26607300  0.20467100  1
  H  253  1  0.40778600  0.27540600  0.20602300  1
  H  254  1  0.42550600  0.32307400  0.26395600  1
  H  255  1  0.57681000  0.31537100  0.27385800  1
  H  256  1  0.49400100  0.27359800  0.29470900  1
  H  257  1  0.48931100  0.31210500  0.36015200  1
  H  258  1  0.49586700  0.34946000  0.33852200  1
  H  259  1  0.50931600  0.35076500  0.22763900  1
  H  260  1  0.50583700  0.38342100  0.30900100  1
  H  261  1  0.51416200  0.40999200  0.27507600  1
  H  264  1  0.36907000  0.32304000  0.23766000  1
  H  266  1  0.53517200  0.39346800  0.21723900  1
  H  268  1  0.48194300  0.25351100  0.33211600  1
  H  270  1  0.63570500  0.29709100  0.27019300  1
  H  295  1  0.59997100  0.27365700  0.68523300  1
  H  296  1  0.53756900  0.26317700  0.68730000  1
  H  297  1  0.47104200  0.25764200  0.68273900  1
  H  298  1  0.40816200  0.25886500  0.67340700  1
  H  299  1  0.42562100  0.31681100  0.62571200  1
  H  300  1  0.57692200  0.32689600  0.63329300  1
  H  301  1  0.49415500  0.34771300  0.67517200  1
  H  302  1  0.48932500  0.41314300  0.63665300  1
  H  303  1  0.49583200  0.39150700  0.59929800  1
  H  304  1  0.50943300  0.28063200  0.59800700  1
  H  305  1  0.50580500  0.36198800  0.56534000  1
  H  306  1  0.51414100  0.32806400  0.53876900  1
  H  309  1  0.36936300  0.29019900  0.62570600  1
  H  311  1  0.53520900  0.27023100  0.55529100  1
  H  313  1  0.48206500  0.38512100  0.69525600  1
  H  315  1  0.63587800  0.32325000  0.65142000  1
  H  340  1  0.59997100  0.72809200  0.21056800  1
  H  341  1  0.53757100  0.73858800  0.20851800  1
  H  342  1  0.47104500  0.74412100  0.21308200  1
  H  343  1  0.40816800  0.74290800  0.22242600  1
  H  344  1  0.42562400  0.68495200  0.27011100  1
  H  345  1  0.57691700  0.67484000  0.26249700  1
  H  346  1  0.49413900  0.65405800  0.22062800  1
  H  347  1  0.48932700  0.58861300  0.25912500  1
  H  348  1  0.49585100  0.61023500  0.29648600  1
  H  349  1  0.50946300  0.72111000  0.29781100  1
  H  350  1  0.50583700  0.63974300  0.33045200  1
  H  351  1  0.51420000  0.67365800  0.35703200  1
  H  354  1  0.36937100  0.71158200  0.27012900  1
  H  356  1  0.53529700  0.73147800  0.34053100  1
  H  358  1  0.48205200  0.61665800  0.20053300  1
  H  360  1  0.63587500  0.67848800  0.24437000  1
  H  367  1  0.02717500  0.02206800  0.20944700  1
  H  368  1  0.01502000  0.06402400  0.20763700  1
  H  375  1  0.94825000  0.97493400  0.17652400  1
  H  376  1  0.96041700  0.93305400  0.17842500  1
  H  377  1  0.06978800  0.94784700  0.18840500  1
  H  378  1  0.05779200  0.98985600  0.18592100  1
  H  379  1  0.95934600  0.01047300  0.15018200  1
  H  384  1  0.03526800  0.90732500  0.20395000  1
  H  385  1  0.04785300  0.90614700  0.17358500  1
  H  387  1  0.96631400  0.09500400  0.19623700  1
  H  388  1  0.94968700  0.09362400  0.16697600  1
  H  395  1  0.02726200  0.97974400  0.68622300  1
  H  396  1  0.01537700  0.93775500  0.68812800  1
  H  403  1  0.94816000  0.02681800  0.71911200  1
  H  404  1  0.96024900  0.06871000  0.71724400  1
  H  405  1  0.06964600  0.05401600  0.70725400  1
  H  406  1  0.05773100  0.01199900  0.70971100  1
  H  407  1  0.95930800  0.99127800  0.74543800  1
  H  412  1  0.03502700  0.09452500  0.69173000  1
  H  413  1  0.04766100  0.09567900  0.72208500  1
  H  415  1  0.96745500  0.90646700  0.69965400  1
  H  416  1  0.95009000  0.90808000  0.72871800  1
  H  423  1  0.02710800  0.73927700  0.96904200  1
  H  424  1  0.01506900  0.74117100  0.01101000  1
  H  431  1  0.94815400  0.77217500  0.92190500  1
  H  432  1  0.96028900  0.77023200  0.88002100  1
  H  433  1  0.06966500  0.76024100  0.89478300  1
  H  434  1  0.05770200  0.76276300  0.93679400  1
  H  435  1  0.95931600  0.79855700  0.95742200  1
  H  440  1  0.03506200  0.74465000  0.85429200  1
  H  441  1  0.04773800  0.77499600  0.85307500  1
  H  443  1  0.96674300  0.75269400  0.04213000  1
  H  444  1  0.94983100  0.78188200  0.04061100  1
  H  451  1  0.02712300  0.26252100  0.92672600  1
  H  452  1  0.01513800  0.26064400  0.88475000  1
  H  459  1  0.94817300  0.22957000  0.97386000  1
  H  460  1  0.96036900  0.23137200  0.01574000  1
  H  461  1  0.06973200  0.24137700  0.00092900  1
  H  462  1  0.05770500  0.23899000  0.95892300  1
  H  463  1  0.95926600  0.20326200  0.93829000  1
  H  468  1  0.03536800  0.25677900  0.04151600  1
  H  469  1  0.04777500  0.22637800  0.04258500  1
  H  471  1  0.96700700  0.24911800  0.85354600  1
  H  472  1  0.94990600  0.21998000  0.85509900  1
  H  479  1  0.53052600  0.52361500  0.71057900  1
  H  480  1  0.52293800  0.56601200  0.70822100  1
  H  487  1  0.44797700  0.47943800  0.67657400  1
  H  488  1  0.45654800  0.43714700  0.67858100  1
  H  489  1  0.56642400  0.44777400  0.69095200  1
  H  490  1  0.55814100  0.49012600  0.68819100  1
  H  491  1  0.46224500  0.51464100  0.65109000  1
  H  496  1  0.52667300  0.40864900  0.70600600  1
  H  497  1  0.54251900  0.40707400  0.67638100  1
  H  499  1  0.48123600  0.59982300  0.69608300  1
  H  500  1  0.45996000  0.59806900  0.66822300  1
  H  507  1  0.53049600  0.47816000  0.18522300  1
  H  508  1  0.52291700  0.43576400  0.18758500  1
  H  515  1  0.44796900  0.52233600  0.21924100  1
  H  516  1  0.45653400  0.56462600  0.21721900  1
  H  517  1  0.56640500  0.55400000  0.20482900  1
  H  518  1  0.55812800  0.51164600  0.20760300  1
  H  519  1  0.46224500  0.48713200  0.24473200  1
  H  524  1  0.52663600  0.59311600  0.18976600  1
  H  525  1  0.54250600  0.59470600  0.21938300  1
  H  527  1  0.48122300  0.40195300  0.19973800  1
  H  528  1  0.45996000  0.40370500  0.22760400  1
  H  535  1  0.53050700  0.23821300  0.47060400  1
  H  536  1  0.52294400  0.24058100  0.51300200  1
  H  543  1  0.44793700  0.27221700  0.42644700  1
  H  544  1  0.45647300  0.27019000  0.38415400  1
  H  545  1  0.56635200  0.25780200  0.39474300  1
  H  546  1  0.55810400  0.26058300  0.43709900  1
  H  547  1  0.46223700  0.29771000  0.46163800  1
  H  552  1  0.52653200  0.24272900  0.35564400  1
  H  553  1  0.54243100  0.27234000  0.35404400  1
  H  555  1  0.48125200  0.25272900  0.54682200  1
  H  556  1  0.45999200  0.28059400  0.54506900  1
  H  563  1  0.53055200  0.76355700  0.42519400  1
  H  564  1  0.52300200  0.76118300  0.38279600  1
  H  571  1  0.44799600  0.72956000  0.46936200  1
  H  572  1  0.45655000  0.73157900  0.51165500  1
  H  573  1  0.56642900  0.74394300  0.50104100  1
  H  574  1  0.55816300  0.74117300  0.45868700  1
  H  575  1  0.46227700  0.70406100  0.43416400  1
  H  580  1  0.52667100  0.75900900  0.54015700  1
  H  581  1  0.54250300  0.72938200  0.54174200  1
  H  583  1  0.48135900  0.74902200  0.34897000  1
  H  584  1  0.46005300  0.72117100  0.35073300  1
  H  591  1  0.75148300  0.24751600  0.15756700  1
  H  592  1  0.79739700  0.22340100  0.14040700  1
  H  599  1  0.71474700  0.22795400  0.22798600  1
  H  600  1  0.67018200  0.25306400  0.24530500  1
  H  601  1  0.70407100  0.31069400  0.20151300  1
  H  602  1  0.74886800  0.28560300  0.18426300  1
  H  603  1  0.78388100  0.22644200  0.22695300  1
  H  608  1  0.63979900  0.30838200  0.22008400  1
  H  609  1  0.66907800  0.31628600  0.24340500  1
  H  611  1  0.83569200  0.18438500  0.14775400  1
  H  612  1  0.86113500  0.18450900  0.17411000  1
  H  619  1  0.75128600  0.75420400  0.73830600  1
  H  620  1  0.79702100  0.77843400  0.75551900  1
  H  627  1  0.71467800  0.77371400  0.66784000  1
  H  628  1  0.67024300  0.74854700  0.65045800  1
  H  629  1  0.70413700  0.69096900  0.69431400  1
  H  630  1  0.74880900  0.71611900  0.71162400  1
  H  631  1  0.78378000  0.77533700  0.66895800  1
  H  636  1  0.63995700  0.69314900  0.67560900  1
  H  637  1  0.66937200  0.68534200  0.65233500  1
  H  639  1  0.83495400  0.81760800  0.74817900  1
  H  640  1  0.86055100  0.81755100  0.72189500  1
  H  647  1  0.75127800  0.79117600  0.19442000  1
  H  648  1  0.79695500  0.80838300  0.17013600  1
  H  655  1  0.71479000  0.72067300  0.17503100  1
  H  656  1  0.67032600  0.70333100  0.20020800  1
  H  657  1  0.70419100  0.74726000  0.25773700  1
  H  658  1  0.74888400  0.76453500  0.23257600  1
  H  659  1  0.78393700  0.72181300  0.17345000  1
  H  664  1  0.64001000  0.72857500  0.25556000  1
  H  665  1  0.66938500  0.70529100  0.26340400  1
  H  667  1  0.83484500  0.80094300  0.13092000  1
  H  668  1  0.86061300  0.77473500  0.13112200  1
  H  675  1  0.75128800  0.21049000  0.70124400  1
  H  676  1  0.79699700  0.19326000  0.72548300  1
  H  683  1  0.71473700  0.28096100  0.72074600  1
  H  684  1  0.67029100  0.29834100  0.69558200  1
  H  685  1  0.70418000  0.25448600  0.63800100  1
  H  686  1  0.74885700  0.23717400  0.66314900  1
  H  687  1  0.78386000  0.27982900  0.72235700  1
  H  692  1  0.63999400  0.27317200  0.64019900  1
  H  693  1  0.66938500  0.29645500  0.63237500  1
  H  695  1  0.83491900  0.20060700  0.76467000  1
  H  696  1  0.86058300  0.22686100  0.76457800  1
  H  703  1  0.22696200  0.74231800  0.16628000  1
  H  704  1  0.17998800  0.76637600  0.15113100  1
  H  711  1  0.29373000  0.77550800  0.22216100  1
  H  712  1  0.34054300  0.75166800  0.23792100  1
  H  713  1  0.28954700  0.68898800  0.21252000  1
  H  714  1  0.24165300  0.71282100  0.19753600  1
  H  715  1  0.23140500  0.78519200  0.22865700  1
  H  720  1  0.36282900  0.69495400  0.22007000  1
  H  721  1  0.33780800  0.68679100  0.24559400  1
  H  723  1  0.15987200  0.82400300  0.16692300  1
  H  724  1  0.12890700  0.80933900  0.18545200  1
  H  731  1  0.22691100  0.25940000  0.72950100  1
  H  732  1  0.17995400  0.23531900  0.74464400  1
  H  739  1  0.29373000  0.22623600  0.67363500  1
  H  740  1  0.34054800  0.25008700  0.65789900  1
  H  741  1  0.28951000  0.31275000  0.68330200  1
  H  742  1  0.24160800  0.28890500  0.69826200  1
  H  743  1  0.23140900  0.21653400  0.66712100  1
  H  748  1  0.36281900  0.30677700  0.67578300  1
  H  749  1  0.33781300  0.31497400  0.65026400  1
  H  751  1  0.15993000  0.17767900  0.72884300  1
  H  752  1  0.12892800  0.19232300  0.71033000  1
  H  759  1  0.22757300  0.21885300  0.20608800  1
  H  760  1  0.18089000  0.20358400  0.18184300  1
  H  767  1  0.29306900  0.27569800  0.17347700  1
  H  768  1  0.33989200  0.29140000  0.19734500  1
  H  769  1  0.28982700  0.26477900  0.25986300  1
  H  770  1  0.24192000  0.24983100  0.23601300  1
  H  771  1  0.23054400  0.28189000  0.16413400  1
  H  776  1  0.36277300  0.27285200  0.25385700  1
  H  777  1  0.33764500  0.29825200  0.26224500  1
  H  779  1  0.16095700  0.21940300  0.12464800  1
  H  780  1  0.12943500  0.23794200  0.13872000  1
  H  787  1  0.22688200  0.78253800  0.68939100  1
  H  788  1  0.17996700  0.79772500  0.71348400  1
  H  795  1  0.29364200  0.72667200  0.72258600  1
  H  796  1  0.34047100  0.71092600  0.69875400  1
  H  797  1  0.28946700  0.73630000  0.63606600  1
  H  798  1  0.24155700  0.75127400  0.65989500  1
  H  799  1  0.23130800  0.72017100  0.73227800  1
  H  804  1  0.36275700  0.72878900  0.64204500  1
  H  805  1  0.33778100  0.70324700  0.63387700  1
  H  807  1  0.16003500  0.78200300  0.77112900  1
  H  808  1  0.12895500  0.76348200  0.75657200  1
  H  833  1  0.28629700  0.46133200  0.34705200  1
  H  834  1  0.22354700  0.46764700  0.35448000  1
  H  835  1  0.15639300  0.47181200  0.35307000  1
  H  836  1  0.09310040  0.47111800  0.34487800  1
  H  837  1  0.10940900  0.41985100  0.28995800  1
  H  838  1  0.26138300  0.41499200  0.28921900  1
  H  839  1  0.18593000  0.46128300  0.26560100  1
  H  840  1  0.17881800  0.42325800  0.19996900  1
  H  841  1  0.17979600  0.38565300  0.22156200  1
  H  842  1  0.18801200  0.38372800  0.33264200  1
  H  843  1  0.18492000  0.35113500  0.25127600  1
  H  844  1  0.18907000  0.32431700  0.28535200  1
  H  847  1  0.05469340  0.44916000  0.29371800  1
  H  849  1  0.20703100  0.34195000  0.34494900  1
  H  851  1  0.17813500  0.48212800  0.22833300  1
  H  853  1  0.32245500  0.42076100  0.30268500  1
  H  878  1  0.28562000  0.00785232  0.87212700  1
  H  879  1  0.22280900  0.00175632  0.86476500  1
  H  880  1  0.15566500  0.99771300  0.86630300  1
  H  881  1  0.09242040  0.99850200  0.87462600  1
  H  882  1  0.10919600  0.04953930  0.92969400  1
  H  883  1  0.26120400  0.05402930  0.93018700  1
  H  884  1  0.18562100  0.00784432  0.95372300  1
  H  885  1  0.17890800  0.04560730  0.01953000  1
  H  886  1  0.17997200  0.08329530  0.99809600  1
  H  887  1  0.18798200  0.08573430  0.88702100  1
  H  888  1  0.18542900  0.11789700  0.96856800  1
  H  889  1  0.18980200  0.14487800  0.93463300  1
  H  892  1  0.05433840  0.02052730  0.92598400  1
  H  894  1  0.20843100  0.12778300  0.87531200  1
  H  896  1  0.17809800  0.98684100  0.99089700  1
  H  898  1  0.32225300  0.04820030  0.91645000  1
  H  923  1  0.28543600  0.99692400  0.33654800  1
  H  924  1  0.22259500  0.98963800  0.34259900  1
  H  925  1  0.15541400  0.99116400  0.34648700  1
  H  926  1  0.09217740  0.99952700  0.34559300  1
  H  927  1  0.10922300  0.05460630  0.29460600  1
  H  928  1  0.26125200  0.05497130  0.29029900  1
  H  929  1  0.18571200  0.07867330  0.33636700  1
  H  930  1  0.17905200  0.14441100  0.29848300  1
  H  931  1  0.18007900  0.12290600  0.26083300  1
  H  932  1  0.18785600  0.01181730  0.25862900  1
  H  933  1  0.18533000  0.09328630  0.22626900  1
  H  934  1  0.18953500  0.05928030  0.19936300  1
  H  937  1  0.05416540  0.05092130  0.32336500  1
  H  939  1  0.20765700  0.99980200  0.21670700  1
  H  941  1  0.17820500  0.11588900  0.35730100  1
  H  943  1  0.32226800  0.04113830  0.29617200  1
  H  968  1  0.28552600  0.47215200  0.88282300  1
  H  969  1  0.22270000  0.47950400  0.87678400  1
  H  970  1  0.15555800  0.47790900  0.87275500  1
  H  971  1  0.09232140  0.46954000  0.87356600  1
  H  972  1  0.10921700  0.41454300  0.92466300  1
  H  973  1  0.26122200  0.41410600  0.92904800  1
  H  974  1  0.18557300  0.39051200  0.88296300  1
  H  975  1  0.17886800  0.32475100  0.92080200  1
  H  976  1  0.17998300  0.34622600  0.95846800  1
  H  977  1  0.18791300  0.45730900  0.96076300  1
  H  978  1  0.18530900  0.37581000  0.99305200  1
  H  979  1  0.18959200  0.40979000  0.01998400  1
  H  982  1  0.05429840  0.41819700  0.89573100  1
  H  984  1  0.20796800  0.46920000  0.00274299  1
  H  986  1  0.17793800  0.35330600  0.86201200  1
  H  988  1  0.32225800  0.42786700  0.92317000  1
  H  1013  1  0.78659200  0.97188800  0.83692400  1
  H  1014  1  0.72419500  0.97397900  0.84741900  1
  H  1015  1  0.65766800  0.96944200  0.85296800  1
  H  1016  1  0.59478000  0.96012500  0.85176700  1
  H  1017  1  0.61217000  0.91243200  0.79381100  1
  H  1018  1  0.76347100  0.91996900  0.78367900  1
  H  1019  1  0.68073300  0.96187500  0.76288100  1
  H  1020  1  0.67590500  0.92335900  0.69744900  1
  H  1021  1  0.68239400  0.88600300  0.71908500  1
  H  1022  1  0.69599300  0.88470800  0.82996100  1
  H  1023  1  0.69236200  0.85204400  0.74860400  1
  H  1024  1  0.70070600  0.82547300  0.78252500  1
  H  1027  1  0.55594700  0.91242800  0.82049200  1
  H  1029  1  0.72179000  0.84199800  0.84035400  1
  H  1031  1  0.66866500  0.98196400  0.72547200  1
  H  1033  1  0.82245000  0.93804600  0.78732700  1
  H  1058  1  0.78625100  0.49713000  0.38235500  1
  H  1059  1  0.72382700  0.49516000  0.37190300  1
  H  1060  1  0.65727600  0.49976500  0.36645800  1
  H  1061  1  0.59439600  0.50909800  0.36781000  1
  H  1062  1  0.61211600  0.55676600  0.42574300  1
  H  1063  1  0.76342000  0.54906300  0.43564500  1
  H  1064  1  0.68061100  0.50729000  0.45649600  1
  H  1065  1  0.67592100  0.54579700  0.52193900  1
  H  1066  1  0.68247700  0.58315200  0.50030900  1
  H  1067  1  0.69592600  0.58445700  0.38942600  1
  H  1068  1  0.69244700  0.61711300  0.47078800  1
  H  1069  1  0.70077200  0.64368400  0.43686300  1
  H  1072  1  0.55568000  0.55673200  0.39944700  1
  H  1074  1  0.72178200  0.62716000  0.37902600  1
  H  1076  1  0.66855300  0.48720300  0.49390300  1
  H  1078  1  0.82231500  0.53078300  0.43198000  1
  H  1103  1  0.78658100  0.50734900  0.84702000  1
  H  1104  1  0.72417900  0.49686900  0.84908700  1
  H  1105  1  0.65765200  0.49133400  0.84452600  1
  H  1106  1  0.59477200  0.49255700  0.83519400  1
  H  1107  1  0.61223100  0.55050300  0.78749900  1
  H  1108  1  0.76353200  0.56058800  0.79508000  1
  H  1109  1  0.68076500  0.58140500  0.83695900  1
  H  1110  1  0.67593500  0.64683500  0.79844000  1
  H  1111  1  0.68244200  0.62519900  0.76108500  1
  H  1112  1  0.69604300  0.51432400  0.75979400  1
  H  1113  1  0.69241500  0.59568000  0.72712700  1
  H  1114  1  0.70075100  0.56175600  0.70055600  1
  H  1117  1  0.55597300  0.52389100  0.78749300  1
  H  1119  1  0.72181900  0.50392300  0.71707800  1
  H  1121  1  0.66867500  0.61881300  0.85704300  1
  H  1123  1  0.82248800  0.55694200  0.81320700  1
  H  1148  1  0.78658100  0.96178400  0.37235500  1
  H  1149  1  0.72418100  0.97228000  0.37030500  1
  H  1150  1  0.65765500  0.97781300  0.37486900  1
  H  1151  1  0.59477800  0.97660000  0.38421300  1
  H  1152  1  0.61223400  0.91864400  0.43189800  1
  H  1153  1  0.76352700  0.90853200  0.42428400  1
  H  1154  1  0.68074900  0.88775000  0.38241500  1
  H  1155  1  0.67593700  0.82230500  0.42091200  1
  H  1156  1  0.68246100  0.84392700  0.45827300  1
  H  1157  1  0.69607300  0.95480200  0.45959800  1
  H  1158  1  0.69244700  0.87343500  0.49223900  1
  H  1159  1  0.70081000  0.90735000  0.51881900  1
  H  1162  1  0.55598100  0.94527400  0.43191600  1
  H  1164  1  0.72190700  0.96517000  0.50231800  1
  H  1166  1  0.66866200  0.85035000  0.36232000  1
  H  1168  1  0.82248500  0.91218000  0.40615700  1
  H  1175  1  0.21378500  0.25576000  0.37123400  1
  H  1176  1  0.20163000  0.29771600  0.36942400  1
  H  1183  1  0.13486000  0.20862600  0.33831100  1
  H  1184  1  0.14702700  0.16674600  0.34021200  1
  H  1185  1  0.25639800  0.18153900  0.35019200  1
  H  1186  1  0.24440200  0.22354800  0.34770800  1
  H  1187  1  0.14595600  0.24416500  0.31196900  1
  H  1192  1  0.22187800  0.14101700  0.36573700  1
  H  1193  1  0.23446300  0.13983900  0.33537200  1
  H  1195  1  0.15292400  0.32869600  0.35802400  1
  H  1196  1  0.13629700  0.32731600  0.32876300  1
  H  1203  1  0.21387200  0.21343600  0.84801000  1
  H  1204  1  0.20198700  0.17144700  0.84991500  1
  H  1211  1  0.13477000  0.26051000  0.88089900  1
  H  1212  1  0.14685900  0.30240200  0.87903100  1
  H  1213  1  0.25625600  0.28770800  0.86904100  1
  H  1214  1  0.24434100  0.24569100  0.87149800  1
  H  1215  1  0.14591800  0.22497000  0.90722500  1
  H  1220  1  0.22163700  0.32821700  0.85351700  1
  H  1221  1  0.23427100  0.32937100  0.88387200  1
  H  1223  1  0.15406500  0.14015900  0.86144100  1
  H  1224  1  0.13670000  0.14177200  0.89050500  1
  H  1231  1  0.21371800  0.97296900  0.13082900  1
  H  1232  1  0.20167900  0.97486300  0.17279700  1
  H  1239  1  0.13476400  0.00586732  0.08369200  1
  H  1240  1  0.14689900  0.00392432  0.04180800  1
  H  1241  1  0.25627500  0.99393300  0.05657000  1
  H  1242  1  0.24431200  0.99645500  0.09858100  1
  H  1243  1  0.14592600  0.03224930  0.11920900  1
  H  1248  1  0.22167200  0.97834200  0.01607900  1
  H  1249  1  0.23434800  0.00868832  0.01486200  1
  H  1251  1  0.15335300  0.98638600  0.20391700  1
  H  1252  1  0.13644100  0.01557430  0.20239800  1
  H  1259  1  0.21373300  0.49621300  0.08851300  1
  H  1260  1  0.20174800  0.49433600  0.04653700  1
  H  1267  1  0.13478300  0.46326200  0.13564700  1
  H  1268  1  0.14697900  0.46506400  0.17752700  1
  H  1269  1  0.25634200  0.47506900  0.16271600  1
  H  1270  1  0.24431500  0.47268200  0.12071000  1
  H  1271  1  0.14587600  0.43695400  0.10007700  1
  H  1276  1  0.22197800  0.49047100  0.20330300  1
  H  1277  1  0.23438500  0.46007000  0.20437200  1
  H  1279  1  0.15361700  0.48281000  0.01533300  1
  H  1280  1  0.13651600  0.45367200  0.01688600  1
  H  1287  1  0.71713600  0.75730700  0.87236600  1
  H  1288  1  0.70954800  0.79970400  0.87000800  1
  H  1295  1  0.63458700  0.71313000  0.83836100  1
  H  1296  1  0.64315800  0.67083900  0.84036800  1
  H  1297  1  0.75303400  0.68146600  0.85273900  1
  H  1298  1  0.74475100  0.72381800  0.84997800  1
  H  1299  1  0.64885500  0.74833300  0.81287700  1
  H  1304  1  0.71328300  0.64234100  0.86779300  1
  H  1305  1  0.72912900  0.64076600  0.83816800  1
  H  1307  1  0.66784600  0.83351500  0.85787000  1
  H  1308  1  0.64657000  0.83176100  0.83001000  1
  H  1315  1  0.71710600  0.71185200  0.34701000  1
  H  1316  1  0.70952700  0.66945600  0.34937200  1
  H  1323  1  0.63457900  0.75602800  0.38102800  1
  H  1324  1  0.64314400  0.79831800  0.37900600  1
  H  1325  1  0.75301500  0.78769200  0.36661600  1
  H  1326  1  0.74473800  0.74533800  0.36939000  1
  H  1327  1  0.64885500  0.72082400  0.40651900  1
  H  1332  1  0.71324600  0.82680800  0.35155300  1
  H  1333  1  0.72911600  0.82839800  0.38117000  1
  H  1335  1  0.66783300  0.63564500  0.36152500  1
  H  1336  1  0.64657000  0.63739700  0.38939100  1
  H  1343  1  0.71711700  0.47190500  0.63239100  1
  H  1344  1  0.70955400  0.47427300  0.67478900  1
  H  1351  1  0.63454700  0.50590900  0.58823400  1
  H  1352  1  0.64308300  0.50388200  0.54594100  1
  H  1353  1  0.75296200  0.49149400  0.55653000  1
  H  1354  1  0.74471400  0.49427500  0.59888600  1
  H  1355  1  0.64884700  0.53140200  0.62342500  1
  H  1360  1  0.71314200  0.47642100  0.51743100  1
  H  1361  1  0.72904100  0.50603200  0.51583100  1
  H  1363  1  0.66786200  0.48642100  0.70860900  1
  H  1364  1  0.64660200  0.51428600  0.70685600  1
  H  1371  1  0.71716200  0.99724900  0.58698100  1
  H  1372  1  0.70961200  0.99487500  0.54458300  1
  H  1379  1  0.63460600  0.96325200  0.63114900  1
  H  1380  1  0.64316000  0.96527100  0.67344200  1
  H  1381  1  0.75303900  0.97763500  0.66282800  1
  H  1382  1  0.74477300  0.97486500  0.62047400  1
  H  1383  1  0.64888700  0.93775300  0.59595100  1
  H  1388  1  0.71328100  0.99270100  0.70194400  1
  H  1389  1  0.72911300  0.96307400  0.70352900  1
  H  1391  1  0.66796900  0.98271400  0.51075700  1
  H  1392  1  0.64666300  0.95486300  0.51252000  1
  H  1399  1  0.93809300  0.48120800  0.31935400  1
  H  1400  1  0.98400700  0.45709300  0.30219400  1
  H  1407  1  0.90135700  0.46164600  0.38977300  1
  H  1408  1  0.85679200  0.48675600  0.40709200  1
  H  1409  1  0.89068100  0.54438600  0.36330000  1
  H  1410  1  0.93547800  0.51929500  0.34605000  1
  H  1411  1  0.97049100  0.46013400  0.38874000  1
  H  1416  1  0.82640900  0.54207400  0.38187100  1
  H  1417  1  0.85568800  0.54997800  0.40519200  1
  H  1419  1  0.02230240  0.41807700  0.30954100  1
  H  1420  1  0.04774540  0.41820100  0.33589700  1
  H  1427  1  0.93789600  0.98789600  0.90009300  1
  H  1428  1  0.98363100  0.01212630  0.91730600  1
  H  1435  1  0.90128800  0.00740632  0.82962700  1
  H  1436  1  0.85685300  0.98223900  0.81224500  1
  H  1437  1  0.89074700  0.92466100  0.85610100  1
  H  1438  1  0.93541900  0.94981100  0.87341100  1
  H  1439  1  0.97039000  0.00902932  0.83074500  1
  H  1444  1  0.82656700  0.92684100  0.83739600  1
  H  1445  1  0.85598200  0.91903400  0.81412200  1
  H  1447  1  0.02156440  0.05130030  0.90996600  1
  H  1448  1  0.04716140  0.05124330  0.88368200  1
  H  1455  1  0.93788800  0.02486830  0.35620700  1
  H  1456  1  0.98356500  0.04207530  0.33192300  1
  H  1463  1  0.90140000  0.95436500  0.33681800  1
  H  1464  1  0.85693600  0.93702300  0.36199500  1
  H  1465  1  0.89080100  0.98095200  0.41952400  1
  H  1466  1  0.93549400  0.99822700  0.39436300  1
  H  1467  1  0.97054700  0.95550500  0.33523700  1
  H  1472  1  0.82662000  0.96226700  0.41734700  1
  H  1473  1  0.85599500  0.93898300  0.42519100  1
  H  1475  1  0.02145540  0.03463530  0.29270700  1
  H  1476  1  0.04722340  0.00842732  0.29290900  1
  H  1483  1  0.93789800  0.44418200  0.86303100  1
  H  1484  1  0.98360700  0.42695200  0.88727000  1
  H  1491  1  0.90134700  0.51465300  0.88253300  1
  H  1492  1  0.85690100  0.53203300  0.85736900  1
  H  1493  1  0.89079000  0.48817800  0.79978800  1
  H  1494  1  0.93546700  0.47086600  0.82493600  1
  H  1495  1  0.97047000  0.51352100  0.88414400  1
  H  1500  1  0.82660400  0.50686400  0.80198600  1
  H  1501  1  0.85599500  0.53014700  0.79416200  1
  H  1503  1  0.02152940  0.43429900  0.92645700  1
  H  1504  1  0.04719340  0.46055300  0.92636500  1
  H  1511  1  0.41357200  0.97601000  0.32806700  1
  H  1512  1  0.36659800  0.00006832  0.31291800  1
  H  1519  1  0.48034000  0.00920032  0.38394800  1
  H  1520  1  0.52715300  0.98536000  0.39970800  1
  H  1521  1  0.47615700  0.92268000  0.37430700  1
  H  1522  1  0.42826300  0.94651300  0.35932300  1
  H  1523  1  0.41801500  0.01888430  0.39044400  1
  H  1528  1  0.54943900  0.92864600  0.38185700  1
  H  1529  1  0.52441800  0.92048300  0.40738100  1
  H  1531  1  0.34648200  0.05769530  0.32871000  1
  H  1532  1  0.31551700  0.04303130  0.34723900  1
  H  1539  1  0.41352100  0.49309200  0.89128800  1
  H  1540  1  0.36656400  0.46901100  0.90643100  1
  H  1547  1  0.48034000  0.45992800  0.83542200  1
  H  1548  1  0.52715800  0.48377900  0.81968600  1
  H  1549  1  0.47612000  0.54644200  0.84508900  1
  H  1550  1  0.42821800  0.52259700  0.86004900  1
  H  1551  1  0.41801900  0.45022600  0.82890800  1
  H  1556  1  0.54942900  0.54046900  0.83757000  1
  H  1557  1  0.52442300  0.54866600  0.81205100  1
  H  1559  1  0.34654000  0.41137100  0.89063000  1
  H  1560  1  0.31553800  0.42601500  0.87211700  1
  H  1567  1  0.41418300  0.45254500  0.36787500  1
  H  1568  1  0.36750000  0.43727600  0.34363000  1
  H  1575  1  0.47967900  0.50939000  0.33526400  1
  H  1576  1  0.52650200  0.52509200  0.35913200  1
  H  1577  1  0.47643700  0.49847100  0.42165000  1
  H  1578  1  0.42853000  0.48352300  0.39780000  1
  H  1579  1  0.41715400  0.51558200  0.32592100  1
  H  1584  1  0.54938300  0.50654400  0.41564400  1
  H  1585  1  0.52425500  0.53194400  0.42403200  1
  H  1587  1  0.34756700  0.45309500  0.28643500  1
  H  1588  1  0.31604500  0.47163400  0.30050700  1
  H  1595  1  0.41349200  0.01623030  0.85117800  1
  H  1596  1  0.36657700  0.03141730  0.87527100  1
  H  1603  1  0.48025200  0.96036400  0.88437300  1
  H  1604  1  0.52708100  0.94461800  0.86054100  1
  H  1605  1  0.47607700  0.96999200  0.79785300  1
  H  1606  1  0.42816700  0.98496600  0.82168200  1
  H  1607  1  0.41791800  0.95386300  0.89406500  1
  H  1612  1  0.54936700  0.96248100  0.80383200  1
  H  1613  1  0.52439100  0.93693900  0.79566400  1
  H  1615  1  0.34664500  0.01569530  0.93291600  1
  H  1616  1  0.31556500  0.99717400  0.91835900  1
  C  1  1  0.99823000  0.15871600  0.13388200  1
  C  2  1  0.99730800  0.14923100  0.11056400  1
  C  3  1  0.99675800  0.16811900  0.09423100  1
  C  4  1  0.99832900  0.18979900  0.10696200  1
  C  5  1  0.99828600  0.21182800  0.09439300  1
  C  6  1  0.99636400  0.21202000  0.06891000  1
  C  7  1  0.99414900  0.18982500  0.05651200  1
  C  8  1  0.99472700  0.16782200  0.06899300  1
  C  9  1  0.99832300  0.12427700  0.10654600  1
  C  10  1  0.00080500  0.10875000  0.12644200  1
  C  11  1  0.00152100  0.11792900  0.15014200  1
  C  12  1  0.00005100  0.14310900  0.15385700  1
  C  13  1  0.03043200  0.19578600  0.14582600  1
  C  14  1  0.01972100  0.21106700  0.16447400  1
  C  15  1  0.98273900  0.21227200  0.16462000  1
  C  16  1  0.96945700  0.19720400  0.14652900  1
  C  17  1  0.95987600  0.22672800  0.17850900  1
  C  18  1  0.92309300  0.22633500  0.17360000  1
  C  19  1  0.90917700  0.21134100  0.15537200  1
  C  20  1  0.93244700  0.19644700  0.14193900  1
  C  21  1  0.06706200  0.19219400  0.14128800  1
  C  22  1  0.09288700  0.20407600  0.15562800  1
  C  23  1  0.08137000  0.21900900  0.17472100  1
  C  24  1  0.04485900  0.22278200  0.17911900  1
  C  37  1  0.99905900  0.18539000  0.13329300  1
  C  46  1  0.99809900  0.84316900  0.76216600  1
  C  47  1  0.99730800  0.85254200  0.78553300  1
  C  48  1  0.99671300  0.83358200  0.80177900  1
  C  49  1  0.99814200  0.81195700  0.78895100  1
  C  50  1  0.99806500  0.78987600  0.80142800  1
  C  51  1  0.99624700  0.78957600  0.82691500  1
  C  52  1  0.99415900  0.81172500  0.83940800  1
  C  53  1  0.99477000  0.83377600  0.82701900  1
  C  54  1  0.99865100  0.87746600  0.78968800  1
  C  55  1  0.00129600  0.89308600  0.76987600  1
  C  56  1  0.00184500  0.88402200  0.74613300  1
  C  57  1  0.00008800  0.85887500  0.74227100  1
  C  58  1  0.03008900  0.80605900  0.75001500  1
  C  59  1  0.01922500  0.79086700  0.73133300  1
  C  60  1  0.98223700  0.78977800  0.73122000  1
  C  61  1  0.96910000  0.80480400  0.74939300  1
  C  62  1  0.95925000  0.77543200  0.71731000  1
  C  63  1  0.92249000  0.77586600  0.72230700  1
  C  64  1  0.90871300  0.79082600  0.74061300  1
  C  65  1  0.93210900  0.80562700  0.75404900  1
  C  66  1  0.06676000  0.80951900  0.75451700  1
  C  67  1  0.09245500  0.79761000  0.74009400  1
  C  68  1  0.08078300  0.78279000  0.72095500  1
  C  69  1  0.04423700  0.77914800  0.71659300  1
  C  82  1  0.99880800  0.81648700  0.76263700  1
  C  91  1  0.99816100  0.81508100  0.10562800  1
  C  92  1  0.99735600  0.83842700  0.09620300  1
  C  93  1  0.99681700  0.85471200  0.11512900  1
  C  94  1  0.99823500  0.84192700  0.13678100  1
  C  95  1  0.99818200  0.85444400  0.15883900  1
  C  96  1  0.99637500  0.87993100  0.15908900  1
  C  97  1  0.99429500  0.89238500  0.13691900  1
  C  98  1  0.99489500  0.87995400  0.11488800  1
  C  99  1  0.99863300  0.84251800  0.07126600  1
  C  100  1  0.00113000  0.82266300  0.05568800  1
  C  101  1  0.00166900  0.79894000  0.06480500  1
  C  102  1  0.99999200  0.79514700  0.08996700  1
  C  103  1  0.03006400  0.80295600  0.14277000  1
  C  104  1  0.01912400  0.78428600  0.15795300  1
  C  105  1  0.98213600  0.78423000  0.15903400  1
  C  106  1  0.96907900  0.80243600  0.14401700  1
  C  107  1  0.95907400  0.77034300  0.17334700  1
  C  108  1  0.92231400  0.77533400  0.17282400  1
  C  109  1  0.90861700  0.79365100  0.15784400  1
  C  110  1  0.93209500  0.80709100  0.14310300  1
  C  111  1  0.06675300  0.80741600  0.13933900  1
  C  112  1  0.09238700  0.79297200  0.15127800  1
  C  113  1  0.08064100  0.77385900  0.16610400  1
  C  114  1  0.04407700  0.76954000  0.16971900  1
  C  127  1  0.99883800  0.81560400  0.13230700  1
  C  136  1  0.99817100  0.18666800  0.79015700  1
  C  137  1  0.99736900  0.16331400  0.79956200  1
  C  138  1  0.99674000  0.14704600  0.78062200  1
  C  139  1  0.99815000  0.15984900  0.75897900  1
  C  140  1  0.99803500  0.14734800  0.73691300  1
  C  141  1  0.99620100  0.12186100  0.73664300  1
  C  142  1  0.99413000  0.10939200  0.75880600  1
  C  143  1  0.99479400  0.12180500  0.78084500  1
  C  144  1  0.99860900  0.15920000  0.82449500  1
  C  145  1  0.00117700  0.17903800  0.84008800  1
  C  146  1  0.00174600  0.20276800  0.83099000  1
  C  147  1  0.00003700  0.20658900  0.80583400  1
  C  148  1  0.03007200  0.19878400  0.75301000  1
  C  149  1  0.01917000  0.21746100  0.73782400  1
  C  150  1  0.98217900  0.21759300  0.73679100  1
  C  151  1  0.96908100  0.19939300  0.75180700  1
  C  152  1  0.95916700  0.23141300  0.72237600  1
  C  153  1  0.92241500  0.22639900  0.72283400  1
  C  154  1  0.90868100  0.20810300  0.73782300  1
  C  155  1  0.93210100  0.19470900  0.75264200  1
  C  156  1  0.06675100  0.19428300  0.75643000  1
  C  157  1  0.09241700  0.20871200  0.74450200  1
  C  158  1  0.08071000  0.22785000  0.72969500  1
  C  159  1  0.04415500  0.23220000  0.72607700  1
  C  172  1  0.99881900  0.18616800  0.76347600  1
  C  181  1  0.50429900  0.65962500  0.63124300  1
  C  182  1  0.50285400  0.65004900  0.60796000  1
  C  183  1  0.49849300  0.66873700  0.59167200  1
  C  184  1  0.49761300  0.69045500  0.60436200  1
  C  185  1  0.49421100  0.71235200  0.59176400  1
  C  186  1  0.49145500  0.71232800  0.56631700  1
  C  187  1  0.49154300  0.69006100  0.55397800  1
  C  188  1  0.49532000  0.66822000  0.56648600  1
  C  189  1  0.50637000  0.62521500  0.60385600  1
  C  190  1  0.51129900  0.60984000  0.62365000  1
  C  191  1  0.51196800  0.61904400  0.64732100  1
  C  192  1  0.50842600  0.64411500  0.65115400  1
  C  193  1  0.53236500  0.69897200  0.64141700  1
  C  194  1  0.52129600  0.71445500  0.65980200  1
  C  195  1  0.48456900  0.71258900  0.66226400  1
  C  196  1  0.47174300  0.69616200  0.64524200  1
  C  197  1  0.46151700  0.72397000  0.67863200  1
  C  198  1  0.42493900  0.71847300  0.67786000  1
  C  199  1  0.41136700  0.70211600  0.66069600  1
  C  200  1  0.43493800  0.69092900  0.64423500  1
  C  201  1  0.56884500  0.69757000  0.63534400  1
  C  202  1  0.59410600  0.71184800  0.64784900  1
  C  203  1  0.58214200  0.72758300  0.66614800  1
  C  204  1  0.54583300  0.72887400  0.67234900  1
  C  217  1  0.50143000  0.68625900  0.63060500  1
  C  226  1  0.50430700  0.34215400  0.26457300  1
  C  227  1  0.50291800  0.35172500  0.28785800  1
  C  228  1  0.49851900  0.33303800  0.30414400  1
  C  229  1  0.49760500  0.31132500  0.29145100  1
  C  230  1  0.49412600  0.28942800  0.30404200  1
  C  231  1  0.49140100  0.28944900  0.32949100  1
  C  232  1  0.49155300  0.31171100  0.34183500  1
  C  233  1  0.49536500  0.33355300  0.32933100  1
  C  234  1  0.50642600  0.37656100  0.29196000  1
  C  235  1  0.51133900  0.39193600  0.27216600  1
  C  236  1  0.51198200  0.38273200  0.24849300  1
  C  237  1  0.50840200  0.35766400  0.24465900  1
  C  238  1  0.53223400  0.30277400  0.25434900  1
  C  239  1  0.52107200  0.28732600  0.23595900  1
  C  240  1  0.48434500  0.28923400  0.23355000  1
  C  241  1  0.47161500  0.30567000  0.25059700  1
  C  242  1  0.46120000  0.27786900  0.21723100  1
  C  243  1  0.42462900  0.28337700  0.21809100  1
  C  244  1  0.41115300  0.29973700  0.23528800  1
  C  245  1  0.43482100  0.31092000  0.25168500  1
  C  246  1  0.56872700  0.30410900  0.26039700  1
  C  247  1  0.59390600  0.28978000  0.24787400  1
  C  248  1  0.58185700  0.27408200  0.22957100  1
  C  249  1  0.54553200  0.27286600  0.22339200  1
  C  262  1  0.50136600  0.31552200  0.26520400  1
  C  271  1  0.50437100  0.31756300  0.60661400  1
  C  272  1  0.50292100  0.34084600  0.59703800  1
  C  273  1  0.49855900  0.35713600  0.61572600  1
  C  274  1  0.49769000  0.34444600  0.63744300  1
  C  275  1  0.49425600  0.35704200  0.65934100  1
  C  276  1  0.49149500  0.38249000  0.65931500  1
  C  277  1  0.49159100  0.39482900  0.63704800  1
  C  278  1  0.49537600  0.38232100  0.61520900  1
  C  279  1  0.50642600  0.34494800  0.57220400  1
  C  280  1  0.51134500  0.32515400  0.55682800  1
  C  281  1  0.51201900  0.30148300  0.56603400  1
  C  282  1  0.50846800  0.29765000  0.59110400  1
  C  283  1  0.53240800  0.30737900  0.64597100  1
  C  284  1  0.52131500  0.28900000  0.66145000  1
  C  285  1  0.48459000  0.28654800  0.65957600  1
  C  286  1  0.47178600  0.30357300  0.64314300  1
  C  287  1  0.46151400  0.27019500  0.67095800  1
  C  288  1  0.42494400  0.27097500  0.66544700  1
  C  289  1  0.41139600  0.28813400  0.64907400  1
  C  290  1  0.43498600  0.30458700  0.63789400  1
  C  291  1  0.56889300  0.31344400  0.64457800  1
  C  292  1  0.59413300  0.30093800  0.65887400  1
  C  293  1  0.58214700  0.28264500  0.67460800  1
  C  294  1  0.54583600  0.27644500  0.67587800  1
  C  307  1  0.50148600  0.31820100  0.63324900  1
  C  316  1  0.50438700  0.68418100  0.28919300  1
  C  317  1  0.50293400  0.66089600  0.29876200  1
  C  318  1  0.49855100  0.64461300  0.28007000  1
  C  319  1  0.49766100  0.65731200  0.25835900  1
  C  320  1  0.49423000  0.64472100  0.23645800  1
  C  321  1  0.49147600  0.61927600  0.23647400  1
  C  322  1  0.49158300  0.60692800  0.25873600  1
  C  323  1  0.49537900  0.61942800  0.28057900  1
  C  324  1  0.50645000  0.65678500  0.32359400  1
  C  325  1  0.51138500  0.67657300  0.33897500  1
  C  326  1  0.51206400  0.70024800  0.32977600  1
  C  327  1  0.50850800  0.70409000  0.30470800  1
  C  328  1  0.53240500  0.69437000  0.24983200  1
  C  329  1  0.52131500  0.71275600  0.23435800  1
  C  330  1  0.48459300  0.71521700  0.23624400  1
  C  331  1  0.47178900  0.69819700  0.25268400  1
  C  332  1  0.46152200  0.73157700  0.22487300  1
  C  333  1  0.42494900  0.73079500  0.23038700  1
  C  334  1  0.41140100  0.71363300  0.24675500  1
  C  335  1  0.43498900  0.69717200  0.25792300  1
  C  336  1  0.56888700  0.68829600  0.25121100  1
  C  337  1  0.59413000  0.70080000  0.23691600  1
  C  338  1  0.58214500  0.71910200  0.22119000  1
  C  339  1  0.54583600  0.72530400  0.21992400  1
  C  352  1  0.50148600  0.68355400  0.26256000  1
  C  361  1  0.97922500  0.06253100  0.17812400  1
  C  362  1  0.96305400  0.04656200  0.16141400  1
  C  363  1  0.97077200  0.02164000  0.16261400  1
  C  364  1  0.99436700  0.01200300  0.17996500  1
  C  365  1  0.01036300  0.02820000  0.19631900  1
  C  366  1  0.00299100  0.05295300  0.19537400  1
  C  369  1  0.00176000  0.98676900  0.18093500  1
  C  370  1  0.97416300  0.96955300  0.17858700  1
  C  371  1  0.98133900  0.94474200  0.17981400  1
  C  372  1  0.01646100  0.93616100  0.18337800  1
  C  373  1  0.04403900  0.95333200  0.18572900  1
  C  374  1  0.03687700  0.97813400  0.18447400  1
  C  383  1  0.02548900  0.91012400  0.18561000  1
  C  386  1  0.97281600  0.08901200  0.17801300  1
  C  389  1  0.97950500  0.93922000  0.71760100  1
  C  390  1  0.96322200  0.95518100  0.73427100  1
  C  391  1  0.97079300  0.98012200  0.73302100  1
  C  392  1  0.99435600  0.98978600  0.71566700  1
  C  393  1  0.01044800  0.97359800  0.69934400  1
  C  394  1  0.00322500  0.94882500  0.70033800  1
  C  397  1  0.00169000  0.01502900  0.71469600  1
  C  398  1  0.97406400  0.03222200  0.71707100  1
  C  399  1  0.98119000  0.05704100  0.71584700  1
  C  400  1  0.01629800  0.06565500  0.71228500  1
  C  401  1  0.04390700  0.04850800  0.70992600  1
  C  402  1  0.03679200  0.02370100  0.71117000  1
  C  411  1  0.02528100  0.09170100  0.71007500  1
  C  414  1  0.97341300  0.91270700  0.71787600  1
  C  417  1  0.97928100  0.77068800  0.00950500  1
  C  418  1  0.96309400  0.78738100  0.99352400  1
  C  419  1  0.97074200  0.78613200  0.96859400  1
  C  420  1  0.99430000  0.76875400  0.95896200  1
  C  421  1  0.01031200  0.75241700  0.97516900  1
  C  422  1  0.00300500  0.75341000  0.99993000  1
  C  425  1  0.00166900  0.76775800  0.93372500  1
  C  426  1  0.97406100  0.77010100  0.91651700  1
  C  427  1  0.98121900  0.76885100  0.89170200  1
  C  428  1  0.01633300  0.76527400  0.88311000  1
  C  429  1  0.04392200  0.76292800  0.90027500  1
  C  430  1  0.03677800  0.76420400  0.92507700  1
  C  439  1  0.02534000  0.76300700  0.85707300  1
  C  442  1  0.97302700  0.77090800  0.03600100  1
  C  445  1  0.97931800  0.23114300  0.88623000  1
  C  446  1  0.96308600  0.21445600  0.90219700  1
  C  447  1  0.97071300  0.21569100  0.92713000  1
  C  448  1  0.99427900  0.23305200  0.93678100  1
  C  449  1  0.01031300  0.24939600  0.92058800  1
  C  450  1  0.00303200  0.24841700  0.89582400  1
  C  453  1  0.00167200  0.23400500  0.96201400  1
  C  454  1  0.97408800  0.23160900  0.97923600  1
  C  455  1  0.98128000  0.23279500  0.00404800  1
  C  456  1  0.01641100  0.23634000  0.01262400  1
  C  457  1  0.04397600  0.23872200  0.99544900  1
  C  458  1  0.03679600  0.23751900  0.97064700  1
  C  467  1  0.02547700  0.23847600  0.03866300  1
  C  470  1  0.97315000  0.23090100  0.85972400  1
  C  473  1  0.48709900  0.56589100  0.67870700  1
  C  474  1  0.46947700  0.55055400  0.66207400  1
  C  475  1  0.47458200  0.52533700  0.66353700  1
  C  476  1  0.49701800  0.51476500  0.68105200  1
  C  477  1  0.51442600  0.53036300  0.69735100  1
  C  478  1  0.50971300  0.55539900  0.69611600  1
  C  481  1  0.50215800  0.48925300  0.68210600  1
  C  482  1  0.47330000  0.47309000  0.67912800  1
  C  483  1  0.47833300  0.44803300  0.68039800  1
  C  484  1  0.51248600  0.43812800  0.68471000  1
  C  485  1  0.54131700  0.45422400  0.68771700  1
  C  486  1  0.53631600  0.47925300  0.68631300  1
  C  495  1  0.51918000  0.41180400  0.68724100  1
  C  498  1  0.48405400  0.59262900  0.67786500  1
  C  501  1  0.48710100  0.43588300  0.21711600  1
  C  502  1  0.46947700  0.45122000  0.23375000  1
  C  503  1  0.47458800  0.47643700  0.23228600  1
  C  504  1  0.49701000  0.48700900  0.21476200  1
  C  505  1  0.51440800  0.47141300  0.19845700  1
  C  506  1  0.50969400  0.44637700  0.19969400  1
  C  509  1  0.50215000  0.51252100  0.21370900  1
  C  510  1  0.47329500  0.52868400  0.21670300  1
  C  511  1  0.47832000  0.55374100  0.21540300  1
  C  512  1  0.51247000  0.56364400  0.21107900  1
  C  513  1  0.54130100  0.54755000  0.20807800  1
  C  514  1  0.53630500  0.52252200  0.20949300  1
  C  523  1  0.51915800  0.58996900  0.20853500  1
  C  526  1  0.48404900  0.40914500  0.21795500  1
  C  529  1  0.48710900  0.27010000  0.51288600  1
  C  530  1  0.46948500  0.28673500  0.49755000  1
  C  531  1  0.47457700  0.28526500  0.47233100  1
  C  532  1  0.49700200  0.26774300  0.46175700  1
  C  533  1  0.51441600  0.25144600  0.47735300  1
  C  534  1  0.50971600  0.25268600  0.50239100  1
  C  537  1  0.50212300  0.26668200  0.43624300  1
  C  538  1  0.47325500  0.26965900  0.42009000  1
  C  539  1  0.47826400  0.26837400  0.39503300  1
  C  540  1  0.51240800  0.26405300  0.38511700  1
  C  541  1  0.54125000  0.26104700  0.40120100  1
  C  542  1  0.53627000  0.26246200  0.42623100  1
  C  551  1  0.51907600  0.26150200  0.35879000  1
  C  554  1  0.48407800  0.27094500  0.53962600  1
  C  557  1  0.48717900  0.73165800  0.38291300  1
  C  558  1  0.46953900  0.71503200  0.39825100  1
  C  559  1  0.47463000  0.71650200  0.42347000  1
  C  560  1  0.49705300  0.73402400  0.43404300  1
  C  561  1  0.51446400  0.75032300  0.41844600  1
  C  562  1  0.50976900  0.74908100  0.39340900  1
  C  565  1  0.50218200  0.73508100  0.45955700  1
  C  566  1  0.47332100  0.73209300  0.47571500  1
  C  567  1  0.47833900  0.73339300  0.50077200  1
  C  568  1  0.51248800  0.73770900  0.51067900  1
  C  569  1  0.54132500  0.74070400  0.49458800  1
  C  570  1  0.53633700  0.73929100  0.46956000  1
  C  579  1  0.51917200  0.74024600  0.53700600  1
  C  582  1  0.48415300  0.73080600  0.35617500  1
  C  585  1  0.81828700  0.21019500  0.17333600  1
  C  586  1  0.81387000  0.21120200  0.19870600  1
  C  587  1  0.78628300  0.22553100  0.20864000  1
  C  588  1  0.76313000  0.23925400  0.19400800  1
  C  589  1  0.76788300  0.23807100  0.16884200  1
  C  590  1  0.79481700  0.22372100  0.15872600  1
  C  593  1  0.73623400  0.25420900  0.20432700  1
  C  594  1  0.71298500  0.24542700  0.22233600  1
  C  595  1  0.68649200  0.26024000  0.23245900  1
  C  596  1  0.68254600  0.28446300  0.22511400  1
  C  597  1  0.70598700  0.29325100  0.20724200  1
  C  598  1  0.73222200  0.27839800  0.19694200  1
  C  607  1  0.65511200  0.30108000  0.23518000  1
  C  610  1  0.84729400  0.19621500  0.16138800  1
  C  613  1  0.81794600  0.79167400  0.72261500  1
  C  614  1  0.81361400  0.79064800  0.69723800  1
  C  615  1  0.78613900  0.77624300  0.68727200  1
  C  616  1  0.76299900  0.76247900  0.70187900  1
  C  617  1  0.76768300  0.76367400  0.72704900  1
  C  618  1  0.79451500  0.77808700  0.73719600  1
  C  621  1  0.73617000  0.74749000  0.69152900  1
  C  622  1  0.71296100  0.75623700  0.67348100  1
  C  623  1  0.68652900  0.74139400  0.66333000  1
  C  624  1  0.68261800  0.71716800  0.67067600  1
  C  625  1  0.70602500  0.70841300  0.68858500  1
  C  626  1  0.73219800  0.72329700  0.69891200  1
  C  635  1  0.65529300  0.70050500  0.66055200  1
  C  638  1  0.84675600  0.80580200  0.73460300  1
  C  641  1  0.81796200  0.77547000  0.15697400  1
  C  642  1  0.81370200  0.75009100  0.15806800  1
  C  643  1  0.78624800  0.74012900  0.17249500  1
  C  644  1  0.76307700  0.75474200  0.18622800  1
  C  645  1  0.76770200  0.77991400  0.18497500  1
  C  646  1  0.79449700  0.79005800  0.17052800  1
  C  649  1  0.73626100  0.74440000  0.20123000  1
  C  650  1  0.71304700  0.72634800  0.19249500  1
  C  651  1  0.68660900  0.71621300  0.20734800  1
  C  652  1  0.68268500  0.72359200  0.23156200  1
  C  653  1  0.70609100  0.74150700  0.24030200  1
  C  654  1  0.73226700  0.75182000  0.22540800  1
  C  663  1  0.65533300  0.71349900  0.24822500  1
  C  666  1  0.84672400  0.78746200  0.14280000  1
  C  669  1  0.81796400  0.22615800  0.73870900  1
  C  670  1  0.81366200  0.25153600  0.73767600  1
  C  671  1  0.78620100  0.26151200  0.72326600  1
  C  672  1  0.76304500  0.24691600  0.70950800  1
  C  673  1  0.76769900  0.22174200  0.71071000  1
  C  674  1  0.79451500  0.21158500  0.72512900  1
  C  677  1  0.73622600  0.25727200  0.69451800  1
  C  678  1  0.71301700  0.27532200  0.70326800  1
  C  679  1  0.68658000  0.28547000  0.68842700  1
  C  680  1  0.68266600  0.27812300  0.66420200  1
  C  681  1  0.70607300  0.26021600  0.65544500  1
  C  682  1  0.73224900  0.24988900  0.67032700  1
  C  691  1  0.65532500  0.28823800  0.64754800  1
  C  694  1  0.84675300  0.21415600  0.75284700  1
  C  697  1  0.17735400  0.79074100  0.18057500  1
  C  698  1  0.19334100  0.79610000  0.20312100  1
  C  699  1  0.22098300  0.78126000  0.21211700  1
  C  700  1  0.23399400  0.76121100  0.19914000  1
  C  701  1  0.21800800  0.75625700  0.17665400  1
  C  702  1  0.19023900  0.77063600  0.16761200  1
  C  705  1  0.26249500  0.74670600  0.20836600  1
  C  706  1  0.29189600  0.75724000  0.22039200  1
  C  707  1  0.31978600  0.74310400  0.22966200  1
  C  708  1  0.31957800  0.71778800  0.22716700  1
  C  709  1  0.29057600  0.70723000  0.21483400  1
  C  710  1  0.26247900  0.72136700  0.20578100  1
  C  719  1  0.34915900  0.70211800  0.23591000  1
  C  722  1  0.14822100  0.80641800  0.17097300  1
  C  725  1  0.17735200  0.21095600  0.71519700  1
  C  726  1  0.19334800  0.20560800  0.69265200  1
  C  727  1  0.22097600  0.22046200  0.68365800  1
  C  728  1  0.23397100  0.24051100  0.69663900  1
  C  729  1  0.21797300  0.24545800  0.71912600  1
  C  730  1  0.19022400  0.23106100  0.72816600  1
  C  733  1  0.26246400  0.25502700  0.68741800  1
  C  734  1  0.29187200  0.24450300  0.67538900  1
  C  735  1  0.31977800  0.25864500  0.66614900  1
  C  736  1  0.31956200  0.28396100  0.66865500  1
  C  737  1  0.29053600  0.29450800  0.68097100  1
  C  738  1  0.26243500  0.28036600  0.69000600  1
  C  747  1  0.34915100  0.29963500  0.65993200  1
  C  750  1  0.14824600  0.19525500  0.72480200  1
  C  753  1  0.17748800  0.23338100  0.15795700  1
  C  754  1  0.19298000  0.25615400  0.15290600  1
  C  755  1  0.22045400  0.26520700  0.16785200  1
  C  756  1  0.23382500  0.25205900  0.18767800  1
  C  757  1  0.21831700  0.22935600  0.19233600  1
  C  758  1  0.19070400  0.22025500  0.17785900  1
  C  761  1  0.26229200  0.26129300  0.20220600  1
  C  762  1  0.29142700  0.27365700  0.19172500  1
  C  763  1  0.31932800  0.28289000  0.20587500  1
  C  764  1  0.31939700  0.28001700  0.23115200  1
  C  765  1  0.29065100  0.26736600  0.24165100  1
  C  766  1  0.26254700  0.25834100  0.22750400  1
  C  775  1  0.34899600  0.28871200  0.24683000  1
  C  778  1  0.14878800  0.22357500  0.14204300  1
  C  781  1  0.17733000  0.76828700  0.73785600  1
  C  782  1  0.19329100  0.74573200  0.74320500  1
  C  783  1  0.22089500  0.73671300  0.72834600  1
  C  784  1  0.23390200  0.74968000  0.70828900  1
  C  785  1  0.21793200  0.77217300  0.70333700  1
  C  786  1  0.19020700  0.78124100  0.71774000  1
  C  789  1  0.26239300  0.74044300  0.69378100  1
  C  790  1  0.29179200  0.72841700  0.70431700  1
  C  791  1  0.31970600  0.71917000  0.69018500  1
  C  792  1  0.31950600  0.72166700  0.66486900  1
  C  793  1  0.29048600  0.73397500  0.65430800  1
  C  794  1  0.26237700  0.74301900  0.66844200  1
  C  803  1  0.34910600  0.71293900  0.64920500  1
  C  806  1  0.14828300  0.77793600  0.75357900  1
  C  809  1  0.18484000  0.39240800  0.29566900  1
  C  810  1  0.18391800  0.38292300  0.27235100  1
  C  811  1  0.18336800  0.40181100  0.25601800  1
  C  812  1  0.18493900  0.42349100  0.26874900  1
  C  813  1  0.18489600  0.44552000  0.25618000  1
  C  814  1  0.18297400  0.44571200  0.23069700  1
  C  815  1  0.18075900  0.42351700  0.21829900  1
  C  816  1  0.18133700  0.40151400  0.23078000  1
  C  817  1  0.18493300  0.35796900  0.26833300  1
  C  818  1  0.18741500  0.34244200  0.28822900  1
  C  819  1  0.18813100  0.35162100  0.31192900  1
  C  820  1  0.18666100  0.37680100  0.31564400  1
  C  821  1  0.21704200  0.42947800  0.30761300  1
  C  822  1  0.20633100  0.44475900  0.32626100  1
  C  823  1  0.16934900  0.44596400  0.32640700  1
  C  824  1  0.15606700  0.43089600  0.30831600  1
  C  825  1  0.14648600  0.46042000  0.34029600  1
  C  826  1  0.10970300  0.46002700  0.33538700  1
  C  827  1  0.09578740  0.44503300  0.31715900  1
  C  828  1  0.11905700  0.43013900  0.30372600  1
  C  829  1  0.25367200  0.42588600  0.30307500  1
  C  830  1  0.27949700  0.43776800  0.31741500  1
  C  831  1  0.26798000  0.45270100  0.33650800  1
  C  832  1  0.23146900  0.45647400  0.34090600  1
  C  845  1  0.18566900  0.41908200  0.29508000  1
  C  854  1  0.18470900  0.07686130  0.92395300  1
  C  855  1  0.18391800  0.08623430  0.94732000  1
  C  856  1  0.18332300  0.06727430  0.96356600  1
  C  857  1  0.18475200  0.04564930  0.95073800  1
  C  858  1  0.18467500  0.02356830  0.96321500  1
  C  859  1  0.18285700  0.02326830  0.98870200  1
  C  860  1  0.18076900  0.04541730  0.00119499  1
  C  861  1  0.18138000  0.06746830  0.98880600  1
  C  862  1  0.18526100  0.11115800  0.95147500  1
  C  863  1  0.18790600  0.12677800  0.93166300  1
  C  864  1  0.18845500  0.11771400  0.90792000  1
  C  865  1  0.18669800  0.09256730  0.90405800  1
  C  866  1  0.21669900  0.03975130  0.91180200  1
  C  867  1  0.20583500  0.02455930  0.89312000  1
  C  868  1  0.16884700  0.02347030  0.89300700  1
  C  869  1  0.15571000  0.03849630  0.91118000  1
  C  870  1  0.14586000  0.00912432  0.87909700  1
  C  871  1  0.10910000  0.00955832  0.88409400  1
  C  872  1  0.09532340  0.02451830  0.90240000  1
  C  873  1  0.11871900  0.03931930  0.91583600  1
  C  874  1  0.25337000  0.04321130  0.91630400  1
  C  875  1  0.27906500  0.03130230  0.90188100  1
  C  876  1  0.26739300  0.01648230  0.88274200  1
  C  877  1  0.23084700  0.01284030  0.87838000  1
  C  890  1  0.18541800  0.05017930  0.92442400  1
  C  899  1  0.18477100  0.04877330  0.26741500  1
  C  900  1  0.18396600  0.07211930  0.25799000  1
  C  901  1  0.18342700  0.08840430  0.27691600  1
  C  902  1  0.18484500  0.07561930  0.29856800  1
  C  903  1  0.18479200  0.08813630  0.32062600  1
  C  904  1  0.18298500  0.11362300  0.32087600  1
  C  905  1  0.18090500  0.12607700  0.29870600  1
  C  906  1  0.18150500  0.11364600  0.27667500  1
  C  907  1  0.18524300  0.07621030  0.23305300  1
  C  908  1  0.18774000  0.05635530  0.21747500  1
  C  909  1  0.18827900  0.03263230  0.22659200  1
  C  910  1  0.18660200  0.02883930  0.25175400  1
  C  911  1  0.21667400  0.03664830  0.30455700  1
  C  912  1  0.20573400  0.01797830  0.31974000  1
  C  913  1  0.16874600  0.01792230  0.32082100  1
  C  914  1  0.15568900  0.03612830  0.30580400  1
  C  915  1  0.14568400  0.00403532  0.33513400  1
  C  916  1  0.10892400  0.00902632  0.33461100  1
  C  917  1  0.09522740  0.02734330  0.31963100  1
  C  918  1  0.11870500  0.04078330  0.30489000  1
  C  919  1  0.25336300  0.04110830  0.30112600  1
  C  920  1  0.27899700  0.02666430  0.31306500  1
  C  921  1  0.26725100  0.00755132  0.32789100  1
  C  922  1  0.23068700  0.00323232  0.33150600  1
  C  935  1  0.18544800  0.04929630  0.29409400  1
  C  944  1  0.18478100  0.42036000  0.95194400  1
  C  945  1  0.18397900  0.39700600  0.96134900  1
  C  946  1  0.18335000  0.38073800  0.94240900  1
  C  947  1  0.18476000  0.39354100  0.92076600  1
  C  948  1  0.18464500  0.38104000  0.89870000  1
  C  949  1  0.18281100  0.35555300  0.89843000  1
  C  950  1  0.18074000  0.34308400  0.92059300  1
  C  951  1  0.18140400  0.35549700  0.94263200  1
  C  952  1  0.18521900  0.39289200  0.98628200  1
  C  953  1  0.18778700  0.41273000  0.00187499  1
  C  954  1  0.18835600  0.43646000  0.99277700  1
  C  955  1  0.18664700  0.44028100  0.96762100  1
  C  956  1  0.21668200  0.43247600  0.91479700  1
  C  957  1  0.20578000  0.45115300  0.89961100  1
  C  958  1  0.16878900  0.45128500  0.89857800  1
  C  959  1  0.15569100  0.43308500  0.91359400  1
  C  960  1  0.14577700  0.46510500  0.88416300  1
  C  961  1  0.10902500  0.46009100  0.88462100  1
  C  962  1  0.09529140  0.44179500  0.89961000  1
  C  963  1  0.11871100  0.42840100  0.91442900  1
  C  964  1  0.25336100  0.42797500  0.91821700  1
  C  965  1  0.27902700  0.44240400  0.90628900  1
  C  966  1  0.26732000  0.46154200  0.89148200  1
  C  967  1  0.23076500  0.46589200  0.88786400  1
  C  980  1  0.18542900  0.41986000  0.92526300  1
  C  989  1  0.69090900  0.89331700  0.79303000  1
  C  990  1  0.68946400  0.88374100  0.76974700  1
  C  991  1  0.68510300  0.90242900  0.75345900  1
  C  992  1  0.68422300  0.92414700  0.76614900  1
  C  993  1  0.68082100  0.94604400  0.75355100  1
  C  994  1  0.67806500  0.94602000  0.72810400  1
  C  995  1  0.67815300  0.92375300  0.71576500  1
  C  996  1  0.68193000  0.90191200  0.72827300  1
  C  997  1  0.69298000  0.85890700  0.76564300  1
  C  998  1  0.69790900  0.84353200  0.78543700  1
  C  999  1  0.69857800  0.85273600  0.80910800  1
  C  1000  1  0.69503600  0.87780700  0.81294100  1
  C  1001  1  0.71897500  0.93266400  0.80320400  1
  C  1002  1  0.70790600  0.94814700  0.82158900  1
  C  1003  1  0.67117900  0.94628100  0.82405100  1
  C  1004  1  0.65835300  0.92985400  0.80702900  1
  C  1005  1  0.64812700  0.95766200  0.84041900  1
  C  1006  1  0.61154900  0.95216500  0.83964700  1
  C  1007  1  0.59797700  0.93580800  0.82248300  1
  C  1008  1  0.62154800  0.92462100  0.80602200  1
  C  1009  1  0.75545500  0.93126200  0.79713100  1
  C  1010  1  0.78071600  0.94554000  0.80963600  1
  C  1011  1  0.76875200  0.96127500  0.82793500  1
  C  1012  1  0.73244300  0.96256600  0.83413600  1
  C  1025  1  0.68804000  0.91995100  0.79239200  1
  C  1034  1  0.69091700  0.57584600  0.42636000  1
  C  1035  1  0.68952800  0.58541700  0.44964500  1
  C  1036  1  0.68512900  0.56673000  0.46593100  1
  C  1037  1  0.68421500  0.54501700  0.45323800  1
  C  1038  1  0.68073600  0.52312000  0.46582900  1
  C  1039  1  0.67801100  0.52314100  0.49127800  1
  C  1040  1  0.67816300  0.54540300  0.50362200  1
  C  1041  1  0.68197500  0.56724500  0.49111800  1
  C  1042  1  0.69303600  0.61025300  0.45374700  1
  C  1043  1  0.69794900  0.62562800  0.43395300  1
  C  1044  1  0.69859200  0.61642400  0.41028000  1
  C  1045  1  0.69501200  0.59135600  0.40644600  1
  C  1046  1  0.71884400  0.53646600  0.41613600  1
  C  1047  1  0.70768200  0.52101800  0.39774600  1
  C  1048  1  0.67095500  0.52292600  0.39533700  1
  C  1049  1  0.65822500  0.53936200  0.41238400  1
  C  1050  1  0.64781000  0.51156100  0.37901800  1
  C  1051  1  0.61123900  0.51706900  0.37987800  1
  C  1052  1  0.59776300  0.53342900  0.39707500  1
  C  1053  1  0.62143100  0.54461200  0.41347200  1
  C  1054  1  0.75533700  0.53780100  0.42218400  1
  C  1055  1  0.78051600  0.52347200  0.40966100  1
  C  1056  1  0.76846700  0.50777400  0.39135800  1
  C  1057  1  0.73214200  0.50655800  0.38517900  1
  C  1070  1  0.68797600  0.54921400  0.42699100  1
  C  1079  1  0.69098100  0.55125500  0.76840100  1
  C  1080  1  0.68953100  0.57453800  0.75882500  1
  C  1081  1  0.68516900  0.59082800  0.77751300  1
  C  1082  1  0.68430000  0.57813800  0.79923000  1
  C  1083  1  0.68086600  0.59073400  0.82112800  1
  C  1084  1  0.67810500  0.61618200  0.82110200  1
  C  1085  1  0.67820100  0.62852100  0.79883500  1
  C  1086  1  0.68198600  0.61601300  0.77699600  1
  C  1087  1  0.69303600  0.57864000  0.73399100  1
  C  1088  1  0.69795500  0.55884600  0.71861500  1
  C  1089  1  0.69862900  0.53517500  0.72782100  1
  C  1090  1  0.69507800  0.53134200  0.75289100  1
  C  1091  1  0.71901800  0.54107100  0.80775800  1
  C  1092  1  0.70792500  0.52269200  0.82323700  1
  C  1093  1  0.67120000  0.52024000  0.82136300  1
  C  1094  1  0.65839600  0.53726500  0.80493000  1
  C  1095  1  0.64812400  0.50388700  0.83274500  1
  C  1096  1  0.61155400  0.50466700  0.82723400  1
  C  1097  1  0.59800600  0.52182600  0.81086100  1
  C  1098  1  0.62159600  0.53827900  0.79968100  1
  C  1099  1  0.75550300  0.54713600  0.80636500  1
  C  1100  1  0.78074300  0.53463000  0.82066100  1
  C  1101  1  0.76875700  0.51633700  0.83639500  1
  C  1102  1  0.73244600  0.51013700  0.83766500  1
  C  1115  1  0.68809600  0.55189300  0.79503600  1
  C  1124  1  0.69099700  0.91787300  0.45098000  1
  C  1125  1  0.68954400  0.89458800  0.46054900  1
  C  1126  1  0.68516100  0.87830500  0.44185700  1
  C  1127  1  0.68427100  0.89100400  0.42014600  1
  C  1128  1  0.68084000  0.87841300  0.39824500  1
  C  1129  1  0.67808600  0.85296800  0.39826100  1
  C  1130  1  0.67819300  0.84062000  0.42052300  1
  C  1131  1  0.68198900  0.85312000  0.44236600  1
  C  1132  1  0.69306000  0.89047700  0.48538100  1
  C  1133  1  0.69799500  0.91026500  0.50076200  1
  C  1134  1  0.69867400  0.93394000  0.49156300  1
  C  1135  1  0.69511800  0.93778200  0.46649500  1
  C  1136  1  0.71901500  0.92806200  0.41161900  1
  C  1137  1  0.70792500  0.94644800  0.39614500  1
  C  1138  1  0.67120300  0.94890900  0.39803100  1
  C  1139  1  0.65839900  0.93188900  0.41447100  1
  C  1140  1  0.64813200  0.96526900  0.38666000  1
  C  1141  1  0.61155900  0.96448700  0.39217400  1
  C  1142  1  0.59801100  0.94732500  0.40854200  1
  C  1143  1  0.62159900  0.93086400  0.41971000  1
  C  1144  1  0.75549700  0.92198800  0.41299800  1
  C  1145  1  0.78074000  0.93449200  0.39870300  1
  C  1146  1  0.76875500  0.95279400  0.38297700  1
  C  1147  1  0.73244600  0.95899600  0.38171100  1
  C  1160  1  0.68809600  0.91724600  0.42434700  1
  C  1169  1  0.16583500  0.29622300  0.33991100  1
  C  1170  1  0.14966400  0.28025400  0.32320100  1
  C  1171  1  0.15738200  0.25533200  0.32440100  1
  C  1172  1  0.18097700  0.24569500  0.34175200  1
  C  1173  1  0.19697300  0.26189200  0.35810600  1
  C  1174  1  0.18960100  0.28664500  0.35716100  1
  C  1177  1  0.18837000  0.22046100  0.34272200  1
  C  1178  1  0.16077300  0.20324500  0.34037400  1
  C  1179  1  0.16794900  0.17843400  0.34160100  1
  C  1180  1  0.20307100  0.16985300  0.34516500  1
  C  1181  1  0.23064900  0.18702400  0.34751600  1
  C  1182  1  0.22348700  0.21182600  0.34626100  1
  C  1191  1  0.21209900  0.14381600  0.34739700  1
  C  1194  1  0.15942600  0.32270400  0.33980000  1
  C  1197  1  0.16611500  0.17291200  0.87938800  1
  C  1198  1  0.14983200  0.18887300  0.89605800  1
  C  1199  1  0.15740300  0.21381400  0.89480800  1
  C  1200  1  0.18096600  0.22347800  0.87745400  1
  C  1201  1  0.19705800  0.20729000  0.86113100  1
  C  1202  1  0.18983500  0.18251700  0.86212500  1
  C  1205  1  0.18830000  0.24872100  0.87648300  1
  C  1206  1  0.16067400  0.26591400  0.87885800  1
  C  1207  1  0.16780000  0.29073300  0.87763400  1
  C  1208  1  0.20290800  0.29934700  0.87407200  1
  C  1209  1  0.23051700  0.28220000  0.87171300  1
  C  1210  1  0.22340200  0.25739300  0.87295700  1
  C  1219  1  0.21189100  0.32539300  0.87186200  1
  C  1222  1  0.16002300  0.14639900  0.87966300  1
  C  1225  1  0.16589100  0.00438032  0.17129200  1
  C  1226  1  0.14970400  0.02107330  0.15531100  1
  C  1227  1  0.15735200  0.01982430  0.13038100  1
  C  1228  1  0.18091000  0.00244632  0.12074900  1
  C  1229  1  0.19692200  0.98610900  0.13695600  1
  C  1230  1  0.18961500  0.98710200  0.16171700  1
  C  1233  1  0.18827900  0.00145032  0.09551200  1
  C  1234  1  0.16067100  0.00379332  0.07830400  1
  C  1235  1  0.16782900  0.00254332  0.05348900  1
  C  1236  1  0.20294300  0.99896600  0.04489700  1
  C  1237  1  0.23053200  0.99662000  0.06206200  1
  C  1238  1  0.22338800  0.99789600  0.08686400  1
  C  1247  1  0.21195000  0.99669900  0.01886000  1
  C  1250  1  0.15963700  0.00460032  0.19778800  1
  C  1253  1  0.16592800  0.46483500  0.04801700  1
  C  1254  1  0.14969600  0.44814800  0.06398400  1
  C  1255  1  0.15732300  0.44938300  0.08891700  1
  C  1256  1  0.18088900  0.46674400  0.09856800  1
  C  1257  1  0.19692300  0.48308800  0.08237500  1
  C  1258  1  0.18964200  0.48210900  0.05761100  1
  C  1261  1  0.18828200  0.46769700  0.12380100  1
  C  1262  1  0.16069800  0.46530100  0.14102300  1
  C  1263  1  0.16789000  0.46648700  0.16583500  1
  C  1264  1  0.20302100  0.47003200  0.17441100  1
  C  1265  1  0.23058600  0.47241400  0.15723600  1
  C  1266  1  0.22340600  0.47121100  0.13243400  1
  C  1275  1  0.21208700  0.47216800  0.20045000  1
  C  1278  1  0.15976000  0.46459300  0.02151100  1
  C  1281  1  0.67370900  0.79958300  0.84049400  1
  C  1282  1  0.65608700  0.78424600  0.82386100  1
  C  1283  1  0.66119200  0.75902900  0.82532400  1
  C  1284  1  0.68362800  0.74845700  0.84283900  1
  C  1285  1  0.70103600  0.76405500  0.85913800  1
  C  1286  1  0.69632300  0.78909100  0.85790300  1
  C  1289  1  0.68876800  0.72294500  0.84389300  1
  C  1290  1  0.65991000  0.70678200  0.84091500  1
  C  1291  1  0.66494300  0.68172500  0.84218500  1
  C  1292  1  0.69909600  0.67182000  0.84649700  1
  C  1293  1  0.72792700  0.68791600  0.84950400  1
  C  1294  1  0.72292600  0.71294500  0.84810000  1
  C  1303  1  0.70579000  0.64549600  0.84902800  1
  C  1306  1  0.67066400  0.82632100  0.83965200  1
  C  1309  1  0.67371100  0.66957500  0.37890300  1
  C  1310  1  0.65608700  0.68491200  0.39553700  1
  C  1311  1  0.66119800  0.71012900  0.39407300  1
  C  1312  1  0.68362000  0.72070100  0.37654900  1
  C  1313  1  0.70101800  0.70510500  0.36024400  1
  C  1314  1  0.69630400  0.68006900  0.36148100  1
  C  1317  1  0.68876000  0.74621300  0.37549600  1
  C  1318  1  0.65990500  0.76237600  0.37849000  1
  C  1319  1  0.66493000  0.78743300  0.37719000  1
  C  1320  1  0.69908000  0.79733600  0.37286600  1
  C  1321  1  0.72791100  0.78124200  0.36986500  1
  C  1322  1  0.72291500  0.75621400  0.37128000  1
  C  1331  1  0.70576800  0.82366100  0.37032200  1
  C  1334  1  0.67065900  0.64283700  0.37974200  1
  C  1337  1  0.67371900  0.50379200  0.67467300  1
  C  1338  1  0.65609500  0.52042700  0.65933700  1
  C  1339  1  0.66118700  0.51895700  0.63411800  1
  C  1340  1  0.68361200  0.50143500  0.62354400  1
  C  1341  1  0.70102600  0.48513800  0.63914000  1
  C  1342  1  0.69632600  0.48637800  0.66417800  1
  C  1345  1  0.68873300  0.50037400  0.59803000  1
  C  1346  1  0.65986500  0.50335100  0.58187700  1
  C  1347  1  0.66487400  0.50206600  0.55682000  1
  C  1348  1  0.69901800  0.49774500  0.54690400  1
  C  1349  1  0.72786000  0.49473900  0.56298800  1
  C  1350  1  0.72288000  0.49615400  0.58801800  1
  C  1359  1  0.70568600  0.49519400  0.52057700  1
  C  1362  1  0.67068800  0.50463700  0.70141300  1
  C  1365  1  0.67378900  0.96535000  0.54470000  1
  C  1366  1  0.65614900  0.94872400  0.56003800  1
  C  1367  1  0.66124000  0.95019400  0.58525700  1
  C  1368  1  0.68366300  0.96771600  0.59583000  1
  C  1369  1  0.70107400  0.98401500  0.58023300  1
  C  1370  1  0.69637900  0.98277300  0.55519600  1
  C  1373  1  0.68879200  0.96877300  0.62134400  1
  C  1374  1  0.65993100  0.96578500  0.63750200  1
  C  1375  1  0.66494900  0.96708500  0.66255900  1
  C  1376  1  0.69909800  0.97140100  0.67246600  1
  C  1377  1  0.72793500  0.97439600  0.65637500  1
  C  1378  1  0.72294700  0.97298300  0.63134700  1
  C  1387  1  0.70578200  0.97393800  0.69879300  1
  C  1390  1  0.67076300  0.96449800  0.51796200  1
  C  1393  1  0.00489743  0.44388700  0.33512300  1
  C  1394  1  0.00048044  0.44489400  0.36049300  1
  C  1395  1  0.97289300  0.45922300  0.37042700  1
  C  1396  1  0.94974000  0.47294600  0.35579500  1
  C  1397  1  0.95449300  0.47176300  0.33062900  1
  C  1398  1  0.98142700  0.45741300  0.32051300  1
  C  1401  1  0.92284400  0.48790100  0.36611400  1
  C  1402  1  0.89959500  0.47911900  0.38412300  1
  C  1403  1  0.87310200  0.49393200  0.39424600  1
  C  1404  1  0.86915600  0.51815500  0.38690100  1
  C  1405  1  0.89259700  0.52694300  0.36902900  1
  C  1406  1  0.91883200  0.51209000  0.35872900  1
  C  1415  1  0.84172200  0.53477200  0.39696700  1
  C  1418  1  0.03390440  0.42990700  0.32317500  1
  C  1421  1  0.00455643  0.02536630  0.88440200  1
  C  1422  1  0.00022443  0.02434030  0.85902500  1
  C  1423  1  0.97274900  0.00993532  0.84905900  1
  C  1424  1  0.94960900  0.99617100  0.86366600  1
  C  1425  1  0.95429300  0.99736600  0.88883600  1
  C  1426  1  0.98112500  0.01177930  0.89898300  1
  C  1429  1  0.92278000  0.98118200  0.85331600  1
  C  1430  1  0.89957100  0.98992900  0.83526800  1
  C  1431  1  0.87313900  0.97508600  0.82511700  1
  C  1432  1  0.86922800  0.95086000  0.83246300  1
  C  1433  1  0.89263500  0.94210500  0.85037200  1
  C  1434  1  0.91880800  0.95698900  0.86069900  1
  C  1443  1  0.84190300  0.93419700  0.82233900  1
  C  1446  1  0.03336640  0.03949430  0.89639000  1
  C  1449  1  0.00457243  0.00916232  0.31876100  1
  C  1450  1  0.00031243  0.98378300  0.31985500  1
  C  1451  1  0.97285800  0.97382100  0.33428200  1
  C  1452  1  0.94968700  0.98843400  0.34801500  1
  C  1453  1  0.95431200  0.01360630  0.34676200  1
  C  1454  1  0.98110700  0.02375030  0.33231500  1
  C  1457  1  0.92287100  0.97809200  0.36301700  1
  C  1458  1  0.89965700  0.96004000  0.35428200  1
  C  1459  1  0.87321900  0.94990500  0.36913500  1
  C  1460  1  0.86929500  0.95728400  0.39334900  1
  C  1461  1  0.89270100  0.97519900  0.40208900  1
  C  1462  1  0.91887700  0.98551200  0.38719500  1
  C  1471  1  0.84194300  0.94719100  0.41001200  1
  C  1474  1  0.03333440  0.02115430  0.30458700  1
  C  1477  1  0.00457443  0.45985000  0.90049600  1
  C  1478  1  0.00027244  0.48522800  0.89946300  1
  C  1479  1  0.97281100  0.49520400  0.88505300  1
  C  1480  1  0.94965500  0.48060800  0.87129500  1
  C  1481  1  0.95430900  0.45543400  0.87249700  1
  C  1482  1  0.98112500  0.44527700  0.88691600  1
  C  1485  1  0.92283600  0.49096400  0.85630500  1
  C  1486  1  0.89962700  0.50901400  0.86505500  1
  C  1487  1  0.87319000  0.51916200  0.85021400  1
  C  1488  1  0.86927600  0.51181500  0.82598900  1
  C  1489  1  0.89268300  0.49390800  0.81723200  1
  C  1490  1  0.91885900  0.48358100  0.83211400  1
  C  1499  1  0.84193500  0.52193000  0.80933500  1
  C  1502  1  0.03336340  0.44784800  0.91463400  1
  C  1505  1  0.36396400  0.02443330  0.34236200  1
  C  1506  1  0.37995100  0.02979230  0.36490800  1
  C  1507  1  0.40759300  0.01495230  0.37390400  1
  C  1508  1  0.42060400  0.99490300  0.36092700  1
  C  1509  1  0.40461800  0.98994900  0.33844100  1
  C  1510  1  0.37684900  0.00432832  0.32939900  1
  C  1513  1  0.44910500  0.98039800  0.37015300  1
  C  1514  1  0.47850600  0.99093200  0.38217900  1
  C  1515  1  0.50639600  0.97679600  0.39144900  1
  C  1516  1  0.50618800  0.95148000  0.38895400  1
  C  1517  1  0.47718600  0.94092200  0.37662100  1
  C  1518  1  0.44908900  0.95505900  0.36756800  1
  C  1527  1  0.53576900  0.93581000  0.39769700  1
  C  1530  1  0.33483100  0.04011030  0.33276000  1
  C  1533  1  0.36396200  0.44464800  0.87698400  1
  C  1534  1  0.37995800  0.43930000  0.85443900  1
  C  1535  1  0.40758600  0.45415400  0.84544500  1
  C  1536  1  0.42058100  0.47420300  0.85842600  1
  C  1537  1  0.40458300  0.47915000  0.88091300  1
  C  1538  1  0.37683400  0.46475300  0.88995300  1
  C  1541  1  0.44907400  0.48871900  0.84920500  1
  C  1542  1  0.47848200  0.47819500  0.83717600  1
  C  1543  1  0.50638800  0.49233700  0.82793600  1
  C  1544  1  0.50617200  0.51765300  0.83044200  1
  C  1545  1  0.47714600  0.52820000  0.84275800  1
  C  1546  1  0.44904500  0.51405800  0.85179300  1
  C  1555  1  0.53576100  0.53332700  0.82171900  1
  C  1558  1  0.33485600  0.42894700  0.88658900  1
  C  1561  1  0.36409800  0.46707300  0.31974400  1
  C  1562  1  0.37959000  0.48984600  0.31469300  1
  C  1563  1  0.40706400  0.49889900  0.32963900  1
  C  1564  1  0.42043500  0.48575100  0.34946500  1
  C  1565  1  0.40492700  0.46304800  0.35412300  1
  C  1566  1  0.37731400  0.45394700  0.33964600  1
  C  1569  1  0.44890200  0.49498500  0.36399300  1
  C  1570  1  0.47803700  0.50734900  0.35351200  1
  C  1571  1  0.50593800  0.51658200  0.36766200  1
  C  1572  1  0.50600700  0.51370900  0.39293900  1
  C  1573  1  0.47726100  0.50105800  0.40343800  1
  C  1574  1  0.44915700  0.49203300  0.38929100  1
  C  1583  1  0.53560600  0.52240400  0.40861700  1
  C  1586  1  0.33539800  0.45726700  0.30383000  1
  C  1589  1  0.36394000  0.00197932  0.89964300  1
  C  1590  1  0.37990100  0.97942400  0.90499200  1
  C  1591  1  0.40750500  0.97040500  0.89013300  1
  C  1592  1  0.42051200  0.98337200  0.87007600  1
  C  1593  1  0.40454200  0.00586532  0.86512400  1
  C  1594  1  0.37681700  0.01493330  0.87952700  1
  C  1597  1  0.44900300  0.97413500  0.85556800  1
  C  1598  1  0.47840200  0.96210900  0.86610400  1
  C  1599  1  0.50631600  0.95286200  0.85197200  1
  C  1600  1  0.50611600  0.95535900  0.82665600  1
  C  1601  1  0.47709600  0.96766700  0.81609500  1
  C  1602  1  0.44898700  0.97671100  0.83022900  1
  C  1611  1  0.53571600  0.94663100  0.81099200  1
  C  1614  1  0.33489300  0.01162830  0.91536600  1
  N  38  1  0.87251300  0.21338400  0.15004100  1
  N  40  1  0.00548600  0.10138800  0.16928000  1
  N  42  1  0.99518000  0.23382000  0.05550700  1
  N  44  1  0.13011100  0.20174500  0.15144000  1
  N  83  1  0.87208400  0.78878200  0.74606200  1
  N  85  1  0.00602400  0.90065700  0.72711600  1
  N  87  1  0.99506300  0.76771700  0.84022600  1
  N  89  1  0.12970900  0.79981200  0.74419900  1
  N  128  1  0.87196900  0.79908900  0.15976300  1
  N  130  1  0.00568700  0.77986000  0.04821400  1
  N  132  1  0.99520200  0.89328000  0.18092500  1
  N  134  1  0.12965500  0.79702700  0.14910000  1
  N  173  1  0.87204700  0.20264400  0.73583700  1
  N  175  1  0.00580300  0.22182600  0.84759500  1
  N  177  1  0.99498000  0.10852300  0.71480400  1
  N  179  1  0.12967700  0.20462600  0.74668500  1
  N  218  1  0.37462300  0.69662800  0.66160800  1
  N  220  1  0.51664400  0.60246200  0.66629000  1
  N  222  1  0.48826100  0.73394100  0.55279000  1
  N  224  1  0.63106300  0.71150300  0.64227400  1
  N  263  1  0.37438600  0.30519100  0.23451900  1
  N  265  1  0.51664700  0.39931400  0.22952200  1
  N  267  1  0.48817000  0.26783500  0.34301300  1
  N  269  1  0.63086900  0.29004600  0.25342300  1
  N  308  1  0.37465000  0.28725100  0.64358900  1
  N  310  1  0.51667900  0.28251400  0.54945100  1
  N  312  1  0.48827700  0.39601700  0.68092700  1
  N  314  1  0.63109000  0.30650900  0.65854800  1
  N  353  1  0.37465200  0.71451600  0.25224200  1
  N  355  1  0.51674000  0.71921100  0.34636300  1
  N  357  1  0.48825800  0.60575600  0.21485600  1
  N  359  1  0.63108500  0.69522700  0.23723700  1
  N  380  1  0.93977300  0.05562700  0.14354600  1
  N  408  1  0.94003400  0.94608000  0.75217800  1
  N  436  1  0.93989000  0.80529500  0.00259100  1
  N  464  1  0.93989000  0.19655000  0.89310900  1
  N  492  1  0.44746300  0.56055600  0.64397400  1
  N  520  1  0.44747100  0.44121800  0.25185600  1
  N  548  1  0.44748100  0.30483900  0.50755500  1
  N  576  1  0.44753500  0.69692600  0.38824800  1
  N  604  1  0.83739300  0.19831700  0.21386800  1
  N  632  1  0.83710300  0.80359800  0.68210500  1
  N  660  1  0.83722200  0.73495300  0.14515000  1
  N  688  1  0.83716600  0.26666100  0.75062300  1
  N  716  1  0.18129000  0.81619900  0.21649900  1
  N  744  1  0.18131900  0.18550500  0.67927100  1
  N  772  1  0.18064900  0.26968800  0.13299200  1
  N  800  1  0.18125800  0.73236700  0.76331800  1
  N  846  1  0.05912340  0.44707600  0.31182800  1
  N  848  1  0.19209600  0.33508000  0.33106700  1
  N  850  1  0.18179000  0.46751200  0.21729400  1
  N  852  1  0.31672100  0.43543700  0.31322700  1
  N  891  1  0.05869440  0.02247430  0.90784900  1
  N  893  1  0.19263400  0.13434900  0.88890300  1
  N  895  1  0.18167300  0.00140932  0.00201299  1
  N  897  1  0.31631900  0.03350430  0.90598600  1
  N  936  1  0.05857940  0.03278130  0.32155000  1
  N  938  1  0.19229700  0.01355230  0.21000100  1
  N  940  1  0.18181200  0.12697200  0.34271200  1
  N  942  1  0.31626500  0.03071930  0.31088700  1
  N  981  1  0.05865740  0.43633600  0.89762400  1
  N  983  1  0.19241300  0.45551800  0.00938199  1
  N  985  1  0.18159000  0.34221500  0.87659100  1
  N  987  1  0.31628700  0.43831800  0.90847200  1
  N  1026  1  0.56123300  0.93032000  0.82339500  1
  N  1028  1  0.70325400  0.83615400  0.82807700  1
  N  1030  1  0.67487100  0.96763300  0.71457700  1
  N  1032  1  0.81767300  0.94519500  0.80406100  1
  N  1071  1  0.56099600  0.53888300  0.39630600  1
  N  1073  1  0.70325700  0.63300600  0.39130900  1
  N  1075  1  0.67478000  0.50152700  0.50480000  1
  N  1077  1  0.81747900  0.52373800  0.41521000  1
  N  1116  1  0.56126000  0.52094300  0.80537600  1
  N  1118  1  0.70328900  0.51620600  0.71123800  1
  N  1120  1  0.67488700  0.62970900  0.84271400  1
  N  1122  1  0.81770000  0.54020100  0.82033500  1
  N  1161  1  0.56126200  0.94820800  0.41402900  1
  N  1163  1  0.70335000  0.95290300  0.50815000  1
  N  1165  1  0.67486800  0.83944800  0.37664300  1
  N  1167  1  0.81769500  0.92891900  0.39902400  1
  N  1188  1  0.12638300  0.28931900  0.30533300  1
  N  1216  1  0.12664400  0.17977200  0.91396500  1
  N  1244  1  0.12650000  0.03898730  0.16437800  1
  N  1272  1  0.12650000  0.43024200  0.05489600  1
  N  1300  1  0.63407300  0.79424800  0.80576100  1
  N  1328  1  0.63408100  0.67491000  0.41364300  1
  N  1356  1  0.63409100  0.53853100  0.66934200  1
  N  1384  1  0.63414500  0.93061800  0.55003500  1
  N  1412  1  0.02400340  0.43200900  0.37565500  1
  N  1440  1  0.02371340  0.03729030  0.84389200  1
  N  1468  1  0.02383240  0.96864500  0.30693700  1
  N  1496  1  0.02377640  0.50035300  0.91241000  1
  N  1524  1  0.36790000  0.04989130  0.37828600  1
  N  1552  1  0.36792900  0.41919700  0.84105800  1
  N  1580  1  0.36725900  0.50338000  0.29477900  1
  N  1608  1  0.36786800  0.96605900  0.92510500  1
  O  381  1  0.95118000  0.05138200  0.12273100  1
  O  382  1  0.90903000  0.04687900  0.14555300  1
  O  409  1  0.95146300  0.95038700  0.77297400  1
  O  410  1  0.90923500  0.95473900  0.75018900  1
  O  437  1  0.95135300  0.82608600  0.99830800  1
  O  438  1  0.90912100  0.80332100  0.99388300  1
  O  465  1  0.95133700  0.17575300  0.89739400  1
  O  466  1  0.90910700  0.19852700  0.90180300  1
  O  493  1  0.45861700  0.55553500  0.62327000  1
  O  494  1  0.41584500  0.55333500  0.64588200  1
  O  521  1  0.45863800  0.44623500  0.27255500  1
  O  522  1  0.41585300  0.44843900  0.24995500  1
  O  549  1  0.45864100  0.32554100  0.50252800  1
  O  550  1  0.41585900  0.30293500  0.50034200  1
  O  577  1  0.45869100  0.67622500  0.39327700  1
  O  578  1  0.41591200  0.69883300  0.39545700  1
  O  605  1  0.85465500  0.21214900  0.22741800  1
  O  606  1  0.82100100  0.18324400  0.22655600  1
  O  633  1  0.85448400  0.78980800  0.66857900  1
  O  634  1  0.82065700  0.81862200  0.66939400  1
  O  661  1  0.85463900  0.72147800  0.15896600  1
  O  662  1  0.82080300  0.72219200  0.13015400  1
  O  689  1  0.85456400  0.28017400  0.73683200  1
  O  690  1  0.82072900  0.27938300  0.76564500  1
  O  717  1  0.16884100  0.80999200  0.23653800  1
  O  718  1  0.20586300  0.83118200  0.21986000  1
  O  745  1  0.16886900  0.19170900  0.65923300  1
  O  746  1  0.20590800  0.17053400  0.67591100  1
  O  773  1  0.16777100  0.28951200  0.13947400  1
  O  774  1  0.20514200  0.27349200  0.11805500  1
  O  801  1  0.16876900  0.71233500  0.75712700  1
  O  802  1  0.20585400  0.72899400  0.77828100  1
  O  1189  1  0.13779000  0.28507400  0.28451800  1
  O  1190  1  0.09564040  0.28057100  0.30734000  1
  O  1217  1  0.13807300  0.18407900  0.93476100  1
  O  1218  1  0.09584540  0.18843100  0.91197600  1
  O  1245  1  0.13796300  0.05977830  0.16009500  1
  O  1246  1  0.09573140  0.03701330  0.15567000  1
  O  1273  1  0.13794700  0.40944500  0.05918100  1
  O  1274  1  0.09571740  0.43221900  0.06359000  1
  O  1301  1  0.64522700  0.78922700  0.78505700  1
  O  1302  1  0.60245500  0.78702700  0.80766900  1
  O  1329  1  0.64524800  0.67992700  0.43434200  1
  O  1330  1  0.60246300  0.68213100  0.41174200  1
  O  1357  1  0.64525100  0.55923300  0.66431500  1
  O  1358  1  0.60246900  0.53662700  0.66212900  1
  O  1385  1  0.64530100  0.90991700  0.55506400  1
  O  1386  1  0.60252200  0.93252500  0.55724400  1
  O  1413  1  0.04126540  0.44584100  0.38920500  1
  O  1414  1  0.00761143  0.41693600  0.38834300  1
  O  1441  1  0.04109440  0.02350030  0.83036600  1
  O  1442  1  0.00726743  0.05231430  0.83118100  1
  O  1469  1  0.04124940  0.95517000  0.32075300  1
  O  1470  1  0.00741343  0.95588400  0.29194100  1
  O  1497  1  0.04117440  0.51386600  0.89861900  1
  O  1498  1  0.00733943  0.51307500  0.92743200  1
  O  1525  1  0.35545100  0.04368430  0.39832500  1
  O  1526  1  0.39247300  0.06487430  0.38164700  1
  O  1553  1  0.35547900  0.42540100  0.82102000  1
  O  1554  1  0.39251800  0.40422600  0.83769800  1
  O  1581  1  0.35438100  0.52320400  0.30126100  1
  O  1582  1  0.39175200  0.50718400  0.27984200  1
  O  1609  1  0.35537900  0.94602700  0.91891400  1
  O  1610  1  0.39246400  0.96268600  0.94006800  1
