# generated using pymatgen
data_H3C5N
_symmetry_space_group_name_H-M   'P 1'
_cell_length_a   35.71260000
_cell_length_b   40.10700000
_cell_length_c   40.10700000
_cell_angle_alpha   90.00000000
_cell_angle_beta   90.00000000
_cell_angle_gamma   90.00000000
_symmetry_Int_Tables_number   1
_chemical_formula_structural   H3C5N
_chemical_formula_sum   'H288 C480 N96'
_cell_volume   57446.26872956
_cell_formula_units_Z   96
loop_
 _symmetry_equiv_pos_site_id
 _symmetry_equiv_pos_as_xyz
  1  'x, y, z'
loop_
 _atom_site_type_symbol
 _atom_site_label
 _atom_site_symmetry_multiplicity
 _atom_site_fract_x
 _atom_site_fract_y
 _atom_site_fract_z
 _atom_site_occupancy
  H  10  1  0.20366700  0.34749500  0.29186400  1
  H  11  1  0.04186200  0.34459300  0.29768400  1
  H  12  1  0.12965600  0.25632400  0.37945700  1
  H  22  1  0.20263500  0.64088000  0.69955100  1
  H  23  1  0.04083700  0.64416400  0.69239200  1
  H  24  1  0.12955500  0.72969500  0.60906300  1
  H  34  1  0.70324700  0.69692300  0.34743500  1
  H  35  1  0.54143600  0.69148500  0.34409900  1
  H  36  1  0.62933500  0.60922700  0.25632400  1
  H  46  1  0.70306200  0.28887000  0.64111500  1
  H  47  1  0.54130700  0.29654700  0.64391700  1
  H  48  1  0.62994800  0.37931300  0.72999400  1
  H  58  1  0.36627100  0.63851400  0.28877200  1
  H  59  1  0.52827300  0.64147600  0.29356500  1
  H  60  1  0.44114100  0.72791700  0.37760500  1
  H  70  1  0.36704700  0.35019100  0.70046300  1
  H  71  1  0.52899200  0.34730100  0.69390300  1
  H  72  1  0.44107100  0.26241800  0.60943200  1
  H  82  1  0.86686200  0.28881200  0.35045500  1
  H  83  1  0.02871500  0.29432000  0.34796100  1
  H  84  1  0.94156100  0.37927000  0.26254300  1
  H  94  1  0.86642200  0.70034900  0.63855100  1
  H  95  1  0.02850800  0.69434200  0.64183800  1
  H  96  1  0.94050500  0.61092800  0.72785000  1
  H  115  1  0.41285100  0.21927400  0.57960900  1
  H  116  1  0.37805700  0.18815500  0.53974300  1
  H  117  1  0.31863300  0.28035700  0.59758900  1
  H  118  1  0.23207600  0.09915900  0.48895700  1
  H  119  1  0.34970600  0.10462900  0.49986000  1
  H  120  1  0.35327600  0.04511500  0.49869100  1
  H  121  1  0.23589800  0.03970100  0.48726100  1
  H  122  1  0.19487400  0.18478000  0.45151400  1
  H  123  1  0.25116200  0.27849200  0.39356400  1
  H  124  1  0.28738900  0.24799500  0.43331100  1
  H  125  1  0.15906800  0.21484400  0.41136900  1
  H  132  1  0.32236200  0.14925700  0.53797300  1
  H  133  1  0.25403400  0.14783100  0.45265600  1
  H  134  1  0.28465300  0.23920400  0.49604000  1
  H  135  1  0.28325300  0.24855900  0.55823400  1
  H  157  1  0.41203600  0.77090000  0.40790900  1
  H  158  1  0.37687000  0.80162300  0.44801100  1
  H  159  1  0.31969100  0.70699300  0.39229500  1
  H  160  1  0.22249300  0.88296700  0.49430000  1
  H  161  1  0.34048800  0.88788200  0.48687200  1
  H  162  1  0.33716100  0.94745500  0.48638400  1
  H  163  1  0.21938200  0.94252100  0.49418800  1
  H  164  1  0.19332600  0.80039100  0.53610800  1
  H  165  1  0.25183300  0.70957600  0.59679100  1
  H  166  1  0.28770200  0.74021200  0.55685300  1
  H  167  1  0.15801100  0.77040900  0.57646000  1
  H  174  1  0.31835800  0.83877300  0.44941800  1
  H  175  1  0.24936300  0.83904800  0.53429500  1
  H  176  1  0.28680100  0.74822800  0.49415800  1
  H  177  1  0.28407000  0.73817200  0.43191900  1
  H  199  1  0.91313700  0.40938200  0.21951200  1
  H  200  1  0.87814600  0.44911600  0.18835900  1
  H  201  1  0.81917800  0.39150700  0.28093100  1
  H  202  1  0.73180900  0.49965600  0.09947100  1
  H  203  1  0.84940600  0.48841600  0.10481000  1
  H  204  1  0.85289800  0.48958000  0.04530300  1
  H  205  1  0.73556400  0.50138100  0.04001300  1
  H  206  1  0.69465700  0.53695300  0.18504300  1
  H  207  1  0.75091100  0.59540200  0.27845500  1
  H  208  1  0.78721200  0.55562300  0.24807100  1
  H  209  1  0.65877300  0.57713100  0.21499300  1
  H  216  1  0.82230000  0.45065400  0.14963000  1
  H  217  1  0.75372500  0.53580600  0.14803600  1
  H  218  1  0.78475100  0.49285900  0.23949700  1
  H  219  1  0.78362200  0.43073300  0.24913200  1
  H  241  1  0.91139800  0.58136200  0.77120400  1
  H  242  1  0.87639600  0.54120700  0.80196900  1
  H  243  1  0.81914500  0.59633700  0.70702600  1
  H  244  1  0.72224600  0.49440000  0.88317200  1
  H  245  1  0.84020500  0.50215900  0.88820800  1
  H  246  1  0.83680500  0.50258300  0.94778200  1
  H  247  1  0.71905700  0.49446200  0.94272500  1
  H  248  1  0.69344400  0.45233000  0.80069800  1
  H  249  1  0.75219900  0.39178900  0.70991300  1
  H  250  1  0.78792900  0.43182200  0.74056400  1
  H  251  1  0.65828600  0.41188800  0.77071500  1
  H  258  1  0.81787900  0.53957400  0.83902800  1
  H  259  1  0.74944400  0.45434400  0.83937700  1
  H  260  1  0.78671900  0.49452200  0.74852000  1
  H  261  1  0.78365900  0.55667300  0.73828700  1
  H  283  1  0.64923000  0.76748100  0.41608400  1
  H  284  1  0.68674300  0.79839900  0.45458900  1
  H  285  1  0.74174400  0.70579400  0.39440000  1
  H  286  1  0.83745500  0.88786700  0.49722000  1
  H  287  1  0.71939300  0.88239700  0.49286900  1
  H  288  1  0.71594300  0.94186500  0.49372100  1
  H  289  1  0.83375300  0.94735300  0.49869100  1
  H  290  1  0.87867800  0.80229800  0.53238800  1
  H  291  1  0.82851700  0.70608800  0.59026100  1
  H  292  1  0.78933200  0.73650900  0.55324200  1
  H  293  1  0.91764200  0.77219400  0.57050900  1
  H  300  1  0.74225600  0.83720700  0.45456100  1
  H  301  1  0.81986200  0.83850400  0.53329600  1
  H  302  1  0.78473700  0.74731800  0.49249200  1
  H  303  1  0.77952000  0.73715000  0.43180700  1
  H  325  1  0.65053200  0.21724500  0.57355300  1
  H  326  1  0.68893300  0.18649000  0.53549000  1
  H  327  1  0.74073800  0.28233000  0.59285100  1
  H  328  1  0.84722400  0.10481000  0.49689800  1
  H  329  1  0.72902800  0.10035000  0.49854900  1
  H  330  1  0.73203800  0.04076000  0.49895500  1
  H  331  1  0.85001100  0.04530700  0.49678600  1
  H  332  1  0.88140000  0.18861100  0.45863300  1
  H  333  1  0.82778900  0.28122000  0.39743900  1
  H  334  1  0.78927600  0.25013300  0.43449700  1
  H  335  1  0.91968100  0.21928300  0.42049700  1
  H  342  1  0.74700200  0.14949200  0.53597300  1
  H  343  1  0.82525700  0.15006300  0.45772300  1
  H  344  1  0.78373100  0.24036100  0.49546200  1
  H  345  1  0.77936000  0.25123500  0.55596500  1
  H  367  1  0.15029000  0.57342800  0.77143300  1
  H  368  1  0.18876700  0.53539500  0.80214100  1
  H  369  1  0.24034400  0.59270400  0.70618500  1
  H  370  1  0.34722500  0.49703800  0.88368600  1
  H  371  1  0.22903100  0.49847400  0.88827100  1
  H  372  1  0.23212600  0.49887000  0.94785900  1
  H  373  1  0.35009500  0.49691500  0.94318100  1
  H  374  1  0.38142000  0.45875500  0.80000900  1
  H  375  1  0.32803800  0.39743200  0.70739000  1
  H  376  1  0.28943000  0.43449700  0.73838400  1
  H  377  1  0.41979000  0.42061200  0.76943400  1
  H  384  1  0.24684900  0.53589600  0.83906500  1
  H  385  1  0.32530500  0.45781800  0.83848900  1
  H  386  1  0.28363100  0.49542200  0.74819300  1
  H  387  1  0.27904400  0.55585500  0.73723200  1
  H  409  1  0.14960200  0.41594700  0.22119700  1
  H  410  1  0.18708000  0.45439900  0.19018000  1
  H  411  1  0.24209900  0.39456400  0.28301000  1
  H  412  1  0.33767900  0.49734400  0.10068100  1
  H  413  1  0.21964300  0.49251200  0.10619400  1
  H  414  1  0.21616100  0.49335700  0.04673000  1
  H  415  1  0.33394100  0.49881800  0.04119500  1
  H  416  1  0.37879600  0.53247500  0.18640700  1
  H  417  1  0.32821700  0.59054200  0.28233500  1
  H  418  1  0.28917200  0.55345400  0.25186100  1
  H  419  1  0.41762800  0.57065600  0.21656500  1
  H  426  1  0.24263900  0.45437200  0.15140700  1
  H  427  1  0.31996800  0.53332600  0.15003800  1
  H  428  1  0.28488000  0.49259200  0.24126600  1
  H  429  1  0.27984500  0.43191900  0.25155700  1
  H  442  1  0.42767800  0.74642800  0.71573000  1
  H  443  1  0.26587300  0.74352600  0.72155000  1
  H  444  1  0.35366700  0.65525700  0.80332300  1
  H  454  1  0.42664600  0.03981290  0.12341700  1
  H  455  1  0.26484800  0.04309690  0.11625800  1
  H  456  1  0.35356600  0.12862800  0.03292920  1
  H  466  1  0.92725800  0.09585590  0.77130100  1
  H  467  1  0.76544700  0.09041790  0.76796500  1
  H  468  1  0.85334600  0.00815985  0.68019000  1
  H  478  1  0.92707300  0.68780300  0.06498120  1
  H  479  1  0.76531800  0.69548000  0.06778320  1
  H  480  1  0.85395900  0.77824600  0.15386000  1
  H  490  1  0.59028200  0.03744690  0.71263800  1
  H  491  1  0.75228400  0.04040890  0.71743100  1
  H  492  1  0.66515200  0.12685000  0.80147100  1
  H  502  1  0.59105800  0.74912400  0.12432900  1
  H  503  1  0.75300300  0.74623400  0.11776900  1
  H  504  1  0.66508200  0.66135100  0.03329820  1
  H  514  1  0.09087260  0.68774500  0.77432100  1
  H  515  1  0.25272600  0.69325300  0.77182700  1
  H  516  1  0.16557200  0.77820300  0.68640900  1
  H  526  1  0.09043260  0.09928190  0.06241720  1
  H  527  1  0.25251900  0.09327490  0.06570420  1
  H  528  1  0.16451600  0.00986085  0.15171600  1
  H  547  1  0.63686200  0.61820700  0.00347516  1
  H  548  1  0.60206800  0.58708800  0.96360900  1
  H  549  1  0.54264400  0.67929000  0.02145520  1
  H  550  1  0.45608700  0.49809200  0.91282300  1
  H  551  1  0.57371700  0.50356200  0.92372600  1
  H  552  1  0.57728700  0.44404800  0.92255700  1
  H  553  1  0.45990900  0.43863400  0.91112700  1
  H  554  1  0.41888500  0.58371300  0.87538000  1
  H  555  1  0.47517300  0.67742500  0.81743000  1
  H  556  1  0.51140000  0.64692800  0.85717700  1
  H  557  1  0.38307900  0.61377700  0.83523500  1
  H  564  1  0.54637300  0.54819000  0.96183900  1
  H  565  1  0.47804500  0.54676400  0.87652200  1
  H  566  1  0.50866400  0.63813700  0.91990600  1
  H  567  1  0.50726400  0.64749200  0.98210000  1
  H  589  1  0.63604700  0.16983300  0.83177500  1
  H  590  1  0.60088100  0.20055600  0.87187700  1
  H  591  1  0.54370200  0.10592600  0.81616100  1
  H  592  1  0.44650400  0.28190000  0.91816600  1
  H  593  1  0.56449900  0.28681500  0.91073800  1
  H  594  1  0.56117200  0.34638800  0.91025000  1
  H  595  1  0.44339300  0.34145400  0.91805400  1
  H  596  1  0.41733700  0.19932400  0.95997400  1
  H  597  1  0.47584400  0.10850900  0.02065720  1
  H  598  1  0.51171300  0.13914500  0.98071900  1
  H  599  1  0.38202200  0.16934200  0.00032616  1
  H  606  1  0.54236900  0.23770600  0.87328400  1
  H  607  1  0.47337400  0.23798100  0.95816100  1
  H  608  1  0.51081200  0.14716100  0.91802400  1
  H  609  1  0.50808100  0.13710500  0.85578500  1
  H  631  1  0.13714800  0.80831500  0.64337800  1
  H  632  1  0.10215700  0.84804900  0.61222500  1
  H  633  1  0.04318860  0.79044000  0.70479700  1
  H  634  1  0.95582000  0.89858900  0.52333700  1
  H  635  1  0.07341660  0.88734900  0.52867600  1
  H  636  1  0.07690860  0.88851300  0.46916900  1
  H  637  1  0.95957500  0.90031400  0.46387900  1
  H  638  1  0.91866800  0.93588600  0.60890900  1
  H  639  1  0.97492200  0.99433500  0.70232100  1
  H  640  1  0.01122260  0.95455600  0.67193700  1
  H  641  1  0.88278400  0.97606400  0.63885900  1
  H  648  1  0.04631060  0.84958700  0.57349600  1
  H  649  1  0.97773600  0.93473900  0.57190200  1
  H  650  1  0.00876157  0.89179200  0.66336300  1
  H  651  1  0.00763257  0.82966600  0.67299800  1
  H  673  1  0.13540900  0.98029500  0.19507000  1
  H  674  1  0.10040700  0.94014000  0.22583500  1
  H  675  1  0.04315560  0.99527000  0.13089200  1
  H  676  1  0.94625700  0.89333300  0.30703800  1
  H  677  1  0.06421560  0.90109200  0.31207400  1
  H  678  1  0.06081560  0.90151600  0.37164800  1
  H  679  1  0.94306800  0.89339500  0.36659100  1
  H  680  1  0.91745500  0.85126300  0.22456400  1
  H  681  1  0.97621000  0.79072200  0.13377900  1
  H  682  1  0.01193960  0.83075500  0.16443000  1
  H  683  1  0.88229700  0.81082100  0.19458100  1
  H  690  1  0.04188960  0.93850700  0.26289400  1
  H  691  1  0.97345500  0.85327700  0.26324300  1
  H  692  1  0.01072960  0.89345500  0.17238600  1
  H  693  1  0.00766957  0.95560600  0.16215300  1
  H  715  1  0.87324100  0.16641400  0.83995000  1
  H  716  1  0.91075400  0.19733200  0.87845500  1
  H  717  1  0.96575500  0.10472700  0.81826600  1
  H  718  1  0.06146560  0.28680000  0.92108600  1
  H  719  1  0.94340400  0.28133000  0.91673500  1
  H  720  1  0.93995400  0.34079800  0.91758700  1
  H  721  1  0.05776360  0.34628600  0.92255700  1
  H  722  1  0.10268900  0.20123100  0.95625400  1
  H  723  1  0.05252760  0.10502100  0.01412720  1
  H  724  1  0.01334260  0.13544200  0.97710800  1
  H  725  1  0.14165300  0.17112700  0.99437500  1
  H  732  1  0.96626700  0.23614000  0.87842700  1
  H  733  1  0.04387260  0.23743700  0.95716200  1
  H  734  1  0.00874757  0.14625100  0.91635800  1
  H  735  1  0.00353057  0.13608300  0.85567300  1
  H  757  1  0.87454300  0.61617800  0.99741900  1
  H  758  1  0.91294400  0.58542300  0.95935600  1
  H  759  1  0.96474900  0.68126300  0.01671720  1
  H  760  1  0.07123460  0.50374300  0.92076400  1
  H  761  1  0.95303900  0.49928300  0.92241500  1
  H  762  1  0.95604900  0.43969300  0.92282100  1
  H  763  1  0.07402160  0.44424000  0.92065200  1
  H  764  1  0.10541100  0.58754400  0.88249900  1
  H  765  1  0.05179960  0.68015300  0.82130500  1
  H  766  1  0.01328660  0.64906600  0.85836300  1
  H  767  1  0.14369200  0.61821600  0.84436300  1
  H  774  1  0.97101300  0.54842500  0.95983900  1
  H  775  1  0.04926760  0.54899600  0.88158900  1
  H  776  1  0.00774157  0.63929400  0.91932800  1
  H  777  1  0.00337057  0.65016800  0.97983100  1
  H  799  1  0.37430100  0.97236100  0.19529900  1
  H  800  1  0.41277800  0.93432800  0.22600700  1
  H  801  1  0.46435500  0.99163700  0.13005100  1
  H  802  1  0.57123600  0.89597100  0.30755200  1
  H  803  1  0.45304200  0.89740700  0.31213700  1
  H  804  1  0.45613700  0.89780300  0.37172500  1
  H  805  1  0.57410600  0.89584800  0.36704700  1
  H  806  1  0.60543100  0.85768800  0.22387500  1
  H  807  1  0.55204900  0.79636500  0.13125600  1
  H  808  1  0.51344100  0.83343000  0.16225000  1
  H  809  1  0.64380100  0.81954500  0.19330000  1
  H  816  1  0.47086000  0.93482900  0.26293100  1
  H  817  1  0.54931600  0.85675100  0.26235500  1
  H  818  1  0.50764200  0.89435500  0.17205900  1
  H  819  1  0.50305500  0.95478800  0.16109800  1
  H  841  1  0.37361300  0.81488000  0.64506300  1
  H  842  1  0.41109100  0.85333200  0.61404600  1
  H  843  1  0.46611000  0.79349700  0.70687600  1
  H  844  1  0.56169000  0.89627700  0.52454700  1
  H  845  1  0.44365400  0.89144500  0.53006000  1
  H  846  1  0.44017200  0.89229000  0.47059600  1
  H  847  1  0.55795200  0.89775100  0.46506100  1
  H  848  1  0.60280700  0.93140800  0.61027300  1
  H  849  1  0.55222800  0.98947500  0.70620100  1
  H  850  1  0.51318300  0.95238700  0.67572700  1
  H  851  1  0.64163900  0.96958900  0.64043100  1
  H  858  1  0.46665000  0.85330500  0.57527300  1
  H  859  1  0.54397900  0.93225900  0.57390400  1
  H  860  1  0.50889100  0.89152500  0.66513200  1
  H  861  1  0.50385600  0.83085200  0.67542300  1
  C  1  1  0.08712100  0.32246000  0.31912100  1
  C  3  1  0.15020000  0.33647200  0.30608600  1
  C  5  1  0.13719100  0.29399600  0.34565300  1
  C  7  1  0.14875800  0.27065300  0.36853900  1
  C  8  1  0.04902000  0.32754900  0.31453100  1
  C  9  1  0.17714800  0.35470100  0.28944800  1
  C  13  1  0.08647200  0.66564900  0.67096000  1
  C  15  1  0.14936700  0.65149400  0.68456600  1
  C  17  1  0.13693200  0.69306300  0.64391000  1
  C  19  1  0.14867900  0.71583500  0.62053700  1
  C  20  1  0.04827700  0.66103900  0.67547300  1
  C  21  1  0.17613700  0.63350500  0.70169300  1
  C  25  1  0.58670900  0.66993200  0.32209300  1
  C  27  1  0.64977900  0.68277800  0.33634300  1
  C  29  1  0.63681400  0.64316400  0.29389100  1
  C  31  1  0.64841800  0.62020300  0.27062800  1
  C  32  1  0.54859600  0.67467700  0.32701300  1
  C  33  1  0.67672700  0.69936900  0.35462100  1
  C  37  1  0.58693000  0.31781700  0.66557400  1
  C  39  1  0.64982100  0.30399700  0.65165400  1
  C  41  1  0.63737100  0.34458300  0.69327300  1
  C  43  1  0.64909000  0.36787800  0.71612100  1
  C  44  1  0.54874700  0.31347900  0.66077900  1
  C  45  1  0.67656800  0.28683000  0.63369400  1
  C  49  1  0.48302800  0.66313300  0.31558300  1
  C  51  1  0.41984600  0.64915100  0.30288700  1
  C  53  1  0.43314400  0.69101600  0.34304700  1
  C  55  1  0.42183100  0.71408400  0.36633000  1
  C  56  1  0.52113200  0.65834400  0.31059400  1
  C  57  1  0.39271800  0.63112400  0.28624400  1
  C  61  1  0.48339800  0.32592800  0.67220400  1
  C  63  1  0.42037200  0.34013500  0.68522200  1
  C  65  1  0.43321100  0.29854600  0.64472000  1
  C  67  1  0.42174500  0.27566700  0.62135700  1
  C  68  1  0.52157500  0.33034100  0.67706100  1
  C  69  1  0.39341300  0.35803000  0.70218100  1
  C  73  1  0.98347300  0.31644100  0.32641900  1
  C  75  1  0.92031900  0.30368700  0.34037700  1
  C  77  1  0.93356100  0.34414700  0.29884300  1
  C  79  1  0.92220600  0.36752400  0.27591900  1
  C  80  1  0.02156900  0.31132000  0.33106700  1
  C  81  1  0.89323600  0.28683000  0.35820700  1
  C  85  1  0.98290500  0.67280200  0.66336800  1
  C  87  1  0.91986500  0.68583500  0.64914800  1
  C  89  1  0.93271500  0.64561000  0.69106300  1
  C  91  1  0.92124900  0.62237500  0.71410400  1
  C  92  1  0.02109000  0.67750000  0.65879700  1
  C  93  1  0.89287200  0.70261800  0.63107600  1
  C  97  1  0.29051100  0.10779800  0.49460700  1
  C  98  1  0.32714200  0.21521000  0.54501700  1
  C  99  1  0.24466400  0.21343000  0.44642100  1
  C  100  1  0.31063800  0.24223900  0.56231300  1
  C  101  1  0.33132800  0.26081200  0.58566000  1
  C  102  1  0.36913300  0.25307800  0.59219800  1
  C  103  1  0.38561400  0.22579200  0.57534800  1
  C  104  1  0.36490200  0.20717400  0.55209300  1
  C  105  1  0.32540000  0.09129500  0.49756900  1
  C  106  1  0.32760400  0.05630500  0.49663600  1
  C  107  1  0.29500200  0.03687800  0.49287400  1
  C  108  1  0.26003100  0.05317000  0.48996200  1
  C  109  1  0.25786600  0.08816700  0.49074200  1
  C  110  1  0.20733100  0.20414200  0.43912300  1
  C  111  1  0.18606800  0.22207100  0.41568000  1
  C  112  1  0.20167600  0.24973200  0.39878100  1
  C  113  1  0.23911600  0.25861800  0.40548800  1
  C  114  1  0.26030300  0.24081200  0.42905900  1
  C  126  1  0.26569000  0.19604500  0.47106000  1
  C  127  1  0.26730900  0.16083500  0.47119400  1
  C  128  1  0.28839400  0.14325200  0.49530000  1
  C  129  1  0.30781000  0.16172900  0.51983700  1
  C  130  1  0.30669000  0.19695100  0.52058700  1
  C  131  1  0.28551000  0.21367500  0.49595800  1
  C  139  1  0.28181600  0.87957200  0.49065700  1
  C  140  1  0.32700500  0.77289700  0.44405200  1
  C  141  1  0.24407800  0.77333600  0.54246900  1
  C  142  1  0.31113400  0.74521600  0.42732900  1
  C  143  1  0.33195600  0.72700200  0.40380500  1
  C  144  1  0.36929800  0.73574400  0.39650200  1
  C  145  1  0.38515200  0.76367700  0.41277100  1
  C  146  1  0.36425500  0.78199300  0.43618000  1
  C  147  1  0.31473200  0.89903000  0.48795900  1
  C  148  1  0.31285000  0.93406100  0.48793700  1
  C  149  1  0.27791300  0.95049400  0.49033600  1
  C  150  1  0.24502400  0.93121300  0.49249200  1
  C  151  1  0.24694000  0.89621000  0.49278900  1
  C  152  1  0.20628300  0.78165900  0.54904800  1
  C  153  1  0.18527900  0.76373400  0.57264300  1
  C  154  1  0.20150400  0.73688800  0.59038000  1
  C  155  1  0.23932200  0.72884200  0.58426700  1
  C  156  1  0.26030800  0.74671700  0.56057800  1
  C  168  1  0.26486600  0.79099600  0.51782400  1
  C  169  1  0.26396900  0.82619200  0.51645600  1
  C  170  1  0.28367800  0.84413900  0.49172700  1
  C  171  1  0.30484500  0.82608700  0.46804000  1
  C  172  1  0.30619700  0.79084900  0.46847400  1
  C  173  1  0.28612900  0.77375500  0.49360900  1
  C  181  1  0.79023300  0.49382100  0.10806000  1
  C  182  1  0.82735200  0.44389200  0.21559400  1
  C  183  1  0.74447400  0.54226200  0.21361800  1
  C  184  1  0.81099100  0.42667100  0.24274300  1
  C  185  1  0.83178700  0.40339800  0.26131800  1
  C  186  1  0.86956400  0.39686300  0.25347900  1
  C  187  1  0.88591900  0.41365100  0.22609800  1
  C  188  1  0.86508900  0.43681900  0.20746400  1
  C  189  1  0.82508400  0.49073400  0.09151000  1
  C  190  1  0.82724600  0.49168700  0.05652000  1
  C  191  1  0.79464100  0.49558100  0.03712900  1
  C  192  1  0.75970100  0.49857800  0.05345700  1
  C  193  1  0.75757800  0.49778600  0.08845600  1
  C  194  1  0.70709700  0.54943000  0.20435800  1
  C  195  1  0.68579700  0.57291000  0.22220600  1
  C  196  1  0.70139400  0.58996100  0.24977900  1
  C  197  1  0.73886800  0.58336900  0.25864800  1
  C  198  1  0.76009600  0.55977000  0.24091200  1
  C  210  1  0.76555600  0.51761000  0.19629000  1
  C  211  1  0.76706800  0.51733300  0.16107600  1
  C  212  1  0.78818600  0.49322300  0.14352900  1
  C  213  1  0.80775400  0.46882300  0.16206400  1
  C  214  1  0.80675400  0.46820500  0.19729300  1
  C  215  1  0.78553200  0.49284100  0.21396700  1
  C  223  1  0.78156100  0.49820200  0.87984600  1
  C  224  1  0.82657300  0.54486000  0.77314400  1
  C  225  1  0.74423800  0.44607900  0.77367700  1
  C  226  1  0.81066900  0.56142500  0.74537800  1
  C  227  1  0.83140900  0.58497000  0.72711700  1
  C  228  1  0.86869300  0.59244700  0.73589600  1
  C  229  1  0.88455900  0.57636500  0.76393600  1
  C  230  1  0.86374800  0.55293600  0.78229700  1
  C  231  1  0.81444300  0.50097200  0.89933400  1
  C  232  1  0.81251700  0.50097000  0.93436200  1
  C  233  1  0.77756800  0.49844600  0.95075600  1
  C  234  1  0.74470600  0.49623200  0.93144500  1
  C  235  1  0.74666600  0.49598000  0.89644100  1
  C  236  1  0.70647000  0.43939200  0.78200300  1
  C  237  1  0.68555300  0.41574800  0.76406800  1
  C  238  1  0.70184700  0.39806200  0.73722500  1
  C  239  1  0.73965200  0.40426300  0.72919100  1
  C  240  1  0.76054600  0.42801500  0.74706900  1
  C  252  1  0.76489800  0.47081800  0.79131300  1
  C  253  1  0.76393500  0.47224600  0.82650100  1
  C  254  1  0.78347100  0.49709700  0.84442300  1
  C  255  1  0.80452000  0.52085400  0.82635600  1
  C  256  1  0.80589500  0.52038000  0.79111800  1
  C  257  1  0.78601600  0.49511000  0.77404600  1
  C  265  1  0.77880300  0.87896800  0.49487100  1
  C  266  1  0.73713400  0.77116700  0.44701900  1
  C  267  1  0.82988600  0.77266000  0.53901800  1
  C  268  1  0.75205900  0.74387500  0.42898000  1
  C  269  1  0.72987400  0.72560100  0.40645500  1
  C  270  1  0.69189600  0.73408100  0.40090200  1
  C  271  1  0.67674100  0.76097600  0.41912100  1
  C  272  1  0.69900500  0.77934700  0.44159300  1
  C  273  1  0.74385200  0.89566400  0.49373600  1
  C  274  1  0.74172400  0.93071200  0.49449400  1
  C  275  1  0.77444100  0.95030200  0.49631200  1
  C  276  1  0.80947300  0.93387900  0.49748400  1
  C  277  1  0.81156500  0.89880000  0.49685100  1
  C  278  1  0.86743600  0.78245400  0.54491900  1
  C  279  1  0.89054000  0.76458400  0.56715500  1
  C  280  1  0.87675200  0.73668900  0.58473500  1
  C  281  1  0.83934200  0.72667100  0.57872400  1
  C  282  1  0.81635000  0.74440300  0.55642400  1
  C  294  1  0.80644100  0.79027100  0.51596900  1
  C  295  1  0.80464600  0.82553600  0.51597200  1
  C  296  1  0.78082500  0.84330400  0.49401100  1
  C  297  1  0.75868700  0.82471800  0.47135100  1
  C  298  1  0.75971800  0.78946000  0.47022700  1
  C  299  1  0.78378700  0.77282700  0.49281900  1
  C  307  1  0.78782000  0.10870100  0.49764300  1
  C  308  1  0.73819300  0.21555600  0.54191300  1
  C  309  1  0.83128600  0.21602300  0.45031000  1
  C  310  1  0.75221900  0.24370500  0.55919100  1
  C  311  1  0.72956300  0.26183200  0.58142900  1
  C  312  1  0.69201300  0.25231200  0.58752000  1
  C  313  1  0.67774400  0.22449700  0.57011500  1
  C  314  1  0.70050300  0.20625900  0.54790200  1
  C  315  1  0.75478400  0.08916500  0.49863100  1
  C  316  1  0.75647800  0.05405500  0.49860800  1
  C  317  1  0.79136200  0.03736100  0.49785000  1
  C  318  1  0.82433900  0.05667200  0.49724200  1
  C  319  1  0.82261400  0.09173800  0.49705800  1
  C  320  1  0.86944900  0.20766300  0.44541100  1
  C  321  1  0.89214700  0.22587400  0.42315800  1
  C  322  1  0.87738200  0.25275100  0.40466700  1
  C  323  1  0.83935900  0.26139600  0.40969900  1
  C  324  1  0.81674200  0.24328900  0.43200200  1
  C  336  1  0.80828600  0.19795900  0.47332900  1
  C  337  1  0.80884600  0.16270600  0.47441800  1
  C  338  1  0.78626600  0.14436300  0.49691800  1
  C  339  1  0.76254600  0.16233900  0.51878700  1
  C  340  1  0.76131600  0.19763200  0.51885400  1
  C  341  1  0.78431100  0.21484100  0.49579300  1
  C  349  1  0.28781100  0.49767600  0.87985300  1
  C  350  1  0.23797000  0.54180800  0.77299900  1
  C  351  1  0.33135600  0.45038000  0.77253800  1
  C  352  1  0.25192100  0.55907900  0.74481500  1
  C  353  1  0.22921500  0.58130000  0.72671100  1
  C  354  1  0.19168000  0.58739300  0.73628500  1
  C  355  1  0.17748700  0.56999700  0.76413500  1
  C  356  1  0.20030300  0.54781400  0.78236400  1
  C  357  1  0.25480300  0.49860300  0.89942800  1
  C  358  1  0.25654600  0.49857300  0.93453700  1
  C  359  1  0.29145400  0.49786500  0.95119500  1
  C  360  1  0.32440400  0.49733200  0.93184700  1
  C  361  1  0.32263100  0.49716200  0.89678300  1
  C  362  1  0.36951600  0.44551300  0.78094800  1
  C  363  1  0.39227000  0.42325800  0.76279200  1
  C  364  1  0.37757000  0.40471200  0.73592300  1
  C  365  1  0.33956100  0.40972600  0.72721400  1
  C  366  1  0.31689100  0.43204400  0.74525800  1
  C  378  1  0.30828000  0.47336300  0.79059000  1
  C  379  1  0.30886600  0.47448500  0.82584300  1
  C  380  1  0.28621500  0.49692800  0.84418900  1
  C  381  1  0.26239100  0.51871200  0.82621700  1
  C  382  1  0.26116000  0.51878400  0.79091900  1
  C  383  1  0.28421900  0.49576600  0.77371200  1
  C  391  1  0.27904500  0.49474900  0.10960200  1
  C  392  1  0.23746000  0.44696400  0.21746500  1
  C  393  1  0.32988900  0.53916200  0.21588400  1
  C  394  1  0.25239600  0.42903200  0.24482200  1
  C  395  1  0.23023300  0.40654200  0.26315300  1
  C  396  1  0.19227000  0.40092500  0.25466600  1
  C  397  1  0.17710500  0.41903400  0.22770400  1
  C  398  1  0.19934800  0.44147400  0.20927400  1
  C  399  1  0.24409400  0.49347000  0.09292000  1
  C  400  1  0.24194300  0.49422800  0.05787200  1
  C  401  1  0.27464000  0.49618700  0.03827000  1
  C  402  1  0.30967500  0.49749600  0.05467900  1
  C  403  1  0.31178600  0.49687100  0.08975800  1
  C  404  1  0.36747000  0.54505200  0.20618700  1
  C  405  1  0.39049500  0.56732000  0.22408800  1
  C  406  1  0.37659500  0.58492700  0.25192300  1
  C  407  1  0.33912900  0.57897100  0.26181200  1
  C  408  1  0.31622200  0.55662800  0.24405300  1
  C  420  1  0.30655300  0.51603200  0.19828400  1
  C  421  1  0.30481900  0.51596400  0.16301700  1
  C  422  1  0.28107700  0.49392100  0.14527000  1
  C  423  1  0.25899600  0.47123200  0.16387700  1
  C  424  1  0.26000300  0.47016900  0.19913800  1
  C  425  1  0.28396400  0.49285900  0.21575400  1
  C  433  1  0.31113200  0.72139300  0.74298700  1
  C  435  1  0.37421100  0.73540500  0.72995200  1
  C  437  1  0.36120200  0.69292900  0.76951900  1
  C  439  1  0.37276900  0.66958600  0.79240500  1
  C  440  1  0.27303100  0.72648200  0.73839700  1
  C  441  1  0.40115900  0.75363400  0.71331400  1
  C  445  1  0.31048300  0.06458190  0.09482620  1
  C  447  1  0.37337800  0.05042690  0.10843200  1
  C  449  1  0.36094300  0.09199590  0.06777620  1
  C  451  1  0.37269000  0.11476800  0.04440320  1
  C  452  1  0.27228800  0.05997190  0.09933920  1
  C  453  1  0.40014800  0.03243790  0.12555900  1
  C  457  1  0.81072000  0.06886490  0.74595900  1
  C  459  1  0.87379000  0.08171090  0.76020900  1
  C  461  1  0.86082500  0.04209690  0.71775700  1
  C  463  1  0.87242900  0.01913590  0.69449400  1
  C  464  1  0.77260700  0.07360990  0.75087900  1
  C  465  1  0.90073800  0.09830190  0.77848700  1
  C  469  1  0.81094100  0.71675000  0.08944020  1
  C  471  1  0.87383200  0.70293000  0.07552020  1
  C  473  1  0.86138200  0.74351600  0.11713900  1
  C  475  1  0.87310100  0.76681100  0.13998700  1
  C  476  1  0.77275800  0.71241200  0.08464520  1
  C  477  1  0.90057900  0.68576300  0.05756020  1
  C  481  1  0.70703900  0.06206590  0.73944900  1
  C  483  1  0.64385700  0.04808390  0.72675300  1
  C  485  1  0.65715500  0.08994890  0.76691300  1
  C  487  1  0.64584200  0.11301700  0.79019600  1
  C  488  1  0.74514300  0.05727690  0.73446000  1
  C  489  1  0.61672900  0.03005690  0.71011000  1
  C  493  1  0.70740900  0.72486100  0.09607020  1
  C  495  1  0.64438300  0.73906800  0.10908800  1
  C  497  1  0.65722200  0.69747900  0.06858620  1
  C  499  1  0.64575600  0.67460000  0.04522320  1
  C  500  1  0.74558600  0.72927400  0.10092700  1
  C  501  1  0.61742400  0.75696300  0.12604700  1
  C  505  1  0.20748400  0.71537400  0.75028500  1
  C  507  1  0.14433000  0.70262000  0.76424300  1
  C  509  1  0.15757200  0.74308000  0.72270900  1
  C  511  1  0.14621700  0.76645700  0.69978500  1
  C  512  1  0.24558000  0.71025300  0.75493300  1
  C  513  1  0.11724700  0.68576300  0.78207300  1
  C  517  1  0.20691600  0.07173490  0.08723420  1
  C  519  1  0.14387600  0.08476790  0.07301420  1
  C  521  1  0.15672600  0.04454290  0.11492900  1
  C  523  1  0.14526000  0.02130790  0.13797000  1
  C  524  1  0.24510100  0.07643290  0.08266320  1
  C  525  1  0.11688300  0.10155100  0.05494220  1
  C  529  1  0.51452200  0.50673100  0.91847300  1
  C  530  1  0.55115300  0.61414300  0.96888300  1
  C  531  1  0.46867500  0.61236300  0.87028700  1
  C  532  1  0.53464900  0.64117200  0.98617900  1
  C  533  1  0.55533900  0.65974500  0.00952616  1
  C  534  1  0.59314400  0.65201100  0.01606420  1
  C  535  1  0.60962500  0.62472500  0.99921400  1
  C  536  1  0.58891300  0.60610700  0.97595900  1
  C  537  1  0.54941100  0.49022800  0.92143500  1
  C  538  1  0.55161500  0.45523800  0.92050200  1
  C  539  1  0.51901300  0.43581100  0.91674000  1
  C  540  1  0.48404200  0.45210300  0.91382800  1
  C  541  1  0.48187700  0.48710000  0.91460800  1
  C  542  1  0.43134200  0.60307500  0.86298900  1
  C  543  1  0.41007900  0.62100400  0.83954600  1
  C  544  1  0.42568700  0.64866500  0.82264700  1
  C  545  1  0.46312700  0.65755100  0.82935400  1
  C  546  1  0.48431400  0.63974500  0.85292500  1
  C  558  1  0.48970100  0.59497800  0.89492600  1
  C  559  1  0.49132000  0.55976800  0.89506000  1
  C  560  1  0.51240500  0.54218500  0.91916600  1
  C  561  1  0.53182100  0.56066200  0.94370300  1
  C  562  1  0.53070100  0.59588400  0.94445300  1
  C  563  1  0.50952100  0.61260800  0.91982400  1
  C  571  1  0.50582700  0.27850500  0.91452300  1
  C  572  1  0.55101600  0.17183000  0.86791800  1
  C  573  1  0.46808900  0.17226900  0.96633500  1
  C  574  1  0.53514500  0.14414900  0.85119500  1
  C  575  1  0.55596700  0.12593500  0.82767100  1
  C  576  1  0.59330900  0.13467700  0.82036800  1
  C  577  1  0.60916300  0.16261000  0.83663700  1
  C  578  1  0.58826600  0.18092600  0.86004600  1
  C  579  1  0.53874300  0.29796300  0.91182500  1
  C  580  1  0.53686100  0.33299400  0.91180300  1
  C  581  1  0.50192400  0.34942700  0.91420200  1
  C  582  1  0.46903500  0.33014600  0.91635800  1
  C  583  1  0.47095100  0.29514300  0.91665500  1
  C  584  1  0.43029400  0.18059200  0.97291400  1
  C  585  1  0.40929000  0.16266700  0.99650900  1
  C  586  1  0.42551500  0.13582100  0.01424620  1
  C  587  1  0.46333300  0.12777500  0.00813316  1
  C  588  1  0.48431900  0.14565000  0.98444400  1
  C  600  1  0.48887700  0.18992900  0.94169000  1
  C  601  1  0.48798000  0.22512500  0.94032200  1
  C  602  1  0.50768900  0.24307200  0.91559300  1
  C  603  1  0.52885600  0.22502000  0.89190600  1
  C  604  1  0.53020800  0.18978200  0.89234000  1
  C  605  1  0.51014000  0.17268800  0.91747500  1
  C  613  1  0.01424360  0.89275400  0.53192600  1
  C  614  1  0.05136260  0.84282500  0.63946000  1
  C  615  1  0.96848500  0.94119500  0.63748400  1
  C  616  1  0.03500160  0.82560400  0.66666667  1
  C  617  1  0.05579760  0.80233100  0.68518400  1
  C  618  1  0.09357460  0.79579600  0.67734500  1
  C  619  1  0.10993000  0.81258400  0.64996400  1
  C  620  1  0.08909960  0.83575200  0.63133000  1
  C  621  1  0.04909460  0.88966700  0.51537600  1
  C  622  1  0.05125660  0.89062000  0.48038600  1
  C  623  1  0.01865160  0.89451400  0.46099500  1
  C  624  1  0.98371200  0.89751100  0.47732300  1
  C  625  1  0.98158900  0.89671900  0.51232200  1
  C  626  1  0.93110800  0.94836300  0.62822400  1
  C  627  1  0.90980800  0.97184300  0.64607200  1
  C  628  1  0.92540500  0.98889400  0.67364500  1
  C  629  1  0.96287900  0.98230200  0.68251400  1
  C  630  1  0.98410700  0.95870300  0.66477800  1
  C  642  1  0.98956700  0.91654300  0.62015600  1
  C  643  1  0.99107900  0.91626600  0.58494200  1
  C  644  1  0.01219660  0.89215600  0.56739500  1
  C  645  1  0.03176460  0.86775600  0.58593000  1
  C  646  1  0.03076460  0.86713800  0.62115900  1
  C  647  1  0.00954257  0.89177400  0.63783300  1
  C  655  1  0.00557157  0.89713500  0.30371200  1
  C  656  1  0.05058360  0.94379300  0.19701000  1
  C  657  1  0.96824900  0.84501200  0.19754300  1
  C  658  1  0.03467960  0.96035800  0.16924400  1
  C  659  1  0.05541960  0.98390300  0.15098300  1
  C  660  1  0.09270360  0.99138000  0.15976200  1
  C  661  1  0.10857000  0.97529800  0.18780200  1
  C  662  1  0.08775860  0.95186900  0.20616300  1
  C  663  1  0.03845360  0.89990500  0.32320000  1
  C  664  1  0.03652760  0.89990300  0.35822800  1
  C  665  1  0.00157857  0.89737900  0.37462200  1
  C  666  1  0.96871700  0.89516500  0.35531100  1
  C  667  1  0.97067700  0.89491300  0.32030700  1
  C  668  1  0.93048100  0.83832500  0.20586900  1
  C  669  1  0.90956400  0.81468100  0.18793400  1
  C  670  1  0.92585800  0.79699500  0.16109100  1
  C  671  1  0.96366300  0.80319600  0.15305700  1
  C  672  1  0.98455700  0.82694800  0.17093500  1
  C  684  1  0.98890900  0.86975100  0.21517900  1
  C  685  1  0.98794600  0.87117900  0.25036700  1
  C  686  1  0.00748157  0.89603000  0.26828900  1
  C  687  1  0.02853060  0.91978700  0.25022200  1
  C  688  1  0.02990560  0.91931300  0.21498400  1
  C  689  1  0.01002660  0.89404300  0.19791200  1
  C  697  1  0.00281357  0.27790100  0.91873700  1
  C  698  1  0.96114500  0.17010000  0.87088500  1
  C  699  1  0.05389660  0.17159300  0.96288400  1
  C  700  1  0.97607000  0.14280800  0.85284600  1
  C  701  1  0.95388500  0.12453400  0.83032100  1
  C  702  1  0.91590700  0.13301400  0.82476800  1
  C  703  1  0.90075200  0.15990900  0.84298700  1
  C  704  1  0.92301600  0.17828000  0.86545900  1
  C  705  1  0.96786300  0.29459700  0.91760200  1
  C  706  1  0.96573500  0.32964500  0.91836000  1
  C  707  1  0.99845200  0.34923500  0.92017800  1
  C  708  1  0.03348360  0.33281200  0.92135000  1
  C  709  1  0.03557560  0.29773300  0.92071700  1
  C  710  1  0.09144660  0.18138700  0.96878500  1
  C  711  1  0.11455100  0.16351700  0.99102100  1
  C  712  1  0.10076300  0.13562200  0.00860116  1
  C  713  1  0.06335260  0.12560400  0.00259016  1
  C  714  1  0.04036060  0.14333600  0.98029000  1
  C  726  1  0.03045160  0.18920400  0.93983500  1
  C  727  1  0.02865660  0.22446900  0.93983800  1
  C  728  1  0.00483557  0.24223700  0.91787700  1
  C  729  1  0.98269800  0.22365100  0.89521700  1
  C  730  1  0.98372900  0.18839300  0.89409300  1
  C  731  1  0.00779757  0.17176000  0.91668500  1
  C  739  1  0.01183060  0.50763400  0.92150900  1
  C  740  1  0.96220400  0.61448900  0.96577900  1
  C  741  1  0.05529660  0.61495600  0.87417600  1
  C  742  1  0.97623000  0.64263800  0.98305700  1
  C  743  1  0.95357400  0.66076500  0.00529516  1
  C  744  1  0.91602400  0.65124500  0.01138620  1
  C  745  1  0.90175500  0.62343000  0.99398100  1
  C  746  1  0.92451400  0.60519200  0.97176800  1
  C  747  1  0.97879500  0.48809800  0.92249700  1
  C  748  1  0.98048900  0.45298800  0.92247400  1
  C  749  1  0.01537260  0.43629400  0.92171600  1
  C  750  1  0.04834960  0.45560500  0.92110800  1
  C  751  1  0.04662460  0.49067100  0.92092400  1
  C  752  1  0.09345960  0.60659600  0.86927700  1
  C  753  1  0.11615800  0.62480700  0.84702400  1
  C  754  1  0.10139300  0.65168400  0.82853300  1
  C  755  1  0.06336960  0.66032900  0.83356500  1
  C  756  1  0.04075260  0.64222200  0.85586800  1
  C  768  1  0.03229660  0.59689200  0.89719500  1
  C  769  1  0.03285660  0.56163900  0.89828400  1
  C  770  1  0.01027660  0.54329600  0.92078400  1
  C  771  1  0.98655700  0.56127200  0.94265300  1
  C  772  1  0.98532700  0.59656500  0.94272000  1
  C  773  1  0.00832157  0.61377400  0.91965900  1
  C  781  1  0.51182200  0.89660900  0.30371900  1
  C  782  1  0.46198100  0.94074100  0.19686500  1
  C  783  1  0.55536700  0.84931300  0.19640400  1
  C  784  1  0.47593200  0.95801200  0.16868100  1
  C  785  1  0.45322600  0.98023300  0.15057700  1
  C  786  1  0.41569100  0.98632600  0.16015100  1
  C  787  1  0.40149800  0.96893000  0.18800100  1
  C  788  1  0.42431400  0.94674700  0.20623000  1
  C  789  1  0.47881400  0.89753600  0.32329400  1
  C  790  1  0.48055700  0.89750600  0.35840300  1
  C  791  1  0.51546500  0.89679800  0.37506100  1
  C  792  1  0.54841500  0.89626500  0.35571300  1
  C  793  1  0.54664200  0.89609500  0.32064900  1
  C  794  1  0.59352700  0.84444600  0.20481400  1
  C  795  1  0.61628100  0.82219100  0.18665800  1
  C  796  1  0.60158100  0.80364500  0.15978900  1
  C  797  1  0.56357200  0.80865900  0.15108000  1
  C  798  1  0.54090200  0.83097700  0.16912400  1
  C  810  1  0.53229100  0.87229600  0.21445600  1
  C  811  1  0.53287700  0.87341800  0.24970900  1
  C  812  1  0.51022600  0.89586100  0.26805500  1
  C  813  1  0.48640200  0.91764500  0.25008300  1
  C  814  1  0.48517100  0.91771700  0.21478500  1
  C  815  1  0.50823000  0.89469900  0.19757800  1
  C  823  1  0.50305600  0.89368200  0.53346800  1
  C  824  1  0.46147100  0.84589700  0.64133100  1
  C  825  1  0.55390000  0.93809500  0.63975000  1
  C  826  1  0.47640700  0.82796500  0.66868800  1
  C  827  1  0.45424400  0.80547500  0.68701900  1
  C  828  1  0.41628100  0.79985800  0.67853200  1
  C  829  1  0.40111600  0.81796700  0.65157000  1
  C  830  1  0.42335900  0.84040700  0.63314000  1
  C  831  1  0.46810500  0.89240300  0.51678600  1
  C  832  1  0.46595400  0.89316100  0.48173800  1
  C  833  1  0.49865100  0.89512000  0.46213600  1
  C  834  1  0.53368600  0.89642900  0.47854500  1
  C  835  1  0.53579700  0.89580400  0.51362400  1
  C  836  1  0.59148100  0.94398500  0.63005300  1
  C  837  1  0.61450600  0.96625300  0.64795400  1
  C  838  1  0.60060600  0.98386000  0.67578900  1
  C  839  1  0.56314000  0.97790400  0.68567800  1
  C  840  1  0.54023300  0.95556100  0.66791900  1
  C  852  1  0.53056400  0.91496500  0.62215000  1
  C  853  1  0.52883000  0.91489700  0.58688300  1
  C  854  1  0.50508800  0.89285400  0.56913600  1
  C  855  1  0.48300700  0.87016500  0.58774300  1
  C  856  1  0.48401400  0.86910200  0.62300400  1
  C  857  1  0.50797500  0.89179200  0.63962000  1
  N  2  1  0.11266900  0.34102000  0.30191000  1
  N  4  1  0.16182400  0.31291300  0.32811700  1
  N  6  1  0.10008000  0.29914700  0.34085100  1
  N  14  1  0.11177000  0.64730800  0.68871200  1
  N  16  1  0.16131400  0.67443000  0.66200400  1
  N  18  1  0.09976100  0.68830300  0.64871700  1
  N  26  1  0.61224000  0.68709400  0.34072600  1
  N  28  1  0.66142200  0.66066000  0.31287000  1
  N  30  1  0.59969600  0.64810600  0.29888000  1
  N  38  1  0.61222900  0.30001200  0.64729600  1
  N  40  1  0.66176900  0.32645200  0.67469200  1
  N  42  1  0.60020500  0.33994300  0.68834300  1
  N  50  1  0.45735100  0.64476700  0.29829900  1
  N  52  1  0.40839100  0.67233100  0.32540400  1
  N  54  1  0.47020600  0.68604200  0.33780100  1
  N  62  1  0.45793100  0.34430100  0.68972500  1
  N  64  1  0.40864300  0.31717600  0.66260200  1
  N  66  1  0.47031300  0.30328600  0.64985600  1
  N  74  1  0.95782100  0.29902700  0.34467800  1
  N  76  1  0.90881600  0.32635900  0.31738600  1
  N  78  1  0.97063200  0.33885100  0.30371500  1
  N  86  1  0.95742900  0.69022600  0.64489400  1
  N  88  1  0.90815800  0.66338000  0.67229600  1
  N  90  1  0.96981700  0.65065900  0.68621400  1
  N  136  1  0.18334300  0.26863400  0.37707900  1
  N  137  1  0.29910700  0.00411100  0.49227800  1
  N  138  1  0.38695600  0.27237600  0.61391500  1
  N  178  1  0.18337400  0.71812100  0.61237900  1
  N  179  1  0.27404900  0.98326400  0.49089400  1
  N  180  1  0.38721900  0.71667700  0.37463800  1
  N  220  1  0.68301900  0.61169600  0.26862100  1
  N  221  1  0.79872100  0.49624700  0.00436300  1
  N  222  1  0.88745400  0.37515900  0.27273800  1
  N  262  1  0.68377200  0.37607100  0.71841000  1
  N  263  1  0.77366800  0.49781800  0.98352600  1
  N  264  1  0.88658000  0.61428100  0.71677000  1
  N  304  1  0.90010200  0.72025500  0.60502600  1
  N  305  1  0.77035000  0.98323200  0.49672300  1
  N  306  1  0.66916400  0.71732300  0.38036000  1
  N  346  1  0.90046100  0.26942900  0.38439400  1
  N  347  1  0.79515900  0.00442000  0.49750100  1
  N  348  1  0.66899600  0.26912200  0.60777400  1
  N  388  1  0.40067100  0.38440600  0.71929000  1
  N  389  1  0.29530200  0.49750400  0.98413200  1
  N  390  1  0.16861000  0.60763900  0.71949700  1
  N  430  1  0.39990400  0.60523600  0.26836400  1
  N  431  1  0.27052000  0.49661100  0.00534400  1
  N  432  1  0.16956100  0.38042000  0.27147600  1
  N  434  1  0.33668000  0.73995300  0.72577600  1
  N  436  1  0.38583500  0.71184600  0.75198300  1
  N  438  1  0.32409100  0.69808000  0.76471700  1
  N  446  1  0.33578100  0.04624090  0.11257800  1
  N  448  1  0.38532500  0.07336290  0.08587020  1
  N  450  1  0.32377200  0.08723590  0.07258320  1
  N  458  1  0.83625100  0.08602690  0.76459200  1
  N  460  1  0.88543300  0.05959290  0.73673600  1
  N  462  1  0.82370700  0.04703890  0.72274600  1
  N  470  1  0.83624000  0.69894500  0.07116220  1
  N  472  1  0.88578000  0.72538500  0.09855820  1
  N  474  1  0.82421600  0.73887600  0.11220900  1
  N  482  1  0.68136200  0.04369990  0.72216500  1
  N  484  1  0.63240200  0.07126390  0.74927000  1
  N  486  1  0.69421700  0.08497490  0.76166700  1
  N  494  1  0.68194200  0.74323400  0.11359100  1
  N  496  1  0.63265400  0.71610900  0.08646820  1
  N  498  1  0.69432400  0.70221900  0.07372220  1
  N  506  1  0.18183200  0.69796000  0.76854400  1
  N  508  1  0.13282700  0.72529200  0.74125200  1
  N  510  1  0.19464300  0.73778400  0.72758100  1
  N  518  1  0.18144000  0.08915890  0.06876020  1
  N  520  1  0.13216900  0.06231290  0.09616220  1
  N  522  1  0.19382800  0.04959190  0.11008000  1
  N  568  1  0.40735400  0.66756700  0.80094500  1
  N  569  1  0.52311800  0.40304400  0.91614400  1
  N  570  1  0.61096700  0.67130900  0.03778120  1
  N  610  1  0.40738500  0.11705400  0.03624520  1
  N  611  1  0.49806000  0.38219700  0.91476000  1
  N  612  1  0.61123000  0.11561000  0.79850400  1
  N  652  1  0.90703000  0.01062890  0.69248700  1
  N  653  1  0.02273160  0.89518000  0.42822900  1
  N  654  1  0.11146500  0.77409200  0.69660400  1
  N  694  1  0.90778300  0.77500400  0.14227600  1
  N  695  1  0.99767900  0.89675100  0.40739200  1
  N  696  1  0.11059100  0.01321390  0.14063600  1
  N  736  1  0.12411300  0.11918800  0.02889220  1
  N  737  1  0.99436100  0.38216500  0.92058900  1
  N  738  1  0.89317500  0.11625600  0.80422600  1
  N  778  1  0.12447200  0.66836200  0.80826000  1
  N  779  1  0.01916960  0.40335300  0.92136700  1
  N  780  1  0.89300700  0.66805500  0.03164020  1
  N  820  1  0.62468200  0.78333900  0.14315600  1
  N  821  1  0.51931300  0.89643700  0.40799800  1
  N  822  1  0.39262100  0.00657185  0.14336300  1
  N  862  1  0.62391500  0.00416885  0.69223000  1
  N  863  1  0.49453100  0.89554400  0.42921000  1
  N  864  1  0.39357200  0.77935300  0.69534200  1
