# generated using pymatgen
data_H4C10(NO)3
_symmetry_space_group_name_H-M   'P 1'
_cell_length_a   35.97080000
_cell_length_b   42.17195000
_cell_length_c   42.17190000
_cell_angle_alpha   60.00011766
_cell_angle_beta   90.00000000
_cell_angle_gamma   90.00000000
_symmetry_Int_Tables_number   1
_chemical_formula_structural   H4C10(NO)3
_chemical_formula_sum   'H192 C480 N144 O144'
_cell_volume   55402.33823073
_cell_formula_units_Z   48
loop_
 _symmetry_equiv_pos_site_id
 _symmetry_equiv_pos_as_xyz
  1  'x, y, z'
loop_
 _atom_site_type_symbol
 _atom_site_label
 _atom_site_symmetry_multiplicity
 _atom_site_fract_x
 _atom_site_fract_y
 _atom_site_fract_z
 _atom_site_occupancy
  H  7  1  0.86974800  0.53089700  0.18896900  1
  H  8  1  0.94779800  0.60413700  0.11348600  1
  H  15  1  0.74994200  0.45494500  0.15601300  1
  H  16  1  0.78876300  0.56036400  0.12538800  1
  H  19  1  0.83911700  0.58391400  0.05912300  1
  H  20  1  0.87791400  0.45822000  0.18891400  1
  H  27  1  0.87040200  0.13122800  0.28730800  1
  H  28  1  0.94861700  0.05586000  0.28956700  1
  H  35  1  0.75034300  0.09854700  0.39567600  1
  H  36  1  0.78937900  0.06836700  0.32059900  1
  H  39  1  0.83967000  0.00146400  0.36381900  1
  H  40  1  0.87870900  0.13040900  0.36065800  1
  H  47  1  0.87042700  0.22961300  0.58857400  1
  H  48  1  0.94876500  0.23183300  0.66161300  1
  H  55  1  0.75066100  0.33803800  0.51255400  1
  H  56  1  0.78979300  0.26360300  0.61797500  1
  H  59  1  0.84026300  0.30670000  0.64127900  1
  H  60  1  0.87881700  0.30245400  0.51574600  1
  H  67  1  0.36956100  0.39697200  0.85455000  1
  H  68  1  0.44816100  0.32398300  0.92946600  1
  H  75  1  0.25002800  0.47281400  0.88745100  1
  H  76  1  0.28907900  0.36748600  0.91790600  1
  H  79  1  0.33986700  0.34407800  0.98446600  1
  H  80  1  0.37821800  0.46963200  0.85509500  1
  H  87  1  0.37071700  0.79622200  0.75581200  1
  H  88  1  0.44866400  0.87194900  0.75323500  1
  H  95  1  0.25039400  0.82904600  0.64736000  1
  H  96  1  0.28951500  0.85916400  0.72243700  1
  H  99  1  0.33949700  0.92587400  0.67926800  1
  H  100  1  0.37867900  0.79672200  0.68260600  1
  H  107  1  0.36966600  0.69843400  0.45428600  1
  H  108  1  0.44793800  0.69590900  0.38136600  1
  H  115  1  0.24982500  0.58979300  0.53029800  1
  H  116  1  0.28860000  0.66495800  0.42496500  1
  H  119  1  0.33893300  0.62168600  0.40130700  1
  H  120  1  0.37811800  0.62512500  0.52690000  1
  H  127  1  0.00733900  0.70162400  0.85308300  1
  H  128  1  0.92735200  0.69969600  0.92693600  1
  H  135  1  0.12757800  0.59353000  0.88737300  1
  H  136  1  0.08801800  0.66781700  0.91841000  1
  H  139  1  0.03673200  0.62630500  0.98378500  1
  H  140  1  0.00011100  0.63001500  0.85305100  1
  H  147  1  0.00777300  0.39437600  0.75978400  1
  H  148  1  0.92805200  0.32234900  0.75764600  1
  H  155  1  0.12793700  0.46834800  0.65109100  1
  H  156  1  0.08874400  0.36290500  0.72547200  1
  H  159  1  0.03760000  0.33889700  0.68452400  1
  H  160  1  0.00085500  0.46602300  0.68865500  1
  H  167  1  0.00771400  0.79534300  0.45228600  1
  H  168  1  0.92797300  0.86936000  0.38014300  1
  H  175  1  0.12808700  0.83039400  0.52576000  1
  H  176  1  0.08881600  0.86074000  0.42052700  1
  H  179  1  0.03766900  0.92609900  0.39627500  1
  H  180  1  0.00075500  0.79563300  0.52365100  1
  H  187  1  0.50718900  0.22549700  0.19038700  1
  H  188  1  0.42754900  0.22806600  0.11595700  1
  H  195  1  0.62766200  0.33384800  0.15600800  1
  H  196  1  0.58853000  0.25906600  0.12545500  1
  H  199  1  0.53764100  0.30055100  0.05983900  1
  H  200  1  0.50019400  0.29720200  0.19024800  1
  H  207  1  0.50840700  0.53349000  0.28380200  1
  H  208  1  0.42818300  0.60537200  0.28543200  1
  H  215  1  0.62806200  0.45940600  0.39246000  1
  H  216  1  0.58879700  0.56484600  0.31814800  1
  H  219  1  0.53707700  0.58866700  0.35948400  1
  H  220  1  0.50080900  0.46186700  0.35530200  1
  H  227  1  0.50758100  0.13239200  0.59074400  1
  H  228  1  0.42761900  0.05854100  0.66271500  1
  H  235  1  0.62762000  0.09769500  0.51684700  1
  H  236  1  0.58821600  0.06666400  0.62221900  1
  H  239  1  0.53681600  0.00161400  0.64604100  1
  H  240  1  0.50039500  0.13266300  0.51905100  1
  H  247  1  0.00492600  0.40065700  0.85431800  1
  H  248  1  0.93065100  0.32110300  0.92880900  1
  H  255  1  0.12554300  0.47352000  0.88875800  1
  H  256  1  0.08834900  0.36761400  0.91903700  1
  H  259  1  0.03966000  0.33754800  0.98473100  1
  H  260  1  0.99831400  0.46947300  0.85637200  1
  H  267  1  0.00529000  0.79655000  0.75193300  1
  H  268  1  0.93126100  0.87091300  0.75752600  1
  H  275  1  0.12592400  0.83135600  0.64456500  1
  H  276  1  0.08879100  0.86089300  0.72076600  1
  H  279  1  0.04029100  0.92691100  0.68528000  1
  H  280  1  0.99853000  0.79930700  0.68060700  1
  H  287  1  0.00410000  0.69427800  0.45927100  1
  H  288  1  0.93018400  0.69911600  0.37957300  1
  H  295  1  0.12541500  0.58756700  0.53177100  1
  H  296  1  0.08779600  0.66322500  0.42605400  1
  H  299  1  0.03964000  0.62737300  0.39601400  1
  H  300  1  0.99794000  0.62324100  0.52816200  1
  H  307  1  0.50543800  0.52705200  0.18831000  1
  H  308  1  0.43090500  0.60687300  0.11455300  1
  H  315  1  0.62534000  0.45430200  0.15325600  1
  H  316  1  0.58818200  0.56013900  0.12332900  1
  H  319  1  0.53901800  0.59031000  0.05765000  1
  H  320  1  0.49817300  0.45836800  0.18582700  1
  H  327  1  0.50452300  0.13179500  0.29071300  1
  H  328  1  0.43096300  0.05666500  0.28591700  1
  H  335  1  0.62571000  0.09773900  0.39764500  1
  H  336  1  0.58866600  0.06775400  0.32175900  1
  H  339  1  0.54074400  0.00173000  0.35728800  1
  H  340  1  0.49826800  0.12954200  0.36167400  1
  H  347  1  0.50542900  0.23333400  0.58464300  1
  H  348  1  0.43167500  0.22795100  0.66469700  1
  H  355  1  0.62607200  0.34076500  0.51175800  1
  H  356  1  0.58916700  0.26478300  0.61766300  1
  H  359  1  0.54087700  0.30000600  0.64826300  1
  H  360  1  0.49883800  0.30425300  0.51599000  1
  H  367  1  0.87113000  0.22932800  0.18849800  1
  H  368  1  0.94737600  0.22312100  0.11600800  1
  H  375  1  0.75223100  0.33804900  0.15203600  1
  H  376  1  0.78888100  0.26141000  0.12287400  1
  H  379  1  0.83950100  0.29726500  0.05699800  1
  H  380  1  0.87912700  0.30067100  0.18516500  1
  H  387  1  0.87098900  0.53199500  0.28698900  1
  H  388  1  0.94760600  0.61037700  0.28088500  1
  H  395  1  0.75267200  0.45932900  0.39631900  1
  H  396  1  0.78912600  0.56528700  0.31987700  1
  H  399  1  0.84017800  0.59502500  0.35561600  1
  H  400  1  0.87922800  0.46376500  0.35802600  1
  H  407  1  0.87015000  0.12988100  0.58991900  1
  H  408  1  0.94657200  0.05799000  0.66883500  1
  H  415  1  0.75231600  0.09270900  0.51731800  1
  H  416  1  0.78834000  0.06372100  0.62326400  1
  H  419  1  0.83954000  0.99808800  0.65357600  1
  H  420  1  0.87885900  0.12645800  0.52208400  1
  H  427  1  0.37101500  0.69876500  0.85460500  1
  H  428  1  0.44687600  0.70501600  0.92734400  1
  H  435  1  0.25213200  0.58971300  0.89131600  1
  H  436  1  0.28834500  0.66666667  0.92022333  1
  H  439  1  0.33865500  0.63138100  0.98604200  1
  H  440  1  0.37889000  0.62754800  0.85796700  1
  H  447  1  0.37019400  0.39575400  0.75561100  1
  H  448  1  0.44706800  0.31703700  0.76292500  1
  H  455  1  0.25241600  0.46793700  0.64598300  1
  H  456  1  0.28890100  0.36212700  0.72281400  1
  H  459  1  0.34045900  0.33208800  0.68735200  1
  H  460  1  0.37897400  0.46363600  0.68424000  1
  H  467  1  0.37078100  0.79770200  0.45322900  1
  H  468  1  0.44769900  0.86946400  0.37485100  1
  H  475  1  0.25257700  0.83477700  0.52545600  1
  H  476  1  0.28920400  0.86386600  0.41965400  1
  H  479  1  0.34057300  0.92948600  0.38981300  1
  H  480  1  0.37925700  0.80107700  0.52124700  1
  H  487  1  0.93775600  0.51475300  0.27195500  1
  H  497  1  0.93743300  0.21433700  0.22070100  1
  H  507  1  0.93646000  0.16224000  0.57265900  1
  H  517  1  0.43651200  0.41307500  0.77102100  1
  H  527  1  0.43793800  0.71327200  0.82294600  1
  H  537  1  0.43688200  0.76506700  0.47071100  1
  H  547  1  0.94006300  0.76408700  0.76910800  1
  H  557  1  0.93922500  0.41590300  0.82191200  1
  H  567  1  0.93862000  0.71165300  0.47431500  1
  H  577  1  0.43912000  0.16375700  0.27384200  1
  H  587  1  0.44058500  0.51177100  0.22140700  1
  H  597  1  0.43969000  0.21639100  0.56952100  1
  H  607  1  0.65917300  0.50391600  0.09040200  1
  H  617  1  0.65891500  0.03459600  0.41092200  1
  H  627  1  0.65967100  0.35420300  0.56114400  1
  H  637  1  0.15871700  0.42353100  0.95226600  1
  H  647  1  0.15952400  0.89438500  0.63170200  1
  H  657  1  0.15839800  0.57435000  0.48171000  1
  H  667  1  0.21779900  0.57651000  0.95331200  1
  H  677  1  0.21762900  0.41916400  0.63292000  1
  H  687  1  0.21815400  0.89703300  0.47625400  1
  H  697  1  0.71786800  0.35107900  0.09006200  1
  H  707  1  0.71833800  0.50784200  0.40993100  1
  H  717  1  0.71754900  0.03081200  0.56600800  1
  H  727  1  0.92432800  0.56016100  0.04508500  1
  H  737  1  0.92508800  0.98719500  0.40176100  1
  H  747  1  0.92556500  0.34428000  0.61788400  1
  H  757  1  0.42538900  0.36762800  0.99828900  1
  H  767  1  0.42458600  0.94049100  0.64101700  1
  H  777  1  0.42415800  0.58364300  0.42507100  1
  H  787  1  0.95446000  0.36187800  0.99902000  1
  H  797  1  0.95521500  0.94141700  0.64657400  1
  H  807  1  0.95484900  0.58819900  0.42004000  1
  H  817  1  0.45344300  0.56619900  0.04398000  1
  H  827  1  0.45593600  0.98649700  0.39664100  1
  H  837  1  0.45601700  0.33890000  0.62404600  1
  H  847  1  0.85533200  0.38823500  0.12180600  1
  H  857  1  0.85526000  0.06288300  0.49749300  1
  H  867  1  0.85578000  0.43932500  0.44598300  1
  H  877  1  0.35514600  0.53988600  0.92176300  1
  H  887  1  0.35564100  0.86445500  0.54577500  1
  H  897  1  0.35525700  0.48831400  0.59605500  1
  H  907  1  0.02240400  0.49314400  0.91962500  1
  H  917  1  0.02220100  0.53667400  0.55154400  1
  H  927  1  0.02272900  0.86253400  0.59382700  1
  H  937  1  0.52229600  0.43424500  0.12274100  1
  H  947  1  0.52284900  0.39113700  0.49245500  1
  H  957  1  0.52243200  0.06628900  0.44825400  1
  C  1  1  0.86064500  0.54394900  0.13443800  1
  C  2  1  0.87978800  0.54549900  0.16270800  1
  C  3  1  0.91162500  0.56774800  0.15518000  1
  C  4  1  0.92443800  0.58828700  0.11888200  1
  C  5  1  0.90623000  0.58617600  0.09033900  1
  C  6  1  0.87382000  0.56435900  0.09807300  1
  C  9  1  0.83053900  0.51946500  0.14336700  1
  C  10  1  0.83764100  0.48182800  0.15673100  1
  C  11  1  0.80792100  0.45762600  0.16217300  1
  C  12  1  0.77145600  0.47188000  0.15391100  1
  C  13  1  0.76390600  0.50924400  0.14094600  1
  C  14  1  0.79372700  0.53296400  0.13593800  1
  C  21  1  0.86129000  0.07666700  0.32869300  1
  C  22  1  0.88049700  0.10498600  0.29897500  1
  C  23  1  0.91242800  0.09752200  0.28431200  1
  C  24  1  0.92523300  0.06122900  0.30001700  1
  C  25  1  0.90694200  0.03263000  0.33055600  1
  C  26  1  0.87448500  0.04031000  0.34462000  1
  C  29  1  0.83114500  0.08556800  0.34422900  1
  C  30  1  0.83821000  0.09858800  0.36879100  1
  C  31  1  0.80841800  0.10408000  0.38744700  1
  C  32  1  0.77192300  0.09634200  0.38097400  1
  C  33  1  0.76441600  0.08372000  0.35628500  1
  C  34  1  0.79431800  0.07858000  0.33774100  1
  C  41  1  0.86164500  0.27125600  0.60143300  1
  C  42  1  0.88063300  0.24133700  0.60305600  1
  C  43  1  0.91249900  0.22657600  0.62525400  1
  C  44  1  0.92544600  0.24237200  0.64571600  1
  C  45  1  0.90734300  0.27308200  0.64358600  1
  C  46  1  0.87494300  0.28724400  0.62176700  1
  C  49  1  0.83149000  0.28676400  0.57702200  1
  C  50  1  0.83851000  0.31097700  0.53935900  1
  C  51  1  0.80870600  0.32955200  0.51520100  1
  C  52  1  0.77224500  0.32337300  0.52947800  1
  C  53  1  0.76479200  0.29898700  0.56687300  1
  C  54  1  0.79469700  0.28049200  0.59056700  1
  C  61  1  0.36095900  0.38398300  0.90912800  1
  C  62  1  0.37985500  0.38247100  0.88072100  1
  C  63  1  0.41171700  0.36030100  0.88802300  1
  C  64  1  0.42482200  0.33983100  0.92422100  1
  C  65  1  0.40684900  0.34189800  0.95289200  1
  C  66  1  0.37442000  0.36365000  0.94539000  1
  C  69  1  0.33081300  0.40838400  0.90037100  1
  C  70  1  0.33786500  0.44600300  0.88715500  1
  C  71  1  0.30807200  0.47013600  0.88167100  1
  C  72  1  0.27159500  0.45589500  0.88965300  1
  C  73  1  0.26411400  0.41854500  0.90245900  1
  C  74  1  0.29400800  0.39486100  0.90757600  1
  C  81  1  0.36139000  0.85071800  0.71438900  1
  C  82  1  0.38070600  0.82250600  0.74409500  1
  C  83  1  0.41260700  0.83012500  0.75866500  1
  C  84  1  0.42529800  0.86646700  0.74285400  1
  C  85  1  0.40688500  0.89496500  0.71233100  1
  C  86  1  0.37443100  0.88712900  0.69839100  1
  C  89  1  0.33122400  0.84169500  0.69898700  1
  C  90  1  0.33824100  0.82860600  0.67447500  1
  C  91  1  0.30844400  0.82316900  0.65578800  1
  C  92  1  0.27198100  0.83111200  0.66214100  1
  C  93  1  0.26451700  0.84375700  0.68681600  1
  C  94  1  0.29442200  0.84879900  0.70541800  1
  C  101  1  0.36054500  0.65697100  0.44122000  1
  C  102  1  0.37975500  0.68672000  0.43975500  1
  C  103  1  0.41170300  0.70132000  0.41764400  1
  C  104  1  0.42452700  0.68551600  0.39715200  1
  C  105  1  0.40623200  0.65494500  0.39916100  1
  C  106  1  0.37375300  0.64095100  0.42088400  1
  C  109  1  0.33045100  0.64144100  0.46571600  1
  C  110  1  0.33760700  0.61690200  0.50328500  1
  C  111  1  0.30788000  0.59816600  0.52749200  1
  C  112  1  0.27135600  0.60455600  0.51335600  1
  C  113  1  0.26376400  0.62923700  0.47606100  1
  C  114  1  0.29360200  0.64784500  0.45231300  1
  C  121  1  0.01633200  0.66113600  0.90802300  1
  C  122  1  0.99709000  0.69040000  0.87923700  1
  C  123  1  0.96453100  0.70481600  0.88598200  1
  C  124  1  0.95133200  0.68965000  0.92208500  1
  C  125  1  0.97010500  0.66001300  0.95119900  1
  C  126  1  0.00278900  0.64574200  0.94420500  1
  C  129  1  0.04658700  0.64524100  0.89972000  1
  C  130  1  0.03976800  0.62126400  0.88593800  1
  C  131  1  0.06964500  0.60253600  0.88068800  1
  C  132  1  0.10596900  0.60826600  0.88948000  1
  C  133  1  0.11320800  0.63236400  0.90288400  1
  C  134  1  0.08325600  0.65104900  0.90772400  1
  C  141  1  0.01705500  0.37987000  0.71936300  1
  C  142  1  0.99765400  0.37940700  0.74855000  1
  C  143  1  0.96511500  0.35819000  0.76288600  1
  C  144  1  0.95204400  0.33724100  0.74768700  1
  C  145  1  0.97095400  0.33779100  0.71810100  1
  C  146  1  0.00365300  0.35906100  0.70394000  1
  C  149  1  0.04726000  0.40415100  0.70347800  1
  C  150  1  0.04034100  0.44192000  0.67962600  1
  C  151  1  0.07011800  0.46594400  0.66066600  1
  C  152  1  0.10643900  0.45147100  0.66604100  1
  C  153  1  0.11376700  0.41395900  0.68996200  1
  C  154  1  0.08392300  0.39037300  0.70885900  1
  C  161  1  0.01708800  0.85034100  0.43747600  1
  C  162  1  0.99764300  0.82154900  0.43718400  1
  C  163  1  0.96507200  0.82835000  0.41602800  1
  C  164  1  0.95201900  0.86448800  0.39495300  1
  C  165  1  0.97095100  0.89359200  0.39534400  1
  C  166  1  0.00367800  0.88656200  0.41655800  1
  C  169  1  0.04730700  0.84205300  0.46172300  1
  C  170  1  0.04041300  0.82848900  0.49944100  1
  C  171  1  0.07020900  0.82343400  0.52343500  1
  C  172  1  0.10654200  0.83230400  0.50893200  1
  C  173  1  0.11387500  0.84552300  0.47148400  1
  C  174  1  0.08399600  0.85012300  0.44796100  1
  C  181  1  0.51675200  0.26583500  0.13548900  1
  C  182  1  0.49715900  0.23677500  0.16415200  1
  C  183  1  0.46451500  0.22264400  0.15717300  1
  C  184  1  0.45159100  0.23789300  0.12097400  1
  C  185  1  0.47070400  0.26734300  0.09199600  1
  C  186  1  0.50345800  0.28133500  0.09921300  1
  C  189  1  0.54695200  0.28163600  0.14399800  1
  C  190  1  0.53998500  0.30579100  0.15754300  1
  C  191  1  0.56975600  0.32471700  0.16266100  1
  C  192  1  0.60613900  0.31895100  0.15403100  1
  C  193  1  0.61353400  0.29473000  0.14081100  1
  C  194  1  0.58367000  0.27589700  0.13605000  1
  C  201  1  0.51709700  0.54788900  0.32438100  1
  C  202  1  0.49806500  0.54842300  0.29498400  1
  C  203  1  0.46554700  0.56960800  0.28041800  1
  C  204  1  0.45216400  0.59050200  0.29556000  1
  C  205  1  0.47070400  0.58989400  0.32534400  1
  C  206  1  0.50336100  0.56861900  0.33976400  1
  C  209  1  0.54729100  0.52364100  0.34044200  1
  C  210  1  0.54038000  0.48588300  0.36433300  1
  C  211  1  0.57018200  0.46184500  0.38316600  1
  C  212  1  0.60651700  0.47631000  0.37765900  1
  C  213  1  0.61385300  0.51381400  0.35367400  1
  C  214  1  0.58397400  0.53739400  0.33486200  1
  C  221  1  0.51653800  0.07745000  0.60514900  1
  C  222  1  0.49732300  0.10624100  0.60565300  1
  C  223  1  0.46480700  0.09948300  0.62687700  1
  C  224  1  0.45156900  0.06339000  0.64777900  1
  C  225  1  0.47029000  0.03429200  0.64718200  1
  C  226  1  0.50296900  0.04127700  0.62591200  1
  C  229  1  0.54677900  0.08574100  0.58092567  1
  C  230  1  0.53992700  0.09959800  0.54316000  1
  C  231  1  0.56976200  0.10471300  0.51918400  1
  C  232  1  0.60606900  0.09570700  0.53370300  1
  C  233  1  0.61333900  0.08217000  0.57121600  1
  C  234  1  0.58343400  0.07744400  0.59475500  1
  C  241  1  0.01624300  0.38292800  0.90968700  1
  C  242  1  0.99592000  0.38396100  0.88067500  1
  C  243  1  0.96450600  0.36134100  0.88748000  1
  C  244  1  0.95367600  0.33728500  0.92387900  1
  C  245  1  0.97270600  0.33712300  0.95322400  1
  C  246  1  0.00463900  0.35943000  0.94614700  1
  C  249  1  0.04587300  0.40778700  0.90174100  1
  C  250  1  0.03814200  0.44521400  0.88901300  1
  C  251  1  0.06746500  0.46967900  0.88402700  1
  C  252  1  0.10421500  0.45613600  0.89151500  1
  C  253  1  0.11226000  0.41884900  0.90454800  1
  C  254  1  0.08289200  0.39484500  0.90909200  1
  C  261  1  0.01667700  0.85195700  0.71450000  1
  C  262  1  0.99630200  0.82289200  0.74237300  1
  C  263  1  0.96495400  0.82963800  0.75831900  1
  C  264  1  0.95423800  0.86602500  0.74617400  1
  C  265  1  0.97331400  0.89542700  0.71709900  1
  C  266  1  0.00519300  0.88840800  0.70176200  1
  C  269  1  0.04626800  0.84409600  0.69748500  1
  C  270  1  0.03849800  0.83172100  0.67251000  1
  C  271  1  0.06781900  0.82684700  0.65295600  1
  C  272  1  0.10459600  0.83405500  0.65923100  1
  C  273  1  0.11266900  0.84677100  0.68373600  1
  C  274  1  0.08330900  0.85122800  0.70325500  1
  C  281  1  0.01573500  0.65672200  0.44152700  1
  C  282  1  0.99519700  0.68457400  0.44258200  1
  C  283  1  0.96377400  0.70028200  0.41993400  1
  C  284  1  0.95317400  0.68791400  0.39583000  1
  C  285  1  0.97242700  0.65885500  0.39562500  1
  C  286  1  0.00436100  0.64376300  0.41796500  1
  C  289  1  0.04544500  0.64001200  0.46632600  1
  C  290  1  0.03784700  0.61518800  0.50374800  1
  C  291  1  0.06727600  0.59581100  0.52810500  1
  C  292  1  0.10400300  0.60213300  0.51448000  1
  C  293  1  0.11191300  0.62653500  0.47719300  1
  C  294  1  0.08243900  0.64586800  0.45329000  1
  C  301  1  0.51611600  0.54481400  0.13282900  1
  C  302  1  0.49617200  0.54374600  0.16205200  1
  C  303  1  0.46489400  0.56645900  0.15556200  1
  C  304  1  0.45381200  0.59059800  0.11926400  1
  C  305  1  0.47245000  0.59078100  0.08972800  1
  C  306  1  0.50426700  0.56840800  0.09648400  1
  C  309  1  0.54570100  0.51998500  0.14047600  1
  C  310  1  0.53795000  0.48258300  0.15310200  1
  C  311  1  0.56727100  0.45815700  0.15798400  1
  C  312  1  0.60402000  0.47169700  0.15048700  1
  C  313  1  0.61206900  0.50897000  0.13751600  1
  C  314  1  0.58271400  0.53294200  0.13309300  1
  C  321  1  0.51651300  0.07651900  0.32809500  1
  C  322  1  0.49579900  0.10536200  0.30035700  1
  C  323  1  0.46439300  0.09828900  0.28473700  1
  C  324  1  0.45398500  0.06179300  0.29702700  1
  C  325  1  0.47342000  0.03259200  0.32596500  1
  C  326  1  0.50533200  0.03995200  0.34099600  1
  C  329  1  0.54610100  0.08469200  0.34487100  1
  C  330  1  0.53830000  0.09720800  0.36972800  1
  C  331  1  0.56759600  0.10221300  0.38921700  1
  C  332  1  0.60439600  0.09500100  0.38299000  1
  C  333  1  0.61250800  0.08218900  0.35856900  1
  C  334  1  0.58316500  0.07760300  0.33911600  1
  C  341  1  0.51704100  0.27076000  0.60257200  1
  C  342  1  0.49655300  0.24291700  0.60144000  1
  C  343  1  0.46523300  0.22703900  0.62419500  1
  C  344  1  0.45464600  0.23923700  0.64843100  1
  C  345  1  0.47383700  0.26829100  0.64869800  1
  C  346  1  0.50570200  0.28353900  0.62629200  1
  C  349  1  0.54658500  0.28772800  0.57761500  1
  C  350  1  0.53874500  0.31253800  0.54023800  1
  C  351  1  0.56800200  0.33214000  0.51573900  1
  C  352  1  0.60479300  0.32606100  0.52917800  1
  C  353  1  0.61293300  0.30173400  0.56642400  1
  C  354  1  0.58363700  0.28216200  0.59046600  1
  C  361  1  0.86091600  0.26662600  0.13278300  1
  C  362  1  0.88053700  0.23851700  0.16234500  1
  C  363  1  0.91223200  0.22240600  0.15638900  1
  C  364  1  0.92388500  0.23425100  0.12031500  1
  C  365  1  0.90516600  0.26316500  0.09046600  1
  C  366  1  0.87332700  0.27915800  0.09665000  1
  C  369  1  0.83150900  0.28437100  0.13990300  1
  C  370  1  0.83943200  0.30928500  0.15232300  1
  C  371  1  0.81023800  0.32906500  0.15702700  1
  C  372  1  0.77346800  0.32329300  0.14934000  1
  C  373  1  0.76526300  0.29890800  0.13650400  1
  C  374  1  0.79447300  0.27899400  0.13243000  1
  C  381  1  0.86114200  0.55015100  0.32454700  1
  C  382  1  0.88056600  0.54882600  0.29627500  1
  C  383  1  0.91227700  0.57085900  0.28011300  1
  C  384  1  0.92415200  0.59491300  0.29210100  1
  C  385  1  0.90563000  0.59571000  0.32118000  1
  C  386  1  0.87377200  0.57357500  0.33721000  1
  C  389  1  0.83176500  0.52526400  0.34235800  1
  C  390  1  0.83973800  0.48789000  0.36706000  1
  C  391  1  0.81060500  0.46338700  0.38696100  1
  C  392  1  0.77384500  0.47682500  0.38148500  1
  C  393  1  0.76560200  0.51409000  0.35734100  1
  C  394  1  0.79474700  0.53812500  0.33732600  1
  C  401  1  0.86039000  0.07407900  0.60839600  1
  C  402  1  0.87968500  0.10379800  0.60695500  1
  C  403  1  0.91127000  0.09809200  0.62909100  1
  C  404  1  0.92312100  0.06211400  0.65339300  1
  C  405  1  0.90473900  0.03212400  0.65430500  1
  C  406  1  0.87301100  0.03804300  0.63206800  1
  C  409  1  0.83114700  0.08094600  0.58343300  1
  C  410  1  0.83927300  0.09340200  0.54612800  1
  C  411  1  0.81023200  0.09796600  0.52155400  1
  C  412  1  0.77342900  0.09004800  0.53487500  1
  C  413  1  0.76503400  0.07714000  0.57207200  1
  C  414  1  0.79407700  0.07325800  0.59615400  1
  C  421  1  0.36042000  0.66170000  0.91030200  1
  C  422  1  0.38026400  0.68963900  0.88079600  1
  C  423  1  0.41195300  0.70569500  0.88685300  1
  C  424  1  0.42338200  0.69393800  0.92296800  1
  C  425  1  0.40441900  0.66521000  0.95276600  1
  C  426  1  0.37258800  0.64928800  0.94648300  1
  C  429  1  0.33110400  0.64390200  0.90311900  1
  C  430  1  0.33917500  0.61894800  0.89078100  1
  C  431  1  0.31008700  0.59897300  0.88622100  1
  C  432  1  0.27327700  0.60461900  0.89391000  1
  C  433  1  0.26494000  0.62899100  0.90672600  1
  C  434  1  0.29403800  0.64908600  0.91068500  1
  C  441  1  0.36087300  0.37730700  0.71820000  1
  C  442  1  0.37993000  0.37877200  0.74657400  1
  C  443  1  0.41151400  0.35669800  0.76314100  1
  C  444  1  0.42363500  0.33245500  0.75148300  1
  C  445  1  0.40548100  0.33152400  0.72231100  1
  C  446  1  0.37373100  0.35368300  0.70587200  1
  C  449  1  0.33154100  0.40213100  0.70007000  1
  C  450  1  0.33950600  0.43947200  0.67523000  1
  C  451  1  0.31035400  0.46393200  0.65531200  1
  C  452  1  0.27360800  0.45045800  0.66079300  1
  C  453  1  0.26537600  0.41322200  0.68508100  1
  C  454  1  0.29452500  0.38925300  0.70519800  1
  C  461  1  0.36121200  0.85350200  0.43488800  1
  C  462  1  0.38048100  0.82375900  0.43636000  1
  C  463  1  0.41220600  0.82941400  0.41440000  1
  C  464  1  0.42423600  0.86537400  0.39026500  1
  C  465  1  0.40586200  0.89538200  0.38932200  1
  C  466  1  0.37400900  0.88950900  0.41139700  1
  C  469  1  0.33180500  0.84663600  0.45969000  1
  C  470  1  0.33972800  0.83415300  0.49703800  1
  C  471  1  0.31054300  0.82958500  0.52148100  1
  C  472  1  0.27379100  0.83742800  0.50800100  1
  C  473  1  0.26559800  0.85035200  0.47076300  1
  C  474  1  0.29479400  0.85432700  0.44679100  1
  C  481  1  0.92718300  0.57176200  0.18361600  1
  C  483  1  0.93617300  0.53959800  0.24841200  1
  C  484  1  0.92831900  0.57192100  0.24922000  1
  C  486  1  0.92336200  0.60512900  0.18376800  1
  C  491  1  0.92799300  0.12596000  0.25184500  1
  C  493  1  0.93649500  0.19083100  0.21929800  1
  C  494  1  0.92850900  0.19167100  0.18615800  1
  C  496  1  0.92435400  0.12610800  0.21833700  1
  C  501  1  0.92775600  0.19389200  0.62955900  1
  C  503  1  0.93544600  0.16093100  0.59752700  1
  C  504  1  0.92733100  0.12799200  0.62997300  1
  C  506  1  0.92389200  0.16049300  0.66300900  1
  C  511  1  0.42694300  0.35620500  0.85950600  1
  C  513  1  0.43510000  0.38827000  0.79462800  1
  C  514  1  0.42728500  0.35581900  0.79404600  1
  C  516  1  0.42309300  0.32275600  0.85953000  1
  C  521  1  0.42816900  0.80177500  0.79117800  1
  C  523  1  0.43653200  0.73689200  0.82412100  1
  C  524  1  0.42843900  0.73632000  0.85709300  1
  C  526  1  0.42420200  0.80182100  0.82458700  1
  C  531  1  0.42731300  0.73378100  0.41358500  1
  C  533  1  0.43592600  0.76639600  0.44583600  1
  C  534  1  0.42810800  0.79948500  0.41342800  1
  C  536  1  0.42382700  0.76726900  0.38016600  1
  C  541  1  0.94849700  0.73645500  0.85689200  1
  C  543  1  0.94085100  0.76671100  0.79193500  1
  C  544  1  0.94871600  0.80049900  0.78971700  1
  C  546  1  0.95190200  0.77072100  0.85519400  1
  C  551  1  0.94885800  0.35578300  0.79438200  1
  C  553  1  0.94049800  0.39049600  0.82446500  1
  C  554  1  0.94824000  0.35904100  0.85838500  1
  C  556  1  0.95242400  0.32326900  0.82867400  1
  C  561  1  0.94868300  0.79917500  0.41389100  1
  C  563  1  0.93990300  0.73442300  0.44884500  1
  C  564  1  0.94747800  0.73173700  0.41748600  1
  C  566  1  0.95195200  0.79719500  0.38145800  1
  C  571  1  0.44807400  0.19119700  0.18617000  1
  C  573  1  0.43982900  0.16112500  0.25102300  1
  C  574  1  0.44779900  0.12723900  0.25346600  1
  C  576  1  0.45139400  0.15690900  0.18792900  1
  C  581  1  0.44957800  0.57205000  0.24880600  1
  C  583  1  0.44149400  0.53724100  0.21872800  1
  C  584  1  0.44909700  0.56878300  0.18483500  1
  C  586  1  0.45281200  0.60457800  0.21448500  1
  C  591  1  0.44881700  0.12860200  0.62941700  1
  C  593  1  0.44091300  0.19346700  0.59488400  1
  C  594  1  0.44886400  0.19570400  0.62642800  1
  C  596  1  0.45257800  0.13022300  0.66200500  1
  C  601  1  0.72672700  0.52148300  0.13219500  1
  C  603  1  0.67097200  0.51323900  0.10628300  1
  C  604  1  0.64931500  0.52094900  0.12948800  1
  C  606  1  0.70532500  0.53217500  0.15348300  1
  C  611  1  0.72717600  0.07557100  0.35219100  1
  C  613  1  0.67096400  0.05024700  0.38580500  1
  C  614  1  0.64974400  0.07400000  0.35475400  1
  C  616  1  0.70612800  0.09733900  0.32008700  1
  C  621  1  0.72760900  0.29512900  0.57919100  1
  C  623  1  0.67157200  0.32900800  0.57071000  1
  C  624  1  0.65017400  0.29795000  0.57838100  1
  C  626  1  0.70642300  0.26303600  0.58986500  1
  C  631  1  0.22689500  0.40631200  0.91080200  1
  C  633  1  0.17077400  0.41435300  0.93637200  1
  C  634  1  0.14949000  0.40684000  0.91282100  1
  C  636  1  0.20580600  0.39585200  0.88914000  1
  C  641  1  0.22734200  0.85227600  0.69060900  1
  C  643  1  0.17143300  0.87830400  0.65680900  1
  C  644  1  0.14991800  0.85477200  0.68770600  1
  C  646  1  0.20608600  0.83061500  0.72259800  1
  C  651  1  0.22650800  0.63324300  0.46388000  1
  C  653  1  0.17038200  0.59949600  0.47222900  1
  C  654  1  0.14909000  0.63047800  0.46501800  1
  C  656  1  0.20538600  0.66528400  0.45361900  1
  C  661  1  0.15025800  0.63595700  0.91185300  1
  C  663  1  0.20603300  0.60177400  0.93769700  1
  C  664  1  0.22762300  0.63281600  0.91465400  1
  C  666  1  0.17162800  0.66800800  0.89082900  1
  C  671  1  0.15076600  0.40145400  0.69298200  1
  C  673  1  0.20607500  0.40965200  0.65825200  1
  C  674  1  0.22804900  0.40145100  0.68911200  1
  C  676  1  0.17249800  0.39025000  0.72486500  1
  C  681  1  0.15092500  0.85470700  0.45898900  1
  C  683  1  0.20646700  0.88111400  0.46692500  1
  C  684  1  0.22829600  0.85819800  0.45895300  1
  C  686  1  0.17247000  0.83371200  0.44804300  1
  C  691  1  0.65061100  0.29130400  0.13177300  1
  C  693  1  0.70620000  0.32576600  0.10565200  1
  C  694  1  0.72795900  0.29486100  0.12870700  1
  C  696  1  0.67215600  0.25937600  0.15276400  1
  C  701  1  0.65092200  0.52629900  0.35025600  1
  C  703  1  0.70663100  0.51768500  0.38461500  1
  C  704  1  0.72831500  0.52590800  0.35356700  1
  C  706  1  0.67236700  0.53754200  0.31820900  1
  C  711  1  0.65036100  0.07284700  0.58373400  1
  C  713  1  0.70586700  0.04658900  0.57551000  1
  C  714  1  0.72767400  0.06933100  0.58372900  1
  C  716  1  0.67193400  0.09361500  0.59494700  1
  C  721  1  0.95427700  0.64294400  0.98636200  1
  C  723  1  0.92953800  0.58740500  0.03486500  1
  C  724  1  0.92145500  0.60512000  0.05487200  1
  C  726  1  0.94655900  0.66107800  0.00620600  1
  C  731  1  0.95510900  0.92874600  0.37736400  1
  C  733  1  0.93025500  0.97705000  0.38466700  1
  C  734  1  0.92213400  0.99716000  0.34695800  1
  C  736  1  0.94728800  0.94866500  0.33941200  1
  C  741  1  0.95518800  0.31983500  0.70086500  1
  C  743  1  0.93065900  0.32716200  0.64513300  1
  C  744  1  0.92254500  0.28945600  0.66268000  1
  C  746  1  0.94740200  0.28187700  0.71883800  1
  C  751  1  0.45503800  0.28463700  0.05676200  1
  C  753  1  0.43049900  0.34038700  0.00839700  1
  C  754  1  0.42221700  0.32282500  0.98828700  1
  C  756  1  0.44713700  0.26666400  0.03679800  1
  C  761  1  0.45444600  0.99913600  0.66522100  1
  C  763  1  0.42980400  0.95065800  0.65808600  1
  C  764  1  0.42190600  0.93051100  0.69583800  1
  C  766  1  0.44686800  0.97917200  0.70322100  1
  C  771  1  0.45464900  0.60789700  0.34240600  1
  C  773  1  0.42945600  0.60070700  0.39785300  1
  C  774  1  0.42145800  0.63844300  0.38019500  1
  C  776  1  0.44694600  0.64587400  0.32431500  1
  C  781  1  0.92180700  0.27971100  0.05569500  1
  C  783  1  0.94887200  0.33477900  0.00872400  1
  C  784  1  0.95739100  0.31730200  0.98858700  1
  C  786  1  0.93011100  0.26171700  0.03584300  1
  C  791  1  0.92177500  0.99754400  0.67240500  1
  C  793  1  0.94944000  0.95097000  0.66406100  1
  C  794  1  0.95797500  0.93076800  0.70166900  1
  C  796  1  0.93008700  0.97763900  0.71024800  1
  C  801  1  0.92237800  0.61383300  0.33778100  1
  C  803  1  0.94921700  0.60565700  0.39296500  1
  C  804  1  0.95740400  0.64333300  0.37566600  1
  C  806  1  0.93036500  0.65173900  0.31995200  1
  C  811  1  0.42101900  0.64853300  0.98755900  1
  C  813  1  0.44799900  0.59330800  0.03435400  1
  C  814  1  0.45686500  0.61069500  0.05449900  1
  C  816  1  0.42964800  0.66643400  0.00743400  1
  C  821  1  0.42283400  0.92999000  0.37114600  1
  C  823  1  0.45022600  0.97683300  0.37923600  1
  C  824  1  0.45843800  0.99709100  0.34155800  1
  C  826  1  0.43089900  0.94991500  0.33325200  1
  C  831  1  0.42263700  0.31334800  0.70596000  1
  C  833  1  0.45023400  0.32147500  0.65109700  1
  C  834  1  0.45861900  0.28383200  0.66856200  1
  C  836  1  0.43081000  0.27547500  0.72396500  1
  C  841  1  0.81420800  0.42164800  0.16871400  1
  C  843  1  0.83968200  0.38763500  0.14234500  1
  C  844  1  0.81669200  0.35760100  0.16480200  1
  C  846  1  0.79274100  0.39074800  0.19324100  1
  C  851  1  0.81465600  0.11049300  0.41698300  1
  C  853  1  0.83994800  0.08371400  0.47749200  1
  C  854  1  0.81688800  0.10604900  0.48518500  1
  C  856  1  0.79321900  0.13495200  0.42347000  1
  C  861  1  0.81492100  0.35891300  0.47916000  1
  C  863  1  0.84028900  0.41937800  0.44523100  1
  C  864  1  0.81714900  0.42700300  0.41528200  1
  C  866  1  0.79333200  0.36538300  0.44830200  1
  C  871  1  0.31430200  0.50617500  0.87499300  1
  C  873  1  0.33960900  0.54038700  0.90120800  1
  C  874  1  0.31668400  0.57039600  0.87854200  1
  C  876  1  0.29291200  0.53704100  0.85027000  1
  C  881  1  0.31462400  0.81698800  0.62610100  1
  C  883  1  0.34001200  0.84382700  0.56564100  1
  C  884  1  0.31700100  0.82152400  0.55787400  1
  C  886  1  0.29315700  0.79261100  0.61950200  1
  C  891  1  0.31424100  0.56860500  0.56340000  1
  C  893  1  0.33984800  0.50821400  0.59697200  1
  C  894  1  0.31683500  0.50035300  0.62707200  1
  C  896  1  0.29284600  0.56195500  0.59442100  1
  C  901  1  0.06352300  0.57349800  0.87351500  1
  C  903  1  0.03800800  0.51320100  0.89914600  1
  C  904  1  0.06115800  0.50592300  0.87656400  1
  C  906  1  0.08524700  0.56741200  0.84895200  1
  C  911  1  0.06383500  0.50214400  0.63167800  1
  C  913  1  0.03803300  0.53693100  0.57155700  1
  C  914  1  0.06109600  0.56684200  0.56429300  1
  C  916  1  0.08550500  0.53280200  0.62565600  1
  C  921  1  0.06402700  0.81651700  0.55954600  1
  C  923  1  0.03845900  0.84217200  0.59415500  1
  C  924  1  0.06150800  0.81952700  0.62407300  1
  C  926  1  0.08562200  0.79185700  0.59026200  1
  C  931  1  0.56345700  0.35395700  0.16949400  1
  C  933  1  0.53780000  0.41424900  0.14337700  1
  C  934  1  0.56096300  0.42182000  0.16574000  1
  C  936  1  0.58506300  0.36030900  0.19394400  1
  C  941  1  0.56396000  0.42559600  0.41207200  1
  C  943  1  0.53842500  0.39077800  0.47235200  1
  C  944  1  0.56159400  0.36096100  0.47953000  1
  C  946  1  0.58565800  0.39497000  0.41804900  1
  C  951  1  0.56358800  0.11196000  0.48295900  1
  C  953  1  0.53813400  0.08660000  0.44806000  1
  C  954  1  0.56121600  0.10935400  0.41821000  1
  C  956  1  0.58526100  0.13670400  0.45235700  1
  N  482  1  0.93331000  0.54056500  0.21600800  1
  N  485  1  0.92249200  0.60316300  0.21693100  1
  N  488  1  0.91437900  0.63827000  0.15183700  1
  N  492  1  0.93372000  0.15837900  0.25070300  1
  N  495  1  0.92313600  0.15930400  0.18721500  1
  N  498  1  0.91573900  0.09413000  0.21708200  1
  N  502  1  0.93322700  0.19246200  0.59838700  1
  N  505  1  0.92229000  0.12923500  0.66120600  1
  N  508  1  0.91560200  0.15958900  0.69613700  1
  N  512  1  0.43266500  0.38740200  0.82701000  1
  N  515  1  0.42190600  0.32458000  0.82644200  1
  N  518  1  0.41455500  0.28963100  0.89165900  1
  N  522  1  0.43406300  0.76924900  0.79258400  1
  N  525  1  0.42289600  0.76873900  0.85584800  1
  N  528  1  0.41543700  0.83390200  0.82559800  1
  N  532  1  0.43302300  0.73497000  0.44484600  1
  N  535  1  0.42275900  0.79846800  0.38211400  1
  N  538  1  0.41526400  0.76845400  0.34695500  1
  N  542  1  0.94325700  0.73612700  0.82511800  1
  N  545  1  0.95346200  0.80101000  0.82137800  1
  N  548  1  0.95988900  0.77335300  0.88654300  1
  N  552  1  0.94317100  0.38788400  0.79390600  1
  N  555  1  0.95355400  0.32690700  0.85891500  1
  N  558  1  0.96089500  0.28931600  0.83143800  1
  N  562  1  0.94289400  0.76764600  0.44606000  1
  N  565  1  0.95285300  0.76323800  0.38527400  1
  N  568  1  0.96050400  0.82820300  0.34739400  1
  N  572  1  0.44260600  0.19165700  0.21783600  1
  N  575  1  0.45278600  0.12671300  0.22182000  1
  N  578  1  0.45965600  0.15408600  0.15673600  1
  N  582  1  0.44421000  0.53990500  0.24925700  1
  N  585  1  0.45401200  0.60098900  0.18421800  1
  N  588  1  0.46091000  0.63858800  0.21174100  1
  N  592  1  0.44326800  0.16033400  0.59737500  1
  N  595  1  0.45401500  0.16403000  0.65851400  1
  N  598  1  0.46090400  0.09889700  0.69589900  1
  N  602  1  0.70834900  0.51237400  0.10971200  1
  N  605  1  0.66753000  0.53015700  0.15198600  1
  N  608  1  0.72228600  0.54029100  0.17870900  1
  N  612  1  0.70838800  0.05325600  0.38358100  1
  N  615  1  0.66830300  0.09638100  0.32325200  1
  N  618  1  0.72354500  0.12246100  0.28698200  1
  N  622  1  0.70897800  0.32665000  0.56989200  1
  N  625  1  0.66861200  0.26632200  0.58774100  1
  N  628  1  0.72368700  0.22978200  0.59812900  1
  N  632  1  0.20818800  0.41523200  0.93326800  1
  N  635  1  0.16797800  0.39784800  0.89030400  1
  N  638  1  0.22315600  0.38795000  0.86392700  1
  N  642  1  0.20882500  0.87497800  0.65918600  1
  N  645  1  0.16827500  0.83203200  0.71923800  1
  N  648  1  0.22321100  0.80516400  0.75574500  1
  N  652  1  0.20780200  0.60181300  0.47295300  1
  N  655  1  0.16757200  0.66201800  0.45590900  1
  N  658  1  0.22271900  0.69842300  0.44564800  1
  N  662  1  0.16866400  0.60430200  0.93412100  1
  N  665  1  0.20942000  0.66457500  0.89236300  1
  N  668  1  0.15461400  0.70138800  0.86577600  1
  N  672  1  0.16875900  0.41077500  0.66114700  1
  N  675  1  0.21025400  0.39201100  0.72106500  1
  N  678  1  0.15593700  0.38192100  0.75843500  1
  N  682  1  0.16912300  0.87730200  0.46806800  1
  N  685  1  0.21024800  0.83558400  0.44979600  1
  N  688  1  0.15572900  0.80833500  0.44001100  1
  N  692  1  0.66885100  0.32303900  0.10939900  1
  N  695  1  0.70993100  0.26302300  0.15110700  1
  N  698  1  0.65535100  0.22592400  0.17793400  1
  N  702  1  0.66926800  0.51668100  0.38199700  1
  N  705  1  0.71015100  0.53559500  0.32173200  1
  N  708  1  0.65544800  0.54610700  0.28472200  1
  N  712  1  0.66852800  0.05042800  0.57439900  1
  N  715  1  0.70970600  0.09174500  0.59319200  1
  N  718  1  0.65519000  0.11876700  0.60329500  1
  N  722  1  0.94551900  0.60692800  0.00159100  1
  N  725  1  0.93074400  0.64104100  0.03985300  1
  N  728  1  0.95600100  0.69814900  0.99234500  1
  N  732  1  0.94633300  0.94383500  0.39827400  1
  N  735  1  0.93141900  0.98227100  0.32593800  1
  N  738  1  0.95668800  0.93491500  0.31609900  1
  N  742  1  0.94656300  0.34075700  0.66482700  1
  N  745  1  0.93167500  0.26842200  0.69862800  1
  N  748  1  0.95668100  0.25853800  0.75592700  1
  N  752  1  0.44645600  0.32068100  0.04166400  1
  N  755  1  0.43131900  0.28687400  0.00318000  1
  N  758  1  0.45634500  0.22955800  0.05055400  1
  N  762  1  0.44567200  0.98397500  0.64437500  1
  N  765  1  0.43119400  0.94547000  0.71679500  1
  N  768  1  0.45633700  0.99296000  0.72648500  1
  N  772  1  0.44566100  0.58703300  0.37835800  1
  N  775  1  0.43096600  0.65941100  0.34434300  1
  N  778  1  0.45660300  0.66916400  0.28731900  1
  N  782  1  0.93160400  0.31537500  0.04126500  1
  N  785  1  0.94712800  0.28170200  0.00275000  1
  N  788  1  0.91990900  0.22493900  0.04909800  1
  N  792  1  0.93187100  0.98334300  0.65105300  1
  N  795  1  0.94739500  0.94470200  0.72322800  1
  N  798  1  0.91956600  0.99065500  0.73388800  1
  N  802  1  0.93218900  0.59253900  0.37343000  1
  N  805  1  0.94712200  0.66482700  0.34007600  1
  N  808  1  0.92006400  0.67532700  0.28322100  1
  N  812  1  0.43063800  0.61283900  0.00188900  1
  N  815  1  0.44679300  0.64633400  0.04044200  1
  N  818  1  0.41967400  0.70325300  0.99426200  1
  N  822  1  0.43289000  0.94432200  0.39239700  1
  N  825  1  0.44790800  0.98301400  0.32011300  1
  N  828  1  0.42038000  0.93677300  0.30971500  1
  N  832  1  0.43274800  0.33460400  0.67039800  1
  N  835  1  0.44801600  0.26237100  0.70406300  1
  N  838  1  0.42021800  0.25192200  0.76061300  1
  N  842  1  0.83653900  0.41851200  0.14441000  1
  N  845  1  0.79431100  0.36078800  0.18904300  1
  N  848  1  0.76824200  0.39202400  0.21889700  1
  N  852  1  0.83680200  0.08595700  0.44446500  1
  N  855  1  0.79464400  0.13047500  0.45774300  1
  N  858  1  0.76887700  0.16081600  0.39652400  1
  N  862  1  0.83716800  0.38639800  0.47606500  1
  N  865  1  0.79477800  0.39959800  0.41841400  1
  N  868  1  0.76884800  0.33844300  0.44957500  1
  N  872  1  0.33651200  0.50941100  0.89931500  1
  N  875  1  0.29442200  0.56710800  0.85428900  1
  N  878  1  0.26857300  0.53564200  0.82457300  1
  N  882  1  0.33691200  0.84145500  0.59872500  1
  N  885  1  0.29466900  0.79710800  0.58522300  1
  N  888  1  0.26874500  0.76676000  0.64637300  1
  N  892  1  0.33652500  0.54125500  0.56623600  1
  N  895  1  0.29445000  0.52766300  0.62417300  1
  N  898  1  0.26837300  0.58875200  0.59347000  1
  N  902  1  0.04115200  0.54592300  0.89754900  1
  N  905  1  0.08368400  0.53343800  0.85269000  1
  N  908  1  0.10991700  0.59446100  0.82370100  1
  N  912  1  0.04127200  0.50574200  0.60421000  1
  N  915  1  0.08375400  0.56313200  0.59176000  1
  N  918  1  0.11031100  0.53093500  0.65264200  1
  N  922  1  0.04159400  0.84053600  0.56304400  1
  N  925  1  0.08399800  0.79558500  0.62050300  1
  N  928  1  0.11025300  0.76653000  0.58855100  1
  N  932  1  0.54106600  0.38139000  0.14527800  1
  N  935  1  0.58346500  0.39442800  0.18984400  1
  N  938  1  0.60971400  0.33340500  0.21939600  1
  N  942  1  0.54158600  0.42197300  0.43968100  1
  N  945  1  0.58410400  0.36467100  0.45197700  1
  N  948  1  0.61033700  0.39687100  0.39095900  1
  N  952  1  0.54119700  0.08803000  0.47928200  1
  N  955  1  0.58369800  0.13317500  0.42199900  1
  N  958  1  0.60989500  0.16189500  0.45431200  1
  O  17  1  0.85535200  0.56227500  0.07089100  1
  O  18  1  0.87340700  0.46930400  0.16246900  1
  O  37  1  0.85597000  0.01308000  0.37380200  1
  O  38  1  0.87397700  0.10399300  0.37588900  1
  O  57  1  0.85654900  0.31654700  0.61967600  1
  O  58  1  0.87425600  0.31785300  0.52677700  1
  O  77  1  0.35615800  0.36567600  0.97270000  1
  O  78  1  0.37361700  0.45856200  0.88152300  1
  O  97  1  0.35576900  0.91426200  0.66925800  1
  O  98  1  0.37399500  0.82315000  0.66738600  1
  O  117  1  0.35522700  0.61174100  0.42290900  1
  O  118  1  0.37340300  0.60989300  0.51571000  1
  O  137  1  0.02069100  0.61641200  0.97190400  1
  O  138  1  0.00411700  0.61474700  0.87959100  1
  O  157  1  0.02165600  0.36073900  0.67463400  1
  O  158  1  0.00467600  0.45474300  0.67337100  1
  O  177  1  0.02168100  0.91426800  0.41809200  1
  O  178  1  0.00474000  0.82218600  0.51224600  1
  O  197  1  0.52162600  0.31054500  0.07163900  1
  O  198  1  0.50428100  0.31234400  0.16371000  1
  O  217  1  0.52102800  0.56690500  0.36923700  1
  O  218  1  0.50471500  0.47306300  0.37065000  1
  O  237  1  0.52082800  0.01358700  0.62422900  1
  O  238  1  0.50428100  0.10611200  0.53028600  1
  O  257  1  0.02375500  0.35944700  0.97411400  1
  O  258  1  0.00221000  0.45728100  0.88299600  1
  O  277  1  0.02436100  0.91642800  0.67388200  1
  O  278  1  0.00254800  0.82591800  0.66630100  1
  O  297  1  0.02374100  0.61594400  0.41791500  1
  O  298  1  0.00194000  0.60890200  0.51589000  1
  O  317  1  0.52305500  0.56844900  0.06832600  1
  O  318  1  0.50202400  0.47050300  0.15920100  1
  O  337  1  0.52481700  0.01213600  0.36876100  1
  O  338  1  0.50232900  0.10293600  0.37595300  1
  O  357  1  0.52497800  0.31140200  0.62636000  1
  O  358  1  0.50277700  0.31859200  0.52827300  1
  O  377  1  0.85557700  0.30790200  0.06813800  1
  O  378  1  0.87538600  0.31508200  0.15851800  1
  O  397  1  0.85619700  0.57321100  0.36609900  1
  O  398  1  0.87568400  0.47588300  0.37257300  1
  O  417  1  0.85562100  0.00938700  0.63180100  1
  O  418  1  0.87526000  0.09979800  0.53424500  1
  O  437  1  0.35467100  0.62064800  0.97495300  1
  O  438  1  0.37516500  0.61322500  0.88462000  1
  O  457  1  0.35650300  0.35388300  0.67690900  1
  O  458  1  0.37543800  0.45151200  0.66969800  1
  O  477  1  0.35660000  0.91817700  0.41162300  1
  O  478  1  0.37566000  0.82773800  0.50909000  1
  O  489  1  0.93769800  0.66246900  0.14688900  1
  O  490  1  0.88274800  0.64928600  0.15458800  1
  O  499  1  0.93915600  0.08947300  0.19771400  1
  O  500  1  0.88410900  0.09659200  0.20341200  1
  O  509  1  0.93898500  0.14013200  0.72016000  1
  O  510  1  0.88389400  0.14623800  0.70749800  1
  O  519  1  0.43796600  0.26556400  0.89642200  1
  O  520  1  0.38291000  0.27834800  0.88935700  1
  O  529  1  0.43868100  0.83871600  0.84499800  1
  O  530  1  0.38370800  0.83151400  0.83905400  1
  O  539  1  0.43880000  0.78765700  0.32298400  1
  O  540  1  0.38371100  0.78225900  0.33561100  1
  O  549  1  0.93619400  0.79328000  0.88998100  1
  O  550  1  0.99142200  0.78722900  0.88398900  1
  O  559  1  0.93731600  0.26576900  0.85130700  1
  O  560  1  0.99242700  0.27830400  0.84547100  1
  O  569  1  0.93680700  0.83188400  0.32393800  1
  O  570  1  0.99193800  0.82491800  0.33638200  1
  O  579  1  0.43600600  0.13416300  0.15322900  1
  O  580  1  0.49117900  0.14008600  0.15959600  1
  O  589  1  0.43710200  0.66191100  0.19198600  1
  O  590  1  0.49234100  0.64992900  0.19759300  1
  O  599  1  0.43741000  0.09529400  0.71948200  1
  O  600  1  0.49252400  0.10163000  0.70694300  1
  O  609  1  0.71205000  0.51796500  0.21076300  1
  O  610  1  0.71301400  0.57183100  0.17175100  1
  O  619  1  0.71386200  0.15462200  0.27742300  1
  O  620  1  0.71418800  0.11592500  0.26213400  1
  O  629  1  0.71373400  0.21988400  0.57585700  1
  O  630  1  0.71442900  0.20521100  0.62967800  1
  O  639  1  0.21320900  0.41044100  0.83182100  1
  O  640  1  0.21399000  0.35648400  0.87057800  1
  O  649  1  0.21308900  0.77316200  0.76512300  1
  O  650  1  0.21399500  0.81168000  0.78064000  1
  O  659  1  0.21302200  0.70792700  0.46828600  1
  O  660  1  0.21329500  0.72326800  0.41428900  1
  O  669  1  0.16492000  0.71139100  0.83367500  1
  O  670  1  0.16376600  0.72580600  0.87300900  1
  O  679  1  0.16670200  0.40391000  0.76841000  1
  O  680  1  0.16508100  0.35020300  0.78270700  1
  O  689  1  0.16630700  0.77638000  0.46225900  1
  O  690  1  0.16486700  0.81540700  0.40840700  1
  O  699  1  0.66570900  0.21607600  0.20998100  1
  O  700  1  0.66465300  0.20149300  0.17076900  1
  O  709  1  0.66582600  0.52418800  0.27451600  1
  O  710  1  0.66462000  0.57783000  0.26049000  1
  O  719  1  0.66582600  0.15078400  0.58132400  1
  O  720  1  0.66427500  0.11134200  0.63502000  1
  O  729  1  0.92747500  0.71641800  0.98984800  1
  O  730  1  0.97848400  0.70118300  0.01345100  1
  O  739  1  0.92812400  0.93240900  0.30038100  1
  O  740  1  0.97908600  0.95611400  0.29191900  1
  O  749  1  0.92807400  0.24278300  0.77404100  1
  O  750  1  0.97915000  0.23439100  0.75895700  1
  O  759  1  0.42768800  0.21147600  0.05298900  1
  O  760  1  0.47872100  0.22648300  0.02939400  1
  O  769  1  0.42784700  0.99528500  0.74240300  1
  O  770  1  0.47893800  0.97189200  0.75050700  1
  O  779  1  0.42816900  0.68499600  0.26890500  1
  O  780  1  0.47903800  0.69325400  0.28449600  1
  O  789  1  0.94820200  0.20609300  0.05239100  1
  O  790  1  0.89813500  0.22265500  0.02704900  1
  O  799  1  0.94771500  0.99411500  0.74950300  1
  O  800  1  0.89790800  0.96835000  0.75816500  1
  O  809  1  0.94826900  0.69119200  0.26438500  1
  O  810  1  0.89802900  0.69940900  0.28110400  1
  O  819  1  0.44811300  0.72195700  0.99087600  1
  O  820  1  0.39812000  0.70560500  0.01642000  1
  O  829  1  0.44849700  0.93353000  0.29392300  1
  O  830  1  0.39848100  0.95887400  0.28557600  1
  O  839  1  0.44831600  0.23621100  0.77973200  1
  O  840  1  0.39844500  0.22771800  0.76260400  1
  O  849  1  0.74550200  0.36588100  0.23302800  1
  O  850  1  0.78703100  0.39040600  0.24475400  1
  O  859  1  0.74615800  0.17492200  0.40858000  1
  O  860  1  0.78781300  0.18666300  0.37245300  1
  O  869  1  0.74601100  0.35047900  0.42351200  1
  O  870  1  0.78763400  0.31428500  0.44780600  1
  O  879  1  0.24588500  0.56181200  0.81021200  1
  O  880  1  0.28751600  0.53707900  0.79888300  1
  O  889  1  0.24598300  0.75278600  0.63421400  1
  O  890  1  0.28761400  0.74082300  0.67041800  1
  O  899  1  0.24570700  0.57653500  0.61968400  1
  O  900  1  0.28719100  0.61287500  0.59526800  1
  O  909  1  0.13284100  0.58266500  0.80952000  1
  O  910  1  0.09131500  0.61891200  0.79783200  1
  O  919  1  0.13316300  0.55697100  0.64083600  1
  O  920  1  0.09182700  0.53217300  0.67725300  1
  O  929  1  0.13309900  0.75229400  0.61459200  1
  O  930  1  0.09159600  0.74070700  0.58993400  1
  O  939  1  0.63253800  0.34541400  0.23345900  1
  O  940  1  0.59107900  0.30906600  0.24532700  1
  O  949  1  0.63324100  0.37088400  0.40267300  1
  O  950  1  0.59174100  0.39557800  0.36643900  1
  O  959  1  0.63277100  0.17626100  0.42830800  1
  O  960  1  0.59125200  0.18764100  0.45310800  1
