# generated using pymatgen
data_H36C47N4
_symmetry_space_group_name_H-M   'P 1'
_cell_length_a   40.54230000
_cell_length_b   72.29450000
_cell_length_c   72.29450000
_cell_angle_alpha   90.00000000
_cell_angle_beta   90.00000000
_cell_angle_gamma   90.00000000
_symmetry_Int_Tables_number   1
_chemical_formula_structural   H36C47N4
_chemical_formula_sum   'H1152 C1504 N128'
_cell_volume   211894.11730221
_cell_formula_units_Z   32
loop_
 _symmetry_equiv_pos_site_id
 _symmetry_equiv_pos_as_xyz
  1  'x, y, z'
loop_
 _atom_site_type_symbol
 _atom_site_label
 _atom_site_symmetry_multiplicity
 _atom_site_fract_x
 _atom_site_fract_y
 _atom_site_fract_z
 _atom_site_occupancy
  H  25  1  0.16945500  0.18571000  0.32087400  1
  H  26  1  0.13565200  0.16751100  0.30071700  1
  H  27  1  0.10494200  0.10669800  0.27250600  1
  H  28  1  0.11197100  0.07401400  0.26969100  1
  H  29  1  0.19017500  0.07577100  0.30768300  1
  H  30  1  0.21794000  0.13777800  0.33897500  1
  H  31  1  0.21471400  0.12753500  0.28562200  1
  H  32  1  0.31456500  0.11545500  0.29495900  1
  H  33  1  0.30015300  0.09854400  0.32222700  1
  H  34  1  0.12995000  0.10928100  0.33399200  1
  H  35  1  0.21512300  0.07766400  0.36859500  1
  H  36  1  0.15901300  0.07616500  0.37880500  1
  H  39  1  0.11067500  0.13287200  0.29787300  1
  H  40  1  0.14026200  0.13732700  0.28043800  1
  H  42  1  0.24859900  0.07939500  0.33700000  1
  H  43  1  0.25605600  0.10019400  0.34920200  1
  H  72  1  0.16947100  0.81874000  0.82379600  1
  H  73  1  0.13568100  0.83694200  0.84395700  1
  H  74  1  0.10499000  0.89775300  0.87217500  1
  H  75  1  0.11202100  0.93043800  0.87499100  1
  H  76  1  0.19021800  0.92867800  0.83699200  1
  H  77  1  0.21796900  0.86667200  0.80569700  1
  H  78  1  0.21477300  0.87692500  0.85905900  1
  H  79  1  0.31461900  0.88900300  0.84970800  1
  H  80  1  0.30019700  0.90590800  0.82243900  1
  H  81  1  0.12998900  0.89517400  0.81069400  1
  H  82  1  0.21515800  0.92677500  0.77607500  1
  H  83  1  0.15904600  0.92827600  0.76587100  1
  H  86  1  0.11071800  0.87158300  0.84680500  1
  H  87  1  0.14030200  0.86712500  0.86424200  1
  H  89  1  0.24864400  0.92505200  0.80766500  1
  H  90  1  0.25609000  0.90424600  0.79547000  1
  H  119  1  0.16945900  0.75369100  0.25582700  1
  H  120  1  0.13563600  0.77383800  0.23762700  1
  H  121  1  0.10492600  0.80205500  0.17681600  1
  H  122  1  0.11195400  0.80487200  0.14413300  1
  H  123  1  0.19016800  0.76688600  0.14588900  1
  H  124  1  0.21795200  0.73559700  0.20789000  1
  H  125  1  0.21471400  0.78894600  0.19765000  1
  H  126  1  0.31456000  0.77962400  0.18554100  1
  H  127  1  0.30014100  0.75235600  0.16862800  1
  H  128  1  0.12994900  0.74058200  0.17939700  1
  H  129  1  0.21510900  0.70597800  0.14777100  1
  H  130  1  0.15899700  0.69577100  0.14627400  1
  H  133  1  0.11066500  0.77668300  0.20298800  1
  H  134  1  0.14024300  0.79412400  0.20744600  1
  H  136  1  0.24858500  0.73757800  0.14949800  1
  H  137  1  0.25604600  0.72537000  0.17029400  1
  H  166  1  0.16945700  0.25078800  0.88887300  1
  H  167  1  0.13567700  0.23061800  0.90707100  1
  H  168  1  0.10500600  0.20238300  0.96788200  1
  H  169  1  0.11203800  0.19956900  0.00056400  1
  H  170  1  0.19025300  0.23755500  0.99880300  1
  H  171  1  0.21798000  0.26886700  0.93680300  1
  H  172  1  0.21480400  0.21550300  0.94704100  1
  H  173  1  0.31464900  0.22485100  0.95913300  1
  H  174  1  0.30021500  0.25211600  0.97604600  1
  H  175  1  0.13000700  0.26385300  0.96530100  1
  H  176  1  0.21516600  0.29848100  0.99690100  1
  H  177  1  0.15905100  0.30868100  0.99840600  1
  H  180  1  0.11073800  0.22775300  0.94171300  1
  H  181  1  0.14031800  0.21031600  0.93724600  1
  H  183  1  0.24865900  0.26689000  0.99517900  1
  H  184  1  0.25610000  0.27909200  0.97437600  1
  H  213  1  0.86922700  0.81873100  0.32089700  1
  H  214  1  0.90303900  0.83693100  0.30074200  1
  H  215  1  0.93372500  0.89774100  0.27250600  1
  H  216  1  0.92669500  0.93042400  0.26969000  1
  H  217  1  0.84846600  0.92866900  0.30766400  1
  H  218  1  0.82069000  0.86666700  0.33896200  1
  H  219  1  0.82390900  0.87690700  0.28560300  1
  H  220  1  0.72406300  0.88900200  0.29494000  1
  H  221  1  0.73849000  0.90591700  0.32220600  1
  H  222  1  0.90869000  0.89515600  0.33397000  1
  H  223  1  0.82351700  0.92675400  0.36859000  1
  H  224  1  0.87962900  0.92824700  0.37880200  1
  H  227  1  0.92797600  0.87157200  0.29788600  1
  H  228  1  0.89842100  0.86710800  0.28043600  1
  H  230  1  0.79004300  0.92504900  0.33698400  1
  H  231  1  0.78258700  0.90424800  0.34918300  1
  H  260  1  0.86918300  0.18568000  0.82377800  1
  H  261  1  0.90299700  0.16747500  0.84392800  1
  H  262  1  0.93369600  0.10666100  0.87214700  1
  H  263  1  0.92667100  0.07397700  0.87495600  1
  H  264  1  0.84842700  0.07574000  0.83699200  1
  H  265  1  0.82063100  0.13774700  0.80571200  1
  H  266  1  0.82387200  0.12750500  0.85906000  1
  H  267  1  0.72401800  0.11541000  0.84973300  1
  H  268  1  0.73844000  0.09848800  0.82247100  1
  H  269  1  0.90862500  0.10926300  0.81068300  1
  H  270  1  0.82346000  0.07762400  0.77609700  1
  H  271  1  0.87956400  0.07613600  0.76588000  1
  H  274  1  0.92793400  0.13283600  0.84677700  1
  H  275  1  0.89838200  0.13729400  0.86423100  1
  H  277  1  0.78999400  0.07935400  0.80769400  1
  H  278  1  0.78252300  0.10015200  0.79549100  1
  H  307  1  0.86916300  0.25070900  0.25582900  1
  H  308  1  0.90298700  0.23056700  0.23762100  1
  H  309  1  0.93368300  0.20236000  0.17680100  1
  H  310  1  0.92665300  0.19955200  0.14411800  1
  H  311  1  0.84844400  0.23754000  0.14588300  1
  H  312  1  0.82064600  0.26879800  0.20789400  1
  H  313  1  0.82388700  0.21544900  0.19760700  1
  H  314  1  0.72403300  0.22481500  0.18555600  1
  H  315  1  0.73845300  0.25210000  0.16867100  1
  H  316  1  0.90865700  0.26383300  0.17941800  1
  H  317  1  0.82349700  0.29847200  0.14783000  1
  H  318  1  0.87961100  0.30868200  0.14634700  1
  H  321  1  0.92793400  0.22772700  0.20298500  1
  H  322  1  0.89837400  0.21027500  0.20742900  1
  H  324  1  0.79000600  0.26687800  0.14952600  1
  H  325  1  0.78256700  0.27906000  0.17033900  1
  H  354  1  0.86912100  0.75371500  0.88886100  1
  H  355  1  0.90294700  0.77385300  0.90707100  1
  H  356  1  0.93364100  0.80205900  0.96788700  1
  H  357  1  0.92661400  0.80486500  0.00057200  1
  H  358  1  0.84842900  0.76686100  0.99881000  1
  H  359  1  0.82062600  0.73560500  0.93679100  1
  H  360  1  0.82385500  0.78893900  0.94706100  1
  H  361  1  0.72400900  0.77956300  0.95911600  1
  H  362  1  0.73844300  0.75229300  0.97602400  1
  H  363  1  0.90865000  0.74057100  0.96527600  1
  H  364  1  0.82349200  0.70592500  0.99685900  1
  H  365  1  0.87960600  0.69571700  0.99834100  1
  H  368  1  0.92790900  0.77669000  0.94170400  1
  H  369  1  0.89833200  0.79413400  0.93726100  1
  H  371  1  0.79000100  0.73752100  0.99516800  1
  H  372  1  0.78256000  0.72533500  0.97435700  1
  H  401  1  0.86796900  0.81825800  0.82548800  1
  H  402  1  0.90154100  0.83672000  0.84552300  1
  H  403  1  0.93278500  0.89804100  0.87247800  1
  H  404  1  0.92673200  0.93086500  0.87417500  1
  H  405  1  0.84989400  0.92868900  0.83537000  1
  H  406  1  0.82145200  0.86607100  0.80556000  1
  H  407  1  0.82396300  0.87753300  0.85890100  1
  H  408  1  0.72410200  0.88834300  0.84829600  1
  H  409  1  0.73890200  0.90495200  0.82084700  1
  H  410  1  0.90942700  0.89442400  0.81058100  1
  H  411  1  0.82516000  0.92574600  0.77500100  1
  H  412  1  0.88163900  0.92725200  0.76531600  1
  H  415  1  0.92728700  0.87128800  0.84779900  1
  H  416  1  0.89692900  0.86741400  0.86495100  1
  H  418  1  0.79072200  0.92426900  0.80621500  1
  H  419  1  0.78377100  0.90322700  0.79434300  1
  H  448  1  0.86791000  0.18616200  0.31915400  1
  H  449  1  0.90148200  0.16769700  0.29912100  1
  H  450  1  0.93272600  0.10637700  0.27217000  1
  H  451  1  0.92670000  0.07355100  0.27048500  1
  H  452  1  0.84988400  0.07572200  0.30930900  1
  H  453  1  0.82141500  0.13834700  0.33909900  1
  H  454  1  0.82391400  0.12686300  0.28575400  1
  H  455  1  0.72406300  0.11603100  0.29636200  1
  H  456  1  0.73887200  0.09944700  0.32382100  1
  H  457  1  0.90939500  0.10999600  0.33408200  1
  H  458  1  0.82513000  0.07869200  0.36967800  1
  H  459  1  0.88160900  0.07718900  0.37936400  1
  H  462  1  0.92723800  0.13313500  0.29684400  1
  H  463  1  0.89686000  0.13699800  0.27969900  1
  H  465  1  0.79069200  0.08015200  0.33846600  1
  H  466  1  0.78374100  0.10120200  0.35032600  1
  H  495  1  0.86790300  0.24905900  0.88838800  1
  H  496  1  0.90151700  0.22904200  0.90684800  1
  H  497  1  0.93277300  0.20207800  0.96816300  1
  H  498  1  0.92674700  0.20038500  0.00098700  1
  H  499  1  0.84991100  0.23919800  0.99882500  1
  H  500  1  0.82141300  0.26899200  0.93621000  1
  H  501  1  0.82396100  0.21566400  0.94766300  1
  H  502  1  0.72410200  0.22624700  0.95850900  1
  H  503  1  0.73890700  0.25369400  0.97512000  1
  H  504  1  0.90941700  0.26397600  0.96455900  1
  H  505  1  0.82516200  0.29955300  0.99589400  1
  H  506  1  0.88164100  0.30923800  0.99740100  1
  H  509  1  0.92727800  0.22676300  0.94141200  1
  H  510  1  0.89691200  0.20961200  0.93754100  1
  H  512  1  0.79072900  0.26833500  0.99441600  1
  H  513  1  0.78377100  0.28021400  0.97337900  1
  H  542  1  0.86790000  0.75539700  0.25629300  1
  H  543  1  0.90148500  0.77542600  0.23783300  1
  H  544  1  0.93273600  0.80238400  0.17651100  1
  H  545  1  0.92671800  0.80406400  0.14368900  1
  H  546  1  0.84988700  0.76525100  0.14585600  1
  H  547  1  0.82139600  0.73546700  0.20847700  1
  H  548  1  0.82391400  0.78880700  0.19699400  1
  H  549  1  0.72406800  0.77822400  0.18611800  1
  H  550  1  0.73887900  0.75075200  0.16954800  1
  H  551  1  0.90939300  0.74047000  0.18014700  1
  H  552  1  0.82513200  0.70487300  0.14884000  1
  H  553  1  0.88161200  0.69517200  0.14735800  1
  H  556  1  0.92723300  0.77771400  0.20327000  1
  H  557  1  0.89686000  0.79486000  0.20713600  1
  H  559  1  0.79070400  0.73609200  0.15028300  1
  H  560  1  0.78374900  0.72423100  0.17133000  1
  H  589  1  0.17067800  0.18616100  0.82551000  1
  H  590  1  0.13711400  0.16769900  0.84555200  1
  H  591  1  0.10591400  0.10637900  0.87253200  1
  H  592  1  0.11193700  0.07355400  0.87421100  1
  H  593  1  0.18874400  0.07572500  0.83538500  1
  H  594  1  0.21718900  0.13834500  0.80558000  1
  H  595  1  0.21472300  0.12688500  0.85892600  1
  H  596  1  0.31457500  0.11606400  0.84829700  1
  H  597  1  0.29974300  0.09945700  0.82085000  1
  H  598  1  0.12921000  0.10998600  0.81062800  1
  H  599  1  0.21346500  0.07870200  0.77500800  1
  H  600  1  0.15697300  0.07718400  0.76533900  1
  H  603  1  0.11138500  0.13313200  0.84784500  1
  H  604  1  0.14175700  0.13700600  0.86499200  1
  H  606  1  0.24792100  0.08015800  0.80622100  1
  H  607  1  0.25485500  0.10120500  0.79435400  1
  H  636  1  0.17067900  0.81827800  0.31917700  1
  H  637  1  0.13707300  0.83674900  0.29916300  1
  H  638  1  0.10581300  0.89807800  0.27222300  1
  H  639  1  0.11186000  0.93090300  0.27053700  1
  H  640  1  0.18873600  0.92871600  0.30931700  1
  H  641  1  0.21724000  0.86609100  0.33908700  1
  H  642  1  0.21467900  0.87757900  0.28575800  1
  H  643  1  0.31454000  0.88843900  0.29633000  1
  H  644  1  0.29973600  0.90502900  0.32379200  1
  H  645  1  0.12924300  0.89441300  0.33411300  1
  H  646  1  0.21350100  0.92576200  0.36967100  1
  H  647  1  0.15703200  0.92723300  0.37938200  1
  H  650  1  0.11134700  0.87131300  0.29689500  1
  H  651  1  0.14167700  0.86745000  0.27972400  1
  H  653  1  0.24791100  0.92430600  0.33844600  1
  H  654  1  0.25489600  0.90326400  0.35031300  1
  H  683  1  0.17072700  0.75541900  0.88838600  1
  H  684  1  0.13711500  0.77543100  0.90685500  1
  H  685  1  0.10586400  0.80237300  0.96818500  1
  H  686  1  0.11190800  0.80405700  0.00100900  1
  H  687  1  0.18875400  0.76525500  0.99882800  1
  H  688  1  0.21724900  0.73549200  0.93620500  1
  H  689  1  0.21470700  0.78881100  0.94770900  1
  H  690  1  0.31457200  0.77817400  0.95848700  1
  H  691  1  0.29975800  0.75071200  0.97507100  1
  H  692  1  0.12923500  0.74048300  0.96453300  1
  H  693  1  0.21348600  0.70486900  0.99583000  1
  H  694  1  0.15699900  0.69518200  0.99732000  1
  H  697  1  0.11138100  0.77769700  0.94141800  1
  H  698  1  0.14172300  0.79486400  0.93756000  1
  H  700  1  0.24793800  0.73608000  0.99438600  1
  H  701  1  0.25487400  0.72422700  0.97333000  1
  H  730  1  0.17078300  0.24898900  0.25629900  1
  H  731  1  0.13716500  0.22897900  0.23782700  1
  H  732  1  0.10590200  0.20204300  0.17650300  1
  H  733  1  0.11192200  0.20036500  0.14367600  1
  H  734  1  0.18872900  0.23919500  0.14584900  1
  H  735  1  0.21727100  0.26893900  0.20848500  1
  H  736  1  0.21471900  0.21562400  0.19697500  1
  H  737  1  0.31457000  0.22625000  0.18615900  1
  H  738  1  0.29975300  0.25371800  0.16958100  1
  H  739  1  0.12923600  0.26396100  0.18016000  1
  H  740  1  0.21347900  0.29957800  0.14885800  1
  H  741  1  0.15699900  0.30927000  0.14738600  1
  H  744  1  0.11140700  0.22671700  0.20327300  1
  H  745  1  0.14177100  0.20956100  0.20712000  1
  H  747  1  0.24792600  0.26836500  0.15029100  1
  H  748  1  0.25487700  0.28021100  0.17134800  1
  H  777  1  0.66580000  0.68405000  0.82537300  1
  H  778  1  0.63291900  0.66676300  0.80417400  1
  H  779  1  0.60307100  0.60716500  0.77307300  1
  H  780  1  0.60977000  0.57455600  0.76927900  1
  H  781  1  0.68928400  0.57511500  0.80643000  1
  H  782  1  0.71757100  0.63585400  0.83977500  1
  H  783  1  0.71369800  0.62750300  0.78590000  1
  H  784  1  0.81353200  0.61449700  0.79401900  1
  H  785  1  0.79948800  0.59689600  0.82090500  1
  H  786  1  0.62964800  0.60782200  0.83409700  1
  H  787  1  0.71507200  0.57473400  0.86707700  1
  H  788  1  0.65909100  0.57297900  0.87748500  1
  H  791  1  0.60947900  0.63236000  0.79928800  1
  H  792  1  0.63854200  0.63766200  0.78181400  1
  H  794  1  0.74802800  0.57752700  0.83538500  1
  H  795  1  0.75594800  0.59784900  0.84827500  1
  H  824  1  0.66584000  0.32039800  0.31930100  1
  H  825  1  0.63297500  0.33768800  0.34050700  1
  H  826  1  0.60315500  0.39728500  0.37161200  1
  H  827  1  0.60985400  0.42989500  0.37540200  1
  H  828  1  0.68935800  0.42933000  0.33823900  1
  H  829  1  0.71762000  0.36859000  0.30489500  1
  H  830  1  0.71378500  0.37694700  0.35877600  1
  H  831  1  0.81361600  0.38995000  0.35064000  1
  H  832  1  0.79955900  0.40754400  0.32375200  1
  H  833  1  0.62971000  0.39662900  0.31059100  1
  H  834  1  0.71512600  0.42970500  0.27759100  1
  H  835  1  0.65914100  0.43147000  0.26719600  1
  H  838  1  0.60955000  0.37209100  0.34539600  1
  H  839  1  0.63861600  0.36678700  0.36286900  1
  H  841  1  0.74810200  0.42691200  0.30927500  1
  H  842  1  0.75600500  0.40658400  0.29638900  1
  H  871  1  0.66582000  0.24916800  0.75415500  1
  H  872  1  0.63293100  0.27036900  0.73687100  1
  H  873  1  0.60307800  0.30147800  0.67728000  1
  H  874  1  0.60977200  0.30527800  0.64467200  1
  H  875  1  0.68928700  0.26812200  0.64522400  1
  H  876  1  0.71758300  0.23477500  0.70595400  1
  H  877  1  0.71371300  0.28864900  0.69760900  1
  H  878  1  0.81354000  0.28054400  0.68457500  1
  H  879  1  0.79948800  0.25366000  0.66697200  1
  H  880  1  0.62965800  0.24046200  0.67792600  1
  H  881  1  0.71506700  0.20747800  0.64482900  1
  H  882  1  0.65908600  0.19707300  0.64307400  1
  H  885  1  0.60948600  0.27525600  0.70246900  1
  H  886  1  0.63854700  0.29273200  0.70777300  1
  H  888  1  0.74802500  0.23917500  0.64762100  1
  H  889  1  0.75595000  0.22627900  0.66793900  1
  H  918  1  0.66584700  0.75526000  0.39053200  1
  H  919  1  0.63298800  0.73404800  0.40781700  1
  H  920  1  0.60317400  0.70293100  0.46741200  1
  H  921  1  0.60987100  0.69914100  0.50002000  1
  H  922  1  0.68938800  0.73629600  0.49945500  1
  H  923  1  0.71763200  0.76965600  0.43872400  1
  H  924  1  0.71381700  0.71577400  0.44706700  1
  H  925  1  0.81364300  0.72391000  0.46008800  1
  H  926  1  0.79957400  0.75079300  0.47768800  1
  H  927  1  0.62972400  0.76394400  0.46675800  1
  H  928  1  0.71512900  0.79695500  0.49983200  1
  H  929  1  0.65914100  0.80734500  0.50159600  1
  H  932  1  0.60957300  0.72914700  0.44222100  1
  H  933  1  0.63863600  0.71167700  0.43690900  1
  H  935  1  0.74811200  0.76527000  0.49704200  1
  H  936  1  0.75600700  0.77816200  0.47671700  1
  H  965  1  0.37285000  0.32040900  0.82539400  1
  H  966  1  0.40572900  0.33769000  0.80418600  1
  H  967  1  0.43555500  0.39727700  0.77305600  1
  H  968  1  0.42886500  0.42988500  0.76926200  1
  H  969  1  0.34934300  0.42933600  0.80640900  1
  H  970  1  0.32105700  0.36860600  0.83976800  1
  H  971  1  0.32491000  0.37694000  0.78588500  1
  H  972  1  0.22508000  0.38995800  0.79400600  1
  H  973  1  0.23913800  0.40756500  0.82088700  1
  H  974  1  0.40898000  0.39663600  0.83407100  1
  H  975  1  0.32354800  0.42970100  0.86706900  1
  H  976  1  0.37953200  0.43146000  0.87747500  1
  H  979  1  0.42914900  0.37209200  0.79928700  1
  H  980  1  0.40010000  0.36678100  0.78180800  1
  H  982  1  0.29059300  0.42692300  0.83536800  1
  H  983  1  0.28268200  0.40660000  0.84825900  1
  H  1012  1  0.37279800  0.68402500  0.31929400  1
  H  1013  1  0.40566500  0.66673700  0.34050200  1
  H  1014  1  0.43549300  0.60713900  0.37160900  1
  H  1015  1  0.42879900  0.57452900  0.37539400  1
  H  1016  1  0.34927200  0.57509500  0.33825100  1
  H  1017  1  0.32099300  0.63583600  0.30490900  1
  H  1018  1  0.32484100  0.62749200  0.35878300  1
  H  1019  1  0.22500800  0.61446500  0.35066700  1
  H  1020  1  0.23907100  0.59685500  0.32378800  1
  H  1021  1  0.40889800  0.60780900  0.31059400  1
  H  1022  1  0.32349900  0.57468600  0.27763100  1
  H  1023  1  0.37948000  0.57293000  0.26722800  1
  H  1026  1  0.42908000  0.63233500  0.34539200  1
  H  1027  1  0.40003100  0.63764100  0.36287300  1
  H  1029  1  0.29053600  0.57749700  0.30931600  1
  H  1030  1  0.28260800  0.59781200  0.29641600  1
  H  1059  1  0.37279100  0.75521300  0.75416700  1
  H  1060  1  0.40566700  0.73401100  0.73687900  1
  H  1061  1  0.43551300  0.70291400  0.67727700  1
  H  1062  1  0.42881300  0.69912400  0.64466800  1
  H  1063  1  0.34931900  0.73629000  0.64522900  1
  H  1064  1  0.32102700  0.76962100  0.70597000  1
  H  1065  1  0.32489500  0.71574100  0.69759300  1
  H  1066  1  0.22505400  0.72388700  0.68461700  1
  H  1067  1  0.23910500  0.75078600  0.66703500  1
  H  1068  1  0.40895300  0.76394200  0.67794700  1
  H  1069  1  0.32353100  0.79695700  0.64488900  1
  H  1070  1  0.37951700  0.80736200  0.64313900  1
  H  1073  1  0.42910900  0.72913100  0.70248000  1
  H  1074  1  0.40004600  0.71165300  0.70777200  1
  H  1076  1  0.29055600  0.76526600  0.64766100  1
  H  1077  1  0.28266500  0.77814400  0.66799600  1
  H  1106  1  0.37277100  0.24922200  0.39052400  1
  H  1107  1  0.40563000  0.27042900  0.40781500  1
  H  1108  1  0.43544800  0.30152800  0.46741900  1
  H  1109  1  0.42875200  0.30531100  0.50002900  1
  H  1110  1  0.34928700  0.26812400  0.49946600  1
  H  1111  1  0.32101300  0.23479500  0.43871500  1
  H  1112  1  0.32484300  0.28866400  0.44707900  1
  H  1113  1  0.22501000  0.28050300  0.46006000  1
  H  1114  1  0.23907800  0.25361800  0.47766200  1
  H  1115  1  0.40893100  0.24048300  0.46674500  1
  H  1116  1  0.32352100  0.20745800  0.49980300  1
  H  1117  1  0.37950900  0.19705800  0.50155200  1
  H  1120  1  0.42906700  0.27531200  0.44221400  1
  H  1121  1  0.39998700  0.29278000  0.43692300  1
  H  1123  1  0.29053800  0.23914800  0.49703400  1
  H  1124  1  0.28264800  0.22626600  0.47670200  1
  H  1153  1  0.37185100  0.31977700  0.32095100  1
  H  1154  1  0.40451300  0.33739500  0.34198700  1
  H  1155  1  0.43464900  0.39761000  0.37185000  1
  H  1156  1  0.42876200  0.43038600  0.37455400  1
  H  1157  1  0.35059900  0.42937300  0.33656000  1
  H  1158  1  0.32182700  0.36794900  0.30467800  1
  H  1159  1  0.32503800  0.37745600  0.35854900  1
  H  1160  1  0.22510700  0.38925100  0.34923300  1
  H  1161  1  0.23945900  0.40660800  0.32217500  1
  H  1162  1  0.40963100  0.39589600  0.31033600  1
  H  1163  1  0.32500300  0.42878100  0.27649100  1
  H  1164  1  0.38134200  0.43056300  0.26657500  1
  H  1167  1  0.42858900  0.37181700  0.34627300  1
  H  1168  1  0.39877100  0.36706500  0.36350200  1
  H  1170  1  0.29115200  0.42617800  0.30784000  1
  H  1171  1  0.28371800  0.40562700  0.29522600  1
  H  1200  1  0.37184300  0.68465300  0.82373500  1
  H  1201  1  0.40449800  0.66703300  0.80269600  1
  H  1202  1  0.43463700  0.60682000  0.77283500  1
  H  1203  1  0.42877600  0.57404100  0.77014200  1
  H  1204  1  0.35061600  0.57505000  0.80814500  1
  H  1205  1  0.32181400  0.63648200  0.84000800  1
  H  1206  1  0.32502800  0.62695100  0.78612400  1
  H  1207  1  0.22510300  0.61513600  0.79542600  1
  H  1208  1  0.23945000  0.59780100  0.82249700  1
  H  1209  1  0.40961100  0.60854600  0.83436500  1
  H  1210  1  0.32496900  0.57567800  0.86821500  1
  H  1211  1  0.38129800  0.57391700  0.87815000  1
  H  1214  1  0.42857400  0.63261800  0.79841200  1
  H  1215  1  0.39875400  0.63735700  0.78118200  1
  H  1217  1  0.29114000  0.57825200  0.83685500  1
  H  1218  1  0.28369100  0.59881100  0.84945400  1
  H  1247  1  0.37181600  0.75361100  0.38990300  1
  H  1248  1  0.40448600  0.73257500  0.40751700  1
  H  1249  1  0.43463200  0.70270400  0.46772600  1
  H  1250  1  0.42877600  0.70000800  0.50050200  1
  H  1251  1  0.35061400  0.73801000  0.49950200  1
  H  1252  1  0.32180400  0.76988200  0.43808100  1
  H  1253  1  0.32502600  0.71601100  0.44758500  1
  H  1254  1  0.22510100  0.72530900  0.45941300  1
  H  1255  1  0.23945800  0.75236700  0.47677000  1
  H  1256  1  0.40961600  0.76421800  0.46602200  1
  H  1257  1  0.32500300  0.79806400  0.49891500  1
  H  1258  1  0.38134200  0.80797800  0.50069700  1
  H  1261  1  0.42857400  0.72828800  0.44193600  1
  H  1262  1  0.39875400  0.71105900  0.43718800  1
  H  1264  1  0.29115500  0.76671200  0.49631700  1
  H  1265  1  0.28371100  0.77932900  0.47577000  1
  H  1294  1  0.37181900  0.25082600  0.75478000  1
  H  1295  1  0.40448600  0.27186200  0.73716400  1
  H  1296  1  0.43463000  0.30173300  0.67695400  1
  H  1297  1  0.42877600  0.30442400  0.64417900  1
  H  1298  1  0.35061100  0.26642700  0.64518100  1
  H  1299  1  0.32179400  0.23456000  0.70660500  1
  H  1300  1  0.32501800  0.28844400  0.69707700  1
  H  1301  1  0.22509800  0.27915600  0.68523400  1
  H  1302  1  0.23945000  0.25207300  0.66791100  1
  H  1303  1  0.40960600  0.24020400  0.67867900  1
  H  1304  1  0.32496900  0.20634100  0.64582300  1
  H  1305  1  0.38129800  0.19640100  0.64406700  1
  H  1308  1  0.42856400  0.27615400  0.70274800  1
  H  1309  1  0.39874100  0.29338300  0.70749400  1
  H  1311  1  0.29113800  0.23770300  0.64838400  1
  H  1312  1  0.28369800  0.22510600  0.66894500  1
  H  1341  1  0.66679400  0.68465000  0.32096100  1
  H  1342  1  0.63414400  0.66703500  0.34200700  1
  H  1343  1  0.60403300  0.60682200  0.37189000  1
  H  1344  1  0.60988100  0.57404500  0.37457100  1
  H  1345  1  0.68803900  0.57505100  0.33657200  1
  H  1346  1  0.71682600  0.63647600  0.30469600  1
  H  1347  1  0.71365400  0.62696800  0.35857700  1
  H  1348  1  0.81357200  0.61515400  0.34924800  1
  H  1349  1  0.79919400  0.59779800  0.32218900  1
  H  1350  1  0.62902100  0.60853200  0.31037900  1
  H  1351  1  0.71362700  0.57566200  0.27650800  1
  H  1352  1  0.65727300  0.57386800  0.26661100  1
  H  1355  1  0.61008300  0.63261400  0.34630300  1
  H  1356  1  0.63989900  0.63736600  0.36353300  1
  H  1358  1  0.74749500  0.57824900  0.30785300  1
  H  1359  1  0.75492200  0.59880200  0.29524300  1
  H  1388  1  0.66666667  0.31979600  0.82377800  1
  H  1389  1  0.63404300  0.33741600  0.80274300  1
  H  1390  1  0.60390200  0.39763500  0.77288100  1
  H  1391  1  0.60979200  0.43040800  0.77018100  1
  H  1392  1  0.68800400  0.42938600  0.80814200  1
  H  1393  1  0.71679900  0.36796000  0.84001300  1
  H  1394  1  0.71355000  0.37746900  0.78614200  1
  H  1395  1  0.81349000  0.38928400  0.79541600  1
  H  1396  1  0.79915200  0.40664700  0.82247700  1
  H  1397  1  0.62900900  0.39589500  0.83438600  1
  H  1398  1  0.71365600  0.42879900  0.86819200  1
  H  1399  1  0.65733300  0.43056000  0.87813600  1
  H  1402  1  0.60999200  0.37183600  0.79846000  1
  H  1403  1  0.63977800  0.36708500  0.78121300  1
  H  1405  1  0.74746800  0.42620000  0.83683000  1
  H  1406  1  0.75492900  0.40565200  0.84944400  1
  H  1435  1  0.66683100  0.25085700  0.38989300  1
  H  1436  1  0.63416900  0.27189500  0.40751100  1
  H  1437  1  0.60400600  0.30174600  0.46773300  1
  H  1438  1  0.60987800  0.30444000  0.50050900  1
  H  1439  1  0.68803900  0.26644100  0.49949600  1
  H  1440  1  0.71683800  0.23457800  0.43807100  1
  H  1441  1  0.71362400  0.28845100  0.44761000  1
  H  1442  1  0.81355900  0.27911000  0.45938000  1
  H  1443  1  0.79919700  0.25204000  0.47671800  1
  H  1444  1  0.62902400  0.24023100  0.46600000  1
  H  1445  1  0.71363900  0.20635900  0.49886700  1
  H  1446  1  0.65729300  0.19644500  0.50063900  1
  H  1449  1  0.61008100  0.27617100  0.44192600  1
  H  1450  1  0.63989600  0.29340600  0.43719300  1
  H  1452  1  0.74750500  0.23770400  0.49628700  1
  H  1453  1  0.75492400  0.22510600  0.47572700  1
  H  1482  1  0.66682600  0.75356900  0.75478300  1
  H  1483  1  0.63417200  0.73253200  0.73716200  1
  H  1484  1  0.60402800  0.70267500  0.67694400  1
  H  1485  1  0.60988600  0.69998700  0.64416700  1
  H  1486  1  0.68800200  0.73801800  0.64517100  1
  H  1487  1  0.71682600  0.76986400  0.70660900  1
  H  1488  1  0.71360700  0.71599100  0.69706900  1
  H  1489  1  0.81353500  0.72532300  0.68527800  1
  H  1490  1  0.79917700  0.75239800  0.66794500  1
  H  1491  1  0.62900700  0.76422200  0.67867900  1
  H  1492  1  0.71363400  0.79810100  0.64582800  1
  H  1493  1  0.65730100  0.80802900  0.64407000  1
  H  1496  1  0.61007600  0.72825500  0.70275100  1
  H  1497  1  0.63991100  0.71102800  0.70747900  1
  H  1499  1  0.74748800  0.76675000  0.64839300  1
  H  1500  1  0.75491500  0.77933900  0.66895900  1
  H  1510  1  0.17612300  0.02363700  0.26513800  1
  H  1512  1  0.11489600  0.98073500  0.30340500  1
  H  1514  1  0.09916300  0.02958300  0.31512100  1
  H  1515  1  0.10731100  0.00845900  0.32618400  1
  H  1516  1  0.07558900  0.00988400  0.30935000  1
  H  1518  1  0.19597900  0.97467600  0.25568900  1
  H  1519  1  0.21641400  0.99583100  0.25908500  1
  H  1520  1  0.18358800  0.99430000  0.24293600  1
  H  1522  1  0.14270400  0.96006500  0.26533400  1
  H  1524  1  0.11030800  0.04386800  0.28502500  1
  H  1530  1  0.17614700  0.98081500  0.87957800  1
  H  1532  1  0.11495800  0.02372600  0.84130000  1
  H  1534  1  0.09929100  0.97487300  0.82955200  1
  H  1535  1  0.10741700  0.99600900  0.81850500  1
  H  1536  1  0.07567700  0.99455600  0.83532500  1
  H  1538  1  0.19595300  0.02976800  0.88907400  1
  H  1539  1  0.21641700  0.00862700  0.88565700  1
  H  1540  1  0.18357600  0.01012400  0.90179800  1
  H  1542  1  0.14276200  0.04439300  0.87940100  1
  H  1544  1  0.11037500  0.96059200  0.85968800  1
  H  1550  1  0.17613500  0.80946200  0.09374000  1
  H  1552  1  0.11493600  0.77116800  0.05085300  1
  H  1554  1  0.09922200  0.75946300  0.09970500  1
  H  1555  1  0.10735900  0.74839800  0.07858200  1
  H  1556  1  0.07563700  0.76523000  0.08001000  1
  H  1558  1  0.19597500  0.81890500  0.04477900  1
  H  1559  1  0.21641600  0.81552300  0.06593400  1
  H  1560  1  0.18356900  0.83165800  0.06440000  1
  H  1562  1  0.14270300  0.80923900  0.03017600  1
  H  1564  1  0.11032700  0.78958500  0.11397000  1
  H  1570  1  0.17614300  0.19498500  0.05094400  1
  H  1572  1  0.11497600  0.23328500  0.09384500  1
  H  1574  1  0.09932100  0.24502700  0.04499100  1
  H  1575  1  0.10745300  0.25607600  0.06612400  1
  H  1576  1  0.07570100  0.23926200  0.06467400  1
  H  1578  1  0.19593700  0.18549400  0.09989900  1
  H  1579  1  0.21640700  0.18890400  0.07875800  1
  H  1580  1  0.18355400  0.17276800  0.08025700  1
  H  1582  1  0.14273700  0.19518500  0.11451900  1
  H  1584  1  0.11038900  0.21489100  0.03071300  1
  H  1590  1  0.86251600  0.98081400  0.26508700  1
  H  1592  1  0.92368900  0.02370200  0.30339300  1
  H  1594  1  0.93939600  0.97485100  0.31510000  1
  H  1595  1  0.93124900  0.99597300  0.32616600  1
  H  1596  1  0.96298300  0.99454600  0.30933900  1
  H  1598  1  0.84268200  0.02977500  0.25563600  1
  H  1599  1  0.82223900  0.00862100  0.25901600  1
  H  1600  1  0.85509600  0.01015400  0.24288700  1
  H  1602  1  0.89595000  0.04437900  0.26531600  1
  H  1604  1  0.92830900  0.96058500  0.28497800  1
  H  1610  1  0.86251100  0.02360600  0.87954700  1
  H  1612  1  0.92369400  0.98068900  0.84127200  1
  H  1614  1  0.93937100  0.02954000  0.82952300  1
  H  1615  1  0.93124400  0.00840400  0.81847600  1
  H  1616  1  0.96298300  0.00985700  0.83529800  1
  H  1618  1  0.84268900  0.97465400  0.88904200  1
  H  1619  1  0.82223200  0.99579800  0.88562400  1
  H  1620  1  0.85507200  0.99429700  0.90176800  1
  H  1622  1  0.89587300  0.96002700  0.87937300  1
  H  1624  1  0.92829100  0.04382500  0.85965000  1
  H  1630  1  0.86250800  0.19497300  0.09372200  1
  H  1632  1  0.92371600  0.23327800  0.05084800  1
  H  1634  1  0.93939600  0.24498100  0.09970300  1
  H  1635  1  0.93126600  0.25604900  0.07857900  1
  H  1636  1  0.96299300  0.23921900  0.08001200  1
  H  1638  1  0.84270700  0.18552700  0.04475600  1
  H  1639  1  0.82224700  0.18890700  0.06590600  1
  H  1640  1  0.85510400  0.17277500  0.06437900  1
  H  1642  1  0.89597900  0.19520400  0.03016200  1
  H  1644  1  0.92829400  0.21485300  0.11396300  1
  H  1650  1  0.86250600  0.80944500  0.05094900  1
  H  1652  1  0.92368900  0.77116000  0.09385600  1
  H  1654  1  0.93935100  0.75941500  0.04500300  1
  H  1655  1  0.93122400  0.74836700  0.06613800  1
  H  1656  1  0.96296600  0.76518600  0.06468600  1
  H  1658  1  0.84270400  0.81894000  0.09990300  1
  H  1659  1  0.82223700  0.81552400  0.07876100  1
  H  1660  1  0.85508100  0.83166400  0.08026000  1
  H  1662  1  0.89588800  0.80926000  0.11452700  1
  H  1664  1  0.92827200  0.78955300  0.03072400  1
  H  1670  1  0.67362400  0.52348500  0.76335600  1
  H  1672  1  0.61293000  0.48085600  0.80219600  1
  H  1674  1  0.59758800  0.52978500  0.81374000  1
  H  1675  1  0.60592500  0.50872200  0.82487800  1
  H  1676  1  0.57386200  0.51007000  0.80824200  1
  H  1678  1  0.69293200  0.47442900  0.75397800  1
  H  1679  1  0.71364700  0.49552900  0.75720600  1
  H  1680  1  0.68053100  0.49405700  0.74123900  1
  H  1682  1  0.63960000  0.45985000  0.76422600  1
  H  1684  1  0.60843100  0.54397100  0.78347400  1
  H  1690  1  0.67365400  0.48095700  0.38134900  1
  H  1692  1  0.61300900  0.52360200  0.34250100  1
  H  1694  1  0.59774500  0.47467000  0.33091100  1
  H  1695  1  0.60606300  0.49574800  0.31979500  1
  H  1696  1  0.57397300  0.49436800  0.33641200  1
  H  1698  1  0.69290000  0.53000600  0.39078800  1
  H  1699  1  0.71364900  0.50892100  0.38753600  1
  H  1700  1  0.68051300  0.51035300  0.40349300  1
  H  1702  1  0.63965200  0.54459900  0.38050800  1
  H  1704  1  0.60851900  0.46048100  0.36121300  1
  H  1710  1  0.67363700  0.31124700  0.59359200  1
  H  1712  1  0.61299400  0.27237900  0.55096600  1
  H  1714  1  0.59766900  0.26083900  0.59989900  1
  H  1715  1  0.60600400  0.24970000  0.57883700  1
  H  1716  1  0.57393100  0.26633000  0.58018600  1
  H  1718  1  0.69293500  0.32063000  0.54453700  1
  H  1719  1  0.71365100  0.31741400  0.56563700  1
  H  1720  1  0.68050800  0.33333333  0.56416200  1
  H  1722  1  0.63961300  0.31035800  0.52996200  1
  H  1724  1  0.60846300  0.29112900  0.61406900  1
  H  1730  1  0.67364900  0.69319400  0.55108500  1
  H  1732  1  0.61304100  0.73207100  0.59372200  1
  H  1734  1  0.59777500  0.74364900  0.54478700  1
  H  1735  1  0.60611000  0.75477000  0.56585900  1
  H  1736  1  0.57400500  0.73816200  0.56449000  1
  H  1738  1  0.69289800  0.68376600  0.60013400  1
  H  1739  1  0.71364400  0.68700700  0.57904900  1
  H  1740  1  0.68049600  0.67105800  0.58048700  1
  H  1742  1  0.63965500  0.69406600  0.61472800  1
  H  1744  1  0.60853200  0.71334400  0.53060200  1
  H  1750  1  0.36503600  0.48096200  0.76330100  1
  H  1752  1  0.42562900  0.52357800  0.80220500  1
  H  1754  1  0.44095900  0.47464200  0.81373300  1
  H  1755  1  0.43259200  0.49569800  0.82487800  1
  H  1756  1  0.46469200  0.49436400  0.80826400  1
  H  1758  1  0.34573000  0.53002100  0.75393300  1
  H  1759  1  0.32501600  0.50891700  0.75713500  1
  H  1760  1  0.35816900  0.51040100  0.74119400  1
  H  1762  1  0.39904500  0.54459400  0.76422000  1
  H  1764  1  0.43019000  0.46047500  0.78344900  1
  H  1770  1  0.36497900  0.52347200  0.38133800  1
  H  1772  1  0.42561700  0.48082400  0.34248800  1
  H  1774  1  0.44089200  0.52975600  0.33090100  1
  H  1775  1  0.43257000  0.50867900  0.31978400  1
  H  1776  1  0.46466000  0.51005600  0.33640200  1
  H  1778  1  0.34571300  0.47442500  0.39077000  1
  H  1779  1  0.32497100  0.49551200  0.38751900  1
  H  1780  1  0.35810500  0.49407400  0.40347800  1
  H  1782  1  0.39894600  0.45982800  0.38049700  1
  H  1784  1  0.43011800  0.54394800  0.36119600  1
  H  1790  1  0.36499100  0.69317900  0.59358200  1
  H  1792  1  0.42564100  0.73206300  0.55097600  1
  H  1794  1  0.44093400  0.74359600  0.59991300  1
  H  1795  1  0.43260500  0.75473800  0.57885200  1
  H  1796  1  0.46468500  0.73811300  0.58020200  1
  H  1798  1  0.34573200  0.68380100  0.54452200  1
  H  1799  1  0.32499900  0.68700800  0.56561700  1
  H  1800  1  0.35815200  0.67106500  0.56414700  1
  H  1802  1  0.39905200  0.69408500  0.52995800  1
  H  1804  1  0.43014300  0.71329500  0.61407600  1
  H  1810  1  0.36499100  0.31124500  0.55109800  1
  H  1812  1  0.42562200  0.27237100  0.59372700  1
  H  1814  1  0.44087700  0.26079900  0.54479000  1
  H  1815  1  0.43255300  0.24967500  0.56586200  1
  H  1816  1  0.46465000  0.26628700  0.56449100  1
  H  1818  1  0.34575000  0.32066800  0.60015100  1
  H  1819  1  0.32500100  0.31742700  0.57906500  1
  H  1820  1  0.35814400  0.33337800  0.58050400  1
  H  1822  1  0.39897800  0.31037500  0.61474100  1
  H  1824  1  0.43011100  0.29111200  0.53061200  1
  H  1830  1  0.31810200  0.19069200  0.39239200  1
  H  1832  1  0.22508900  0.20838800  0.35438700  1
  H  1834  1  0.27270800  0.24822900  0.37150100  1
  H  1835  1  0.23162700  0.24094000  0.36904100  1
  H  1836  1  0.25891000  0.23998700  0.34988800  1
  H  1838  1  0.27250500  0.15059400  0.37430800  1
  H  1839  1  0.28492400  0.15855000  0.39628100  1
  H  1840  1  0.31288000  0.15864000  0.37742400  1
  H  1842  1  0.22173800  0.16170500  0.36596400  1
  H  1844  1  0.32651500  0.23427900  0.37757700  1
  H  1850  1  0.31813200  0.81372500  0.75229300  1
  H  1852  1  0.22509400  0.79606100  0.79029700  1
  H  1854  1  0.27269300  0.75620500  0.77319800  1
  H  1855  1  0.23161300  0.76350000  0.77565300  1
  H  1856  1  0.25889200  0.76445800  0.79480600  1
  H  1858  1  0.27258400  0.85383900  0.77037600  1
  H  1859  1  0.28499600  0.84588100  0.74840300  1
  H  1860  1  0.31294700  0.84577400  0.76726100  1
  H  1862  1  0.22181000  0.84275500  0.77872400  1
  H  1864  1  0.32653300  0.77016000  0.76711300  1
  H  1870  1  0.31813700  0.68219900  0.26080300  1
  H  1872  1  0.22504000  0.72014100  0.27849400  1
  H  1874  1  0.27261400  0.70299700  0.31834100  1
  H  1875  1  0.23154300  0.70545200  0.31103100  1
  H  1876  1  0.25880100  0.72461600  0.31011600  1
  H  1878  1  0.27258200  0.70030800  0.22070200  1
  H  1879  1  0.28502300  0.67833300  0.22863900  1
  H  1880  1  0.31294700  0.69720300  0.22876400  1
  H  1882  1  0.22178900  0.70862300  0.23179400  1
  H  1884  1  0.32644400  0.69696800  0.30442000  1
  H  1890  1  0.31818300  0.32225400  0.88388200  1
  H  1892  1  0.22507800  0.28431200  0.86620200  1
  H  1894  1  0.27268000  0.30142300  0.82635100  1
  H  1895  1  0.23160200  0.29897900  0.83365200  1
  H  1896  1  0.25885300  0.27981300  0.83459000  1
  H  1898  1  0.27262900  0.30416000  0.92398800  1
  H  1899  1  0.28507000  0.32613400  0.91604700  1
  H  1900  1  0.31299400  0.30726300  0.91592100  1
  H  1902  1  0.22183600  0.29584700  0.91290500  1
  H  1904  1  0.32653300  0.30746900  0.84029800  1
  H  1910  1  0.72051600  0.81374600  0.39237200  1
  H  1912  1  0.81361100  0.79606700  0.35442100  1
  H  1914  1  0.76603400  0.75621400  0.37154400  1
  H  1915  1  0.80710700  0.76352500  0.36910400  1
  H  1916  1  0.77986100  0.76444700  0.34993400  1
  H  1918  1  0.76607100  0.85385400  0.37427600  1
  H  1919  1  0.75363700  0.84590700  0.39624900  1
  H  1920  1  0.72570600  0.84579000  0.37738200  1
  H  1922  1  0.81684500  0.84277100  0.36594000  1
  H  1924  1  0.71219600  0.77013600  0.37759200  1
  H  1930  1  0.72045900  0.19068100  0.75231800  1
  H  1932  1  0.81358400  0.20834800  0.79025000  1
  H  1934  1  0.76601600  0.24820600  0.77312600  1
  H  1935  1  0.80709000  0.24089400  0.77557100  1
  H  1936  1  0.77983700  0.23997300  0.79473700  1
  H  1938  1  0.76597700  0.15056800  0.77042400  1
  H  1939  1  0.75354100  0.15850600  0.74844900  1
  H  1940  1  0.72561900  0.15864700  0.76732200  1
  H  1942  1  0.81677300  0.16163600  0.77874000  1
  H  1944  1  0.71215400  0.23427500  0.76708900  1
  H  1950  1  0.72052100  0.32224300  0.26079900  1
  H  1952  1  0.81354700  0.28425000  0.27849400  1
  H  1954  1  0.76597200  0.30139500  0.31833800  1
  H  1955  1  0.80704500  0.29892600  0.31103600  1
  H  1956  1  0.77975800  0.27977500  0.31010700  1
  H  1958  1  0.76607600  0.30413100  0.22070000  1
  H  1959  1  0.75366100  0.32610800  0.22864400  1
  H  1960  1  0.72570800  0.30725000  0.22875600  1
  H  1962  1  0.81684000  0.29577600  0.23179500  1
  H  1964  1  0.71215200  0.30745400  0.30440400  1
  H  1970  1  0.72047200  0.68219300  0.88387400  1
  H  1972  1  0.81352200  0.72017700  0.86618900  1
  H  1974  1  0.76592300  0.70305700  0.82634300  1
  H  1975  1  0.80700100  0.70551600  0.83363800  1
  H  1976  1  0.77972600  0.72467000  0.83458300  1
  H  1978  1  0.76602900  0.70029300  0.92397800  1
  H  1979  1  0.75360500  0.67831800  0.91603300  1
  H  1980  1  0.72566100  0.69718100  0.91591700  1
  H  1982  1  0.81680300  0.70863500  0.91288900  1
  H  1984  1  0.71208300  0.69699100  0.84029700  1
  H  1990  1  0.72062900  0.81282200  0.75306700  1
  H  1992  1  0.81346100  0.79519200  0.79124700  1
  H  1994  1  0.76594500  0.75531000  0.77410900  1
  H  1995  1  0.80699600  0.76262400  0.77663300  1
  H  1996  1  0.77961500  0.76357700  0.79573900  1
  H  1998  1  0.76623800  0.85293900  0.77110100  1
  H  1999  1  0.75390100  0.84492900  0.74913100  1
  H  2000  1  0.72585400  0.84492100  0.76794500  1
  H  2002  1  0.81709600  0.84174400  0.77937000  1
  H  2004  1  0.71231000  0.76911300  0.76783900  1
  H  2010  1  0.72062900  0.19162000  0.39160400  1
  H  2012  1  0.81344300  0.20922600  0.35340200  1
  H  2014  1  0.76597000  0.24911900  0.37055100  1
  H  2015  1  0.80701300  0.24180000  0.36800900  1
  H  2016  1  0.77960200  0.24084400  0.34891600  1
  H  2018  1  0.76617200  0.15149000  0.37354900  1
  H  2019  1  0.75385900  0.15949500  0.39552300  1
  H  2020  1  0.72580200  0.15952700  0.37671400  1
  H  2022  1  0.81704000  0.16266700  0.36527600  1
  H  2024  1  0.71230200  0.23530400  0.37683500  1
  H  2030  1  0.72055300  0.32146900  0.88297800  1
  H  2032  1  0.81343900  0.28333600  0.86533600  1
  H  2034  1  0.76594500  0.30050000  0.82545700  1
  H  2035  1  0.80699100  0.29797900  0.83278200  1
  H  2036  1  0.77962400  0.27886500  0.83370700  1
  H  2038  1  0.76615200  0.30341500  0.92309100  1
  H  2039  1  0.75379500  0.32538600  0.91509800  1
  H  2040  1  0.72577000  0.30656200  0.91506600  1
  H  2042  1  0.81702700  0.29517100  0.91189800  1
  H  2044  1  0.71230000  0.30673900  0.83924300  1
  H  2050  1  0.72058500  0.68296400  0.26173100  1
  H  2052  1  0.81343900  0.72113100  0.27934900  1
  H  2054  1  0.76596500  0.70397100  0.31923700  1
  H  2055  1  0.80701100  0.70650800  0.31191600  1
  H  2056  1  0.77961200  0.72560700  0.31097500  1
  H  2058  1  0.76613700  0.70102900  0.22160800  1
  H  2059  1  0.75380700  0.67905300  0.22960100  1
  H  2060  1  0.72576500  0.69787000  0.22964400  1
  H  2062  1  0.81702000  0.70927700  0.23278700  1
  H  2064  1  0.71229500  0.69770900  0.30543100  1
  H  2070  1  0.31799600  0.19160000  0.75307400  1
  H  2072  1  0.22516800  0.20921900  0.79125800  1
  H  2074  1  0.27264800  0.24910800  0.77410400  1
  H  2075  1  0.23160200  0.24178600  0.77663900  1
  H  2076  1  0.25900100  0.24084000  0.79573900  1
  H  2078  1  0.27243100  0.15147600  0.77113000  1
  H  2079  1  0.28475400  0.15948000  0.74915600  1
  H  2080  1  0.31280600  0.15950600  0.76796800  1
  H  2082  1  0.22156600  0.16266000  0.77939600  1
  H  2084  1  0.32630800  0.23530200  0.76783300  1
  H  2090  1  0.31803800  0.81282900  0.39157900  1
  H  2092  1  0.22514300  0.79521900  0.35344100  1
  H  2094  1  0.27259200  0.75532500  0.37061100  1
  H  2095  1  0.23155200  0.76265900  0.36807800  1
  H  2096  1  0.25893900  0.76358300  0.34897300  1
  H  2098  1  0.27251500  0.85295700  0.37350400  1
  H  2099  1  0.28485300  0.84496900  0.39548300  1
  H  2100  1  0.31288300  0.84490800  0.37665800  1
  H  2102  1  0.22162700  0.84179500  0.36526200  1
  H  2104  1  0.32627400  0.76911700  0.37685300  1
  H  2110  1  0.31802600  0.68296200  0.88296700  1
  H  2112  1  0.22520900  0.72114800  0.86533300  1
  H  2114  1  0.27267500  0.70396800  0.82545200  1
  H  2115  1  0.23163300  0.70651600  0.83277500  1
  H  2116  1  0.25904500  0.72561000  0.83371000  1
  H  2118  1  0.27246600  0.70103300  0.92308500  1
  H  2119  1  0.28478900  0.67905600  0.91508800  1
  H  2120  1  0.31284100  0.69786800  0.91505500  1
  H  2122  1  0.22160600  0.70931000  0.91189800  1
  H  2124  1  0.32632600  0.69771000  0.83925100  1
  H  2130  1  0.31804000  0.32146400  0.26172400  1
  H  2132  1  0.22522600  0.28327200  0.27935200  1
  H  2134  1  0.27269500  0.30044900  0.31923600  1
  H  2135  1  0.23165000  0.29790000  0.31191700  1
  H  2136  1  0.25906700  0.27880800  0.31097500  1
  H  2138  1  0.27249300  0.30338700  0.22160500  1
  H  2139  1  0.28481100  0.32536500  0.22959900  1
  H  2140  1  0.31286600  0.30655500  0.22963900  1
  H  2142  1  0.22162500  0.29511500  0.23278800  1
  H  2144  1  0.32635500  0.30671900  0.30542300  1
  H  2150  1  0.32753200  0.16761000  0.21091800  1
  H  2152  1  0.26146000  0.17067100  0.26659900  1
  H  2154  1  0.25533800  0.21276500  0.23823400  1
  H  2155  1  0.26103300  0.20596600  0.26130400  1
  H  2156  1  0.22761700  0.19693900  0.24831200  1
  H  2158  1  0.33381900  0.12560800  0.23970200  1
  H  2159  1  0.36120000  0.14166600  0.22961100  1
  H  2160  1  0.32863400  0.13193600  0.21643400  1
  H  2162  1  0.31922700  0.13733900  0.27013800  1
  H  2164  1  0.31736200  0.20568500  0.21304800  1
  H  2170  1  0.32766000  0.83678100  0.93369500  1
  H  2172  1  0.26139100  0.83381900  0.87808400  1
  H  2174  1  0.25517800  0.79172600  0.90644400  1
  H  2175  1  0.26081400  0.79852700  0.88337200  1
  H  2176  1  0.22749000  0.80759700  0.89640900  1
  H  2178  1  0.33407500  0.87876700  0.90490100  1
  H  2179  1  0.36139300  0.86267200  0.91498200  1
  H  2180  1  0.32890100  0.87245700  0.92817500  1
  H  2182  1  0.31929300  0.86705700  0.87447500  1
  H  2184  1  0.31742100  0.79882600  0.93169000  1
  H  2190  1  0.32756600  0.86363500  0.23774900  1
  H  2192  1  0.26140300  0.80798400  0.24075200  1
  H  2194  1  0.25526200  0.83633100  0.28285600  1
  H  2195  1  0.26092000  0.81326100  0.27604600  1
  H  2196  1  0.22754500  0.82628000  0.26700900  1
  H  2198  1  0.33387600  0.83486600  0.19573700  1
  H  2199  1  0.36124700  0.84493500  0.21181200  1
  H  2200  1  0.32871600  0.85813400  0.20207400  1
  H  2202  1  0.31922400  0.80443400  0.20744500  1
  H  2204  1  0.31731800  0.86147400  0.27582700  1
  H  2210  1  0.32762000  0.14083200  0.90692300  1
  H  2212  1  0.26150400  0.19649900  0.90392300  1
  H  2214  1  0.25531800  0.16815400  0.86182000  1
  H  2215  1  0.26100400  0.19122100  0.86862900  1
  H  2216  1  0.22762100  0.17821100  0.87767200  1
  H  2218  1  0.33398900  0.16960800  0.94892700  1
  H  2219  1  0.36133300  0.15951700  0.93285000  1
  H  2220  1  0.32878500  0.14634200  0.94260100  1
  H  2222  1  0.31933000  0.20003200  0.93723900  1
  H  2224  1  0.31744600  0.14289100  0.86892400  1
  H  2230  1  0.71113600  0.83685400  0.21087600  1
  H  2232  1  0.77710400  0.83377200  0.26659600  1
  H  2234  1  0.78321100  0.79167100  0.23824100  1
  H  2235  1  0.77748600  0.79847300  0.26130800  1
  H  2236  1  0.81093500  0.80748500  0.24833300  1
  H  2238  1  0.70488500  0.87887200  0.23964100  1
  H  2239  1  0.67748700  0.86282800  0.22954500  1
  H  2240  1  0.71009500  0.87253000  0.21637900  1
  H  2242  1  0.71939100  0.86715800  0.27007900  1
  H  2244  1  0.72129800  0.79870800  0.21310900  1
  H  2250  1  0.71107400  0.16764100  0.93373800  1
  H  2252  1  0.77718300  0.17062200  0.87806600  1
  H  2254  1  0.78338100  0.21273300  0.90640000  1
  H  2255  1  0.77768800  0.20591800  0.88333600  1
  H  2256  1  0.81107300  0.19687500  0.89634300  1
  H  2258  1  0.70469500  0.12562800  0.90497700  1
  H  2259  1  0.67735600  0.14170900  0.91506300  1
  H  2260  1  0.70990700  0.13196300  0.92824100  1
  H  2262  1  0.71934900  0.13730300  0.87455000  1
  H  2264  1  0.72124800  0.20564100  0.93166200  1
  H  2270  1  0.71107600  0.14077800  0.23774400  1
  H  2272  1  0.77714800  0.19646300  0.24075000  1
  H  2274  1  0.78327300  0.16813700  0.28287100  1
  H  2275  1  0.77758500  0.19120100  0.27604900  1
  H  2276  1  0.81099400  0.17819800  0.26703200  1
  H  2278  1  0.70479400  0.16951800  0.19571200  1
  H  2279  1  0.67741000  0.15944700  0.21177800  1
  H  2280  1  0.70997900  0.14625700  0.20206700  1
  H  2282  1  0.71937600  0.19995600  0.20740200  1
  H  2284  1  0.72127100  0.14295700  0.27583300  1
  H  2290  1  0.71104200  0.86357000  0.90688700  1
  H  2292  1  0.77721500  0.80791900  0.90393800  1
  H  2294  1  0.78344000  0.83625400  0.86182800  1
  H  2295  1  0.77775700  0.81318700  0.86864100  1
  H  2296  1  0.81111700  0.82620400  0.87769700  1
  H  2298  1  0.70464600  0.83481400  0.94890100  1
  H  2299  1  0.67731400  0.84488800  0.93280900  1
  H  2300  1  0.70984100  0.85807800  0.94256500  1
  H  2302  1  0.71934700  0.80438900  0.93724300  1
  H  2304  1  0.72126600  0.86149100  0.86889100  1
  H  2310  1  0.82574400  0.66727000  0.71061000  1
  H  2312  1  0.76097000  0.67080100  0.76674300  1
  H  2314  1  0.75512400  0.71291100  0.73834400  1
  H  2315  1  0.76125400  0.70613800  0.76139000  1
  H  2316  1  0.72731900  0.69730400  0.74868900  1
  H  2318  1  0.83192000  0.62528700  0.73941900  1
  H  2319  1  0.85935100  0.64117600  0.72911100  1
  H  2320  1  0.82632600  0.63160600  0.71617800  1
  H  2322  1  0.81804600  0.63712300  0.76993900  1
  H  2324  1  0.81641600  0.70525200  0.71250500  1
  H  2330  1  0.82590900  0.33712000  0.43400100  1
  H  2332  1  0.76092300  0.33368100  0.37793800  1
  H  2334  1  0.75498400  0.29157600  0.40634100  1
  H  2335  1  0.76105600  0.29834400  0.38328900  1
  H  2336  1  0.72721300  0.30722800  0.39603200  1
  H  2338  1  0.83220900  0.37908400  0.40517800  1
  H  2339  1  0.85958000  0.36315600  0.41547400  1
  H  2340  1  0.82663000  0.37278400  0.42842400  1
  H  2342  1  0.81814000  0.36726900  0.37467000  1
  H  2344  1  0.81648200  0.29923700  0.43221200  1
  H  2350  1  0.82584500  0.36388500  0.73744900  1
  H  2352  1  0.76083200  0.30783100  0.74085600  1
  H  2354  1  0.75492700  0.33619900  0.78298100  1
  H  2355  1  0.76097500  0.31315400  0.77618800  1
  H  2356  1  0.72713400  0.32591400  0.76732600  1
  H  2358  1  0.83210300  0.33509100  0.69546100  1
  H  2359  1  0.85950400  0.34535100  0.71139800  1
  H  2360  1  0.82658000  0.35833600  0.70178700  1
  H  2362  1  0.81805300  0.30458900  0.70725100  1
  H  2364  1  0.81639100  0.36205000  0.77535400  1
  H  2370  1  0.82587500  0.64051200  0.40728000  1
  H  2372  1  0.76104600  0.69663000  0.40379400  1
  H  2374  1  0.75513900  0.66823800  0.36168200  1
  H  2375  1  0.76125600  0.69128300  0.36845800  1
  H  2376  1  0.72735600  0.67856900  0.37731200  1
  H  2378  1  0.83212800  0.66932100  0.44925700  1
  H  2379  1  0.85952100  0.65901000  0.43335100  1
  H  2380  1  0.82651600  0.64608000  0.44294400  1
  H  2382  1  0.81817900  0.69982700  0.43746000  1
  H  2384  1  0.81652200  0.64234500  0.36935700  1
  H  2390  1  0.21290400  0.33719500  0.71057600  1
  H  2392  1  0.27760100  0.33364700  0.76673600  1
  H  2394  1  0.28345700  0.29153700  0.73833600  1
  H  2395  1  0.27729300  0.29830500  0.76138100  1
  H  2396  1  0.31125500  0.30713600  0.74870100  1
  H  2398  1  0.20673800  0.37918300  0.73937800  1
  H  2399  1  0.17930000  0.36330200  0.72906300  1
  H  2400  1  0.21235100  0.37285600  0.71613900  1
  H  2402  1  0.22056000  0.36736100  0.76989300  1
  H  2404  1  0.22223900  0.29915400  0.71255300  1
  H  2410  1  0.21279900  0.66730000  0.43404600  1
  H  2412  1  0.27763300  0.67076500  0.37792900  1
  H  2414  1  0.28356800  0.71288000  0.40631700  1
  H  2415  1  0.27744100  0.70610400  0.38327300  1
  H  2416  1  0.31133900  0.69724300  0.39598600  1
  H  2418  1  0.20652400  0.62531900  0.40524300  1
  H  2419  1  0.17913800  0.64123200  0.41555100  1
  H  2420  1  0.21213900  0.63163500  0.42848200  1
  H  2422  1  0.22048200  0.63711000  0.37473700  1
  H  2424  1  0.22217000  0.70522300  0.43220000  1
  H  2430  1  0.21285700  0.64047600  0.73740900  1
  H  2432  1  0.27764800  0.69660700  0.74089100  1
  H  2434  1  0.28351300  0.66823400  0.78301800  1
  H  2435  1  0.27739400  0.69127700  0.77623200  1
  H  2436  1  0.31131400  0.67856400  0.76739800  1
  H  2438  1  0.20667200  0.66925300  0.69540600  1
  H  2439  1  0.17924200  0.65896100  0.71130600  1
  H  2440  1  0.21226200  0.64601800  0.70174400  1
  H  2442  1  0.22055100  0.69977000  0.70720800  1
  H  2444  1  0.22222600  0.64240900  0.77540400  1
  H  2450  1  0.21278300  0.36388400  0.40722900  1
  H  2452  1  0.27768000  0.30778800  0.40379700  1
  H  2454  1  0.28363400  0.33617200  0.36168100  1
  H  2455  1  0.27752200  0.31312600  0.36845600  1
  H  2456  1  0.31139500  0.32585100  0.37732900  1
  H  2458  1  0.20649700  0.33509100  0.44921400  1
  H  2459  1  0.17911500  0.34538500  0.43329000  1
  H  2460  1  0.21209300  0.35833000  0.44289300  1
  H  2462  1  0.22049500  0.30458800  0.43744300  1
  H  2464  1  0.22219500  0.36203300  0.36931000  1
  H  2470  1  0.98703500  0.08470600  0.39807200  1
  H  2472  1  0.05270100  0.07967300  0.34237200  1
  H  2474  1  0.96361700  0.07564200  0.33352100  1
  H  2475  1  0.00099100  0.06489800  0.32770000  1
  H  2476  1  0.99643500  0.08913500  0.32495200  1
  H  2478  1  0.07648200  0.08805100  0.40683200  1
  H  2479  1  0.04308000  0.07479900  0.41511200  1
  H  2480  1  0.03961600  0.09917000  0.41308000  1
  H  2482  1  0.09982100  0.07257300  0.37998800  1
  H  2484  1  0.94043400  0.06928300  0.37492800  1
  H  2490  1  0.98707900  0.91968700  0.74660500  1
  H  2492  1  0.05273300  0.92480500  0.80230400  1
  H  2494  1  0.96363500  0.92879700  0.81114800  1
  H  2495  1  0.00097800  0.93958100  0.81695500  1
  H  2496  1  0.99649200  0.91534300  0.81973100  1
  H  2498  1  0.07653100  0.91636500  0.73785000  1
  H  2499  1  0.04310600  0.92958600  0.72955200  1
  H  2500  1  0.03968400  0.90521600  0.73162200  1
  H  2502  1  0.09986200  0.93186100  0.76467500  1
  H  2504  1  0.94047900  0.93514100  0.76973500  1
  H  2510  1  0.98703000  0.67648900  0.15487500  1
  H  2512  1  0.05267800  0.73219000  0.14978500  1
  H  2514  1  0.96357800  0.74102900  0.14579400  1
  H  2515  1  0.00092200  0.74684400  0.13501200  1
  H  2516  1  0.99643000  0.74961300  0.15925000  1
  H  2518  1  0.07648400  0.66773900  0.15820900  1
  H  2519  1  0.04307400  0.65944500  0.14497200  1
  H  2520  1  0.03962800  0.66149700  0.16934200  1
  H  2522  1  0.09980400  0.69457500  0.14270200  1
  H  2524  1  0.94045100  0.69976900  0.13935200  1
  H  2530  1  0.98708900  0.32795300  0.98980800  1
  H  2532  1  0.05273200  0.27225300  0.99494100  1
  H  2534  1  0.96363500  0.26341600  0.99893800  1
  H  2535  1  0.00097800  0.25761000  0.00972200  1
  H  2536  1  0.99648700  0.25482600  0.98548500  1
  H  2538  1  0.07654300  0.33670100  0.98647900  1
  H  2539  1  0.04312000  0.34500600  0.99969900  1
  H  2540  1  0.03969700  0.34292900  0.97533100  1
  H  2542  1  0.09986500  0.30987700  0.00199100  1
  H  2544  1  0.94048600  0.30483400  0.00527000  1
  H  2550  1  0.05158200  0.91970000  0.39809100  1
  H  2552  1  0.98595700  0.92473900  0.34237800  1
  H  2554  1  0.07505500  0.92874800  0.33354700  1
  H  2555  1  0.03770100  0.93950800  0.32771900  1
  H  2556  1  0.04222500  0.91526900  0.32497000  1
  H  2558  1  0.96212300  0.91638100  0.40683300  1
  H  2559  1  0.99554000  0.92961900  0.41511900  1
  H  2560  1  0.99897000  0.90524600  0.41309000  1
  H  2562  1  0.93883100  0.93187900  0.37994900  1
  H  2564  1  0.09818100  0.93515200  0.37489700  1
  H  2570  1  0.05156800  0.08470700  0.74663100  1
  H  2572  1  0.98585600  0.07965200  0.80231300  1
  H  2574  1  0.07493800  0.07565500  0.81119200  1
  H  2575  1  0.03758100  0.06488500  0.81699600  1
  H  2576  1  0.04208100  0.08912500  0.81975000  1
  H  2578  1  0.96212800  0.08803500  0.73784400  1
  H  2579  1  0.99555400  0.07479900  0.72956900  1
  H  2580  1  0.99898800  0.09917000  0.73161600  1
  H  2582  1  0.93875700  0.07257600  0.76466600  1
  H  2584  1  0.09813800  0.06928500  0.76976300  1
  H  2590  1  0.05157100  0.32795300  0.15493300  1
  H  2592  1  0.98593500  0.27224900  0.14982500  1
  H  2594  1  0.07503200  0.26341700  0.14582000  1
  H  2595  1  0.03768500  0.25760500  0.13504300  1
  H  2596  1  0.04218800  0.25482500  0.15927900  1
  H  2598  1  0.96211800  0.33669700  0.15826900  1
  H  2599  1  0.99552500  0.34499500  0.14503500  1
  H  2600  1  0.99897000  0.34293800  0.16940400  1
  H  2602  1  0.93880400  0.30986100  0.14275500  1
  H  2604  1  0.09816300  0.30474500  0.13943500  1
  H  2610  1  0.05158900  0.67648600  0.98981600  1
  H  2612  1  0.98589300  0.73217800  0.99483000  1
  H  2614  1  0.07498100  0.74105000  0.99882200  1
  H  2615  1  0.03762700  0.74686500  0.00959000  1
  H  2616  1  0.04212600  0.74960400  0.98534800  1
  H  2618  1  0.96214500  0.66770400  0.98650700  1
  H  2619  1  0.99557900  0.65943800  0.99973900  1
  H  2620  1  0.99899300  0.66146400  0.97536700  1
  H  2622  1  0.93879400  0.69457600  0.00197200  1
  H  2624  1  0.09816100  0.69965400  0.00523900  1
  H  2630  1  0.48702400  0.58142800  0.89748100  1
  H  2632  1  0.55258300  0.57771600  0.84164000  1
  H  2634  1  0.46348300  0.57388800  0.83274700  1
  H  2635  1  0.50084900  0.56329400  0.82665000  1
  H  2636  1  0.49627900  0.58758900  0.82448800  1
  H  2638  1  0.57649100  0.58462200  0.90625600  1
  H  2639  1  0.54312600  0.57116800  0.91425500  1
  H  2640  1  0.53962100  0.59557700  0.91277900  1
  H  2642  1  0.59980000  0.56974500  0.87905600  1
  H  2644  1  0.44040600  0.56644300  0.87388200  1
  H  2650  1  0.48706100  0.42314900  0.24724900  1
  H  2652  1  0.55264700  0.42666600  0.30309400  1
  H  2654  1  0.46355700  0.43046300  0.31201800  1
  H  2655  1  0.50092800  0.44103200  0.31814600  1
  H  2656  1  0.49635800  0.41673000  0.32021800  1
  H  2658  1  0.57651800  0.41999100  0.23844600  1
  H  2659  1  0.54314300  0.43346500  0.23049800  1
  H  2660  1  0.53965100  0.40905100  0.23189700  1
  H  2662  1  0.59985200  0.43475400  0.26567900  1
  H  2664  1  0.44044800  0.43800900  0.27081500  1
  H  2670  1  0.48701200  0.17707900  0.65157300  1
  H  2672  1  0.55258300  0.23291300  0.64782300  1
  H  2674  1  0.46348300  0.24181100  0.64401800  1
  H  2675  1  0.50083700  0.24789900  0.63340100  1
  H  2676  1  0.49630100  0.25007600  0.65769800  1
  H  2678  1  0.57647600  0.16829800  0.65476000  1
  H  2679  1  0.54310600  0.16029400  0.64131600  1
  H  2680  1  0.53961100  0.16178400  0.66572500  1
  H  2682  1  0.59979000  0.19548700  0.63986800  1
  H  2684  1  0.44041900  0.20074600  0.63654000  1
  H  2690  1  0.48707100  0.82730700  0.49324500  1
  H  2692  1  0.55263700  0.77145900  0.49680600  1
  H  2694  1  0.46354300  0.76254700  0.50060700  1
  H  2695  1  0.50091100  0.75642300  0.51118400  1
  H  2696  1  0.49634300  0.75433200  0.48688200  1
  H  2698  1  0.57653300  0.83609700  0.49008500  1
  H  2699  1  0.54315800  0.84405900  0.50355000  1
  H  2700  1  0.53966800  0.84264300  0.47913800  1
  H  2702  1  0.59984900  0.80887100  0.50487500  1
  H  2704  1  0.44044800  0.80375900  0.50812300  1
  H  2710  1  0.55158100  0.42310600  0.89748000  1
  H  2712  1  0.48605200  0.42668000  0.84161800  1
  H  2714  1  0.57515200  0.43051700  0.83273200  1
  H  2715  1  0.53777100  0.44107500  0.82660000  1
  H  2716  1  0.54238400  0.41677700  0.82449900  1
  H  2718  1  0.46211200  0.41992800  0.90624500  1
  H  2719  1  0.49547500  0.43339700  0.91422100  1
  H  2720  1  0.49897700  0.40898600  0.91279900  1
  H  2722  1  0.43883300  0.43476200  0.87898300  1
  H  2724  1  0.59821700  0.43801800  0.87388600  1
  H  2730  1  0.55159100  0.58111000  0.24731400  1
  H  2732  1  0.48595100  0.57787600  0.30315600  1
  H  2734  1  0.57502800  0.57410500  0.31212600  1
  H  2735  1  0.53764000  0.56357700  0.31829400  1
  H  2736  1  0.54223300  0.58788900  0.32024900  1
  H  2738  1  0.46214400  0.58423800  0.23846800  1
  H  2739  1  0.49551400  0.57071500  0.23060000  1
  H  2740  1  0.49902900  0.59513400  0.23187500  1
  H  2742  1  0.43877600  0.56962000  0.26574900  1
  H  2744  1  0.59817500  0.56637100  0.27093800  1
  H  2750  1  0.55158400  0.82734400  0.65156300  1
  H  2752  1  0.48602500  0.77150000  0.64787700  1
  H  2754  1  0.57512200  0.76260800  0.64404000  1
  H  2755  1  0.53774900  0.75650300  0.63345500  1
  H  2756  1  0.54233700  0.75435200  0.65775000  1
  H  2758  1  0.46211900  0.83611800  0.65476400  1
  H  2759  1  0.49547500  0.84411400  0.64130400  1
  H  2760  1  0.49899200  0.84264500  0.66571200  1
  H  2762  1  0.43880800  0.80891700  0.63989300  1
  H  2764  1  0.59820200  0.80374300  0.63658500  1
  H  2770  1  0.55159900  0.17714100  0.49330500  1
  H  2772  1  0.48598100  0.23298200  0.49669800  1
  H  2774  1  0.57506800  0.24192900  0.50048400  1
  H  2775  1  0.53769000  0.24807200  0.51103800  1
  H  2776  1  0.54226800  0.25009500  0.48673200  1
  H  2778  1  0.46214400  0.16831600  0.49017200  1
  H  2779  1  0.49553100  0.16040400  0.50365800  1
  H  2780  1  0.49901200  0.16174800  0.47924000  1
  H  2782  1  0.43880100  0.19560300  0.50488800  1
  H  2784  1  0.59819200  0.20074800  0.50812100  1
  C  1  1  0.18115000  0.10345800  0.33479500  1
  C  2  1  0.20611500  0.09413800  0.34484800  1
  C  3  1  0.24861400  0.10329800  0.32058300  1
  C  4  1  0.22360300  0.11169500  0.30977900  1
  C  5  1  0.23259300  0.12097900  0.29319500  1
  C  6  1  0.26566100  0.12291800  0.28764400  1
  C  7  1  0.29024000  0.11425200  0.29842300  1
  C  8  1  0.28172800  0.10433500  0.31448900  1
  C  9  1  0.19747800  0.08460400  0.36123900  1
  C  10  1  0.16449200  0.08371100  0.36726300  1
  C  11  1  0.13931600  0.09279400  0.35729700  1
  C  12  1  0.14820700  0.10295200  0.34147800  1
  C  13  1  0.18075200  0.13280300  0.31890700  1
  C  14  1  0.15673400  0.14156800  0.30767500  1
  C  15  1  0.14303400  0.11089200  0.29217700  1
  C  16  1  0.16823100  0.10190400  0.30236500  1
  C  17  1  0.12318400  0.10040700  0.27999100  1
  C  18  1  0.12720300  0.08115800  0.27839800  1
  C  19  1  0.15158200  0.07178800  0.28873900  1
  C  20  1  0.17250500  0.08246100  0.30009500  1
  C  21  1  0.19964500  0.14383500  0.33134500  1
  C  22  1  0.19592000  0.16323500  0.33231000  1
  C  23  1  0.17226500  0.17164500  0.32081400  1
  C  24  1  0.15244100  0.16093600  0.30898500  1
  C  37  1  0.18841000  0.11246500  0.31645000  1
  C  38  1  0.13656800  0.13106900  0.29405000  1
  C  41  1  0.24100200  0.09383600  0.33838600  1
  C  48  1  0.18119000  0.90099200  0.80988500  1
  C  49  1  0.20615400  0.91030800  0.79982800  1
  C  50  1  0.24865900  0.90115600  0.82409200  1
  C  51  1  0.22364800  0.89276000  0.83489800  1
  C  52  1  0.23264800  0.88348100  0.85148400  1
  C  53  1  0.26571700  0.88154300  0.85703200  1
  C  54  1  0.29029200  0.89021500  0.84625400  1
  C  55  1  0.28177500  0.90012000  0.83018100  1
  C  56  1  0.19751400  0.91983800  0.78343300  1
  C  57  1  0.16452700  0.92073300  0.77741200  1
  C  58  1  0.13935100  0.91165500  0.78738400  1
  C  59  1  0.14824500  0.90149900  0.80320400  1
  C  60  1  0.18080100  0.87164900  0.82577700  1
  C  61  1  0.15677700  0.86288400  0.83700500  1
  C  62  1  0.14308100  0.89355900  0.85250200  1
  C  63  1  0.16827700  0.90254800  0.84231600  1
  C  64  1  0.12323300  0.90404400  0.86469100  1
  C  65  1  0.12725300  0.92329300  0.86628500  1
  C  66  1  0.15163100  0.93266300  0.85594400  1
  C  67  1  0.17256100  0.92199000  0.84459200  1
  C  68  1  0.19971400  0.86061000  0.81335600  1
  C  69  1  0.19595900  0.84121400  0.81237200  1
  C  70  1  0.17229200  0.83280500  0.82386000  1
  C  71  1  0.15247800  0.84351600  0.83569300  1
  C  84  1  0.18845500  0.89198700  0.82823100  1
  C  85  1  0.13661100  0.87338400  0.85062900  1
  C  88  1  0.24104300  0.91060900  0.80628400  1
  C  95  1  0.18114300  0.73977600  0.17357200  1
  C  96  1  0.20610500  0.72972500  0.16424500  1
  C  97  1  0.24860700  0.75398900  0.17340500  1
  C  98  1  0.22359900  0.76479000  0.18180800  1
  C  99  1  0.23259000  0.78137500  0.19109100  1
  C  100  1  0.26565800  0.78693000  0.19302000  1
  C  101  1  0.29023500  0.77615600  0.18434700  1
  C  102  1  0.28172300  0.76007600  0.17445200  1
  C  103  1  0.19746300  0.71333800  0.15470500  1
  C  104  1  0.16448000  0.70730600  0.15382600  1
  C  105  1  0.13930700  0.71727300  0.16291000  1
  C  106  1  0.14820200  0.73308700  0.17307700  1
  C  107  1  0.18075400  0.75566200  0.20291900  1
  C  108  1  0.15672900  0.76689000  0.21168400  1
  C  109  1  0.14302500  0.78238800  0.18100800  1
  C  110  1  0.16822400  0.77220400  0.17202000  1
  C  111  1  0.12317200  0.79457400  0.17052500  1
  C  112  1  0.12719300  0.79617000  0.15127700  1
  C  113  1  0.15157100  0.78583100  0.14190600  1
  C  114  1  0.17250800  0.77448100  0.15257900  1
  C  115  1  0.19965800  0.74322800  0.21394900  1
  C  116  1  0.19595500  0.74228100  0.23335000  1
  C  117  1  0.17227400  0.75375600  0.24176300  1
  C  118  1  0.15243800  0.76557700  0.23105200  1
  C  131  1  0.18840600  0.75811900  0.18258000  1
  C  132  1  0.13655600  0.78051200  0.20118600  1
  C  135  1  0.24099200  0.73618800  0.16394100  1
  C  142  1  0.18120200  0.26466300  0.97112400  1
  C  143  1  0.20616400  0.27472600  0.98043900  1
  C  144  1  0.24868100  0.25047000  0.97127900  1
  C  145  1  0.22367600  0.23966000  0.96288200  1
  C  146  1  0.23267800  0.22307900  0.95359600  1
  C  147  1  0.26574900  0.21753300  0.95166100  1
  C  148  1  0.29032400  0.22831800  0.96032400  1
  C  149  1  0.28179900  0.24439200  0.97022600  1
  C  150  1  0.19752300  0.29112300  0.98996100  1
  C  151  1  0.16453300  0.29714000  0.99085900  1
  C  152  1  0.13935400  0.28715600  0.98179900  1
  C  153  1  0.14825300  0.27133900  0.97164300  1
  C  154  1  0.18081800  0.24878100  0.94177600  1
  C  155  1  0.15679600  0.23755200  0.93301200  1
  C  156  1  0.14311000  0.22204700  0.96368500  1
  C  157  1  0.16831000  0.23223100  0.97267200  1
  C  158  1  0.12327000  0.20985400  0.97416900  1
  C  159  1  0.12728200  0.20826600  0.99341800  1
  C  160  1  0.15165700  0.21860900  0.00278800  1
  C  161  1  0.17259700  0.22995500  0.99211300  1
  C  162  1  0.19972600  0.26120800  0.93074100  1
  C  163  1  0.19595700  0.26220400  0.91134500  1
  C  164  1  0.17229800  0.25071100  0.90293500  1
  C  165  1  0.15251100  0.23885900  0.91364300  1
  C  178  1  0.18847900  0.24632300  0.96211400  1
  C  179  1  0.13663100  0.22392600  0.94350900  1
  C  182  1  0.24105700  0.26827200  0.98073800  1
  C  189  1  0.85749100  0.90098500  0.33477100  1
  C  190  1  0.83252700  0.91030200  0.34482900  1
  C  191  1  0.79002300  0.90115100  0.32056100  1
  C  192  1  0.81502900  0.89274800  0.30975800  1
  C  193  1  0.80603400  0.88346700  0.29317300  1
  C  194  1  0.77296500  0.88153600  0.28762200  1
  C  195  1  0.74839000  0.89021200  0.29839600  1
  C  196  1  0.75690700  0.90010900  0.31447500  1
  C  197  1  0.84116800  0.91983300  0.36122100  1
  C  198  1  0.87414800  0.92070500  0.36725800  1
  C  199  1  0.89932900  0.91164400  0.35727500  1
  C  200  1  0.89043200  0.90148500  0.34145800  1
  C  201  1  0.85787100  0.87163800  0.31888600  1
  C  202  1  0.88190500  0.86287100  0.30766500  1
  C  203  1  0.89561400  0.89354600  0.29216800  1
  C  204  1  0.87040400  0.90253400  0.30234400  1
  C  205  1  0.91547800  0.90403100  0.27998800  1
  C  206  1  0.91144700  0.92327800  0.27838500  1
  C  207  1  0.88706300  0.93264800  0.28872200  1
  C  208  1  0.86610700  0.92197400  0.30005900  1
  C  209  1  0.83894500  0.86060300  0.33130600  1
  C  210  1  0.84269200  0.84120600  0.33228400  1
  C  211  1  0.86638300  0.83279400  0.32081600  1
  C  212  1  0.88618700  0.84350200  0.30897400  1
  C  225  1  0.85022200  0.89197600  0.31642900  1
  C  226  1  0.90208900  0.87337100  0.29404900  1
  C  229  1  0.79764000  0.91060600  0.33836800  1
  C  236  1  0.85743000  0.10343100  0.80988900  1
  C  237  1  0.83246800  0.09410500  0.79983900  1
  C  238  1  0.78997400  0.10325600  0.82411000  1
  C  239  1  0.81498300  0.11165900  0.83491300  1
  C  240  1  0.80599200  0.12093200  0.85150400  1
  C  241  1  0.77292300  0.12287400  0.85704900  1
  C  242  1  0.74834600  0.11419700  0.84627800  1
  C  243  1  0.75685800  0.10429700  0.83020200  1
  C  244  1  0.84110300  0.08457200  0.78344700  1
  C  245  1  0.87408600  0.08368600  0.77741800  1
  C  246  1  0.89926000  0.09278600  0.78737200  1
  C  247  1  0.89036800  0.10293200  0.80319700  1
  C  248  1  0.85781900  0.13277300  0.82578400  1
  C  249  1  0.88185600  0.14153600  0.83700300  1
  C  250  1  0.89557700  0.11085900  0.85249300  1
  C  251  1  0.87036400  0.10187400  0.84231600  1
  C  252  1  0.91544500  0.10037200  0.86466700  1
  C  253  1  0.91142500  0.08112300  0.86626000  1
  C  254  1  0.88702800  0.07175600  0.85593000  1
  C  255  1  0.86607000  0.08243300  0.84459700  1
  C  256  1  0.83888800  0.14381000  0.81336800  1
  C  257  1  0.84263800  0.16320800  0.81239100  1
  C  258  1  0.86633600  0.17161600  0.82385800  1
  C  259  1  0.88614000  0.16090600  0.83569700  1
  C  272  1  0.85017300  0.11243300  0.82823600  1
  C  273  1  0.90204700  0.13103500  0.85061600  1
  C  276  1  0.79758300  0.09379700  0.80630700  1
  C  283  1  0.85746200  0.26464100  0.17358700  1
  C  284  1  0.83250000  0.27470300  0.16427100  1
  C  285  1  0.78999100  0.25043600  0.17341000  1
  C  286  1  0.81500200  0.23961900  0.18179400  1
  C  287  1  0.80600700  0.22301700  0.19104600  1
  C  288  1  0.77294000  0.21745500  0.19296500  1
  C  289  1  0.74835800  0.22827300  0.18435200  1
  C  290  1  0.75687300  0.24435500  0.17446000  1
  C  291  1  0.84114500  0.29110100  0.15475000  1
  C  292  1  0.87412800  0.29713100  0.15387500  1
  C  293  1  0.89929900  0.28715500  0.16295200  1
  C  294  1  0.89040500  0.27132600  0.17309200  1
  C  295  1  0.85783200  0.24872900  0.20292000  1
  C  296  1  0.88185600  0.23750100  0.21168400  1
  C  297  1  0.89558700  0.22202700  0.18100000  1
  C  298  1  0.87038600  0.23221300  0.17201500  1
  C  299  1  0.91544800  0.20985000  0.17051100  1
  C  300  1  0.91142300  0.20825700  0.15126200  1
  C  301  1  0.88704300  0.21859800  0.14189500  1
  C  302  1  0.86611700  0.22995100  0.15257000  1
  C  303  1  0.83891100  0.26114900  0.21396000  1
  C  304  1  0.84262800  0.26210400  0.23336000  1
  C  305  1  0.86632600  0.25063500  0.24176700  1
  C  306  1  0.88613500  0.23880100  0.23105400  1
  C  319  1  0.85019300  0.24629000  0.18257800  1
  C  320  1  0.90204700  0.22389300  0.20117900  1
  C  323  1  0.79761100  0.26824700  0.16396800  1
  C  330  1  0.85745200  0.73976100  0.97110600  1
  C  331  1  0.83249300  0.72969600  0.98042000  1
  C  332  1  0.78997900  0.75396000  0.97128000  1
  C  333  1  0.81498500  0.76477800  0.96289700  1
  C  334  1  0.80599200  0.78137900  0.95364300  1
  C  335  1  0.77291300  0.78691400  0.95169700  1
  C  336  1  0.74833600  0.77611200  0.96033200  1
  C  337  1  0.75685800  0.76003600  0.97023100  1
  C  338  1  0.84114000  0.71329900  0.98994200  1
  C  339  1  0.87412600  0.70727000  0.99081400  1
  C  340  1  0.89929700  0.71724900  0.98174000  1
  C  341  1  0.89039800  0.73307800  0.97160100  1
  C  342  1  0.85781900  0.75567100  0.94177200  1
  C  343  1  0.88183900  0.76690400  0.93300800  1
  C  344  1  0.89556000  0.78238200  0.96369100  1
  C  345  1  0.87036700  0.77219200  0.97267600  1
  C  346  1  0.91541100  0.79456400  0.97417800  1
  C  347  1  0.91138800  0.79615600  0.99342700  1
  C  348  1  0.88701800  0.78580800  0.00279700  1
  C  349  1  0.86609700  0.77445200  0.99212200  1
  C  350  1  0.83891600  0.74324200  0.93073400  1
  C  351  1  0.84261000  0.74230400  0.91133000  1
  C  352  1  0.86630200  0.75377700  0.90292400  1
  C  353  1  0.88611800  0.76560500  0.91363700  1
  C  366  1  0.85018000  0.75811100  0.96211400  1
  C  367  1  0.90201800  0.78051800  0.94351200  1
  C  370  1  0.79760300  0.73614900  0.98072500  1
  C  377  1  0.85827300  0.90028200  0.80931600  1
  C  378  1  0.83354600  0.90949200  0.79897400  1
  C  379  1  0.79051200  0.90069100  0.82308700  1
  C  380  1  0.81539000  0.89271800  0.83429800  1
  C  381  1  0.80616500  0.88382400  0.85105000  1
  C  382  1  0.77298200  0.88156500  0.85622500  1
  C  383  1  0.74848400  0.88974000  0.84502000  1
  C  384  1  0.75723800  0.89949600  0.82888600  1
  C  385  1  0.84260800  0.91887100  0.78256200  1
  C  386  1  0.87577600  0.91978700  0.77685500  1
  C  387  1  0.90066100  0.91076700  0.78709900  1
  C  388  1  0.89135200  0.90063200  0.80285300  1
  C  389  1  0.85809800  0.87128900  0.82587200  1
  C  390  1  0.88146100  0.86263900  0.83761500  1
  C  391  1  0.89514100  0.89358900  0.85259600  1
  C  392  1  0.87067300  0.90250300  0.84180700  1
  C  393  1  0.91472800  0.90423900  0.86478000  1
  C  394  1  0.91098800  0.92354200  0.86591300  1
  C  395  1  0.88691700  0.93277700  0.85524400  1
  C  396  1  0.86688100  0.92203700  0.84346400  1
  C  397  1  0.83930800  0.86006900  0.81355200  1
  C  398  1  0.84252700  0.84062000  0.81314100  1
  C  399  1  0.86555400  0.83234000  0.82512400  1
  C  400  1  0.88526200  0.84320700  0.83687500  1
  C  413  1  0.85067100  0.89171100  0.82781700  1
  C  414  1  0.90128700  0.87333400  0.85125100  1
  C  417  1  0.79848900  0.90982800  0.80515900  1
  C  424  1  0.85824100  0.10413800  0.33535100  1
  C  425  1  0.83351600  0.09493300  0.34569700  1
  C  426  1  0.79048000  0.10371700  0.32158100  1
  C  427  1  0.81535700  0.11169100  0.31036800  1
  C  428  1  0.80612000  0.12057300  0.29361000  1
  C  429  1  0.77294000  0.12281900  0.28843000  1
  C  430  1  0.74844700  0.11463800  0.29963400  1
  C  431  1  0.75720600  0.10490300  0.31577900  1
  C  432  1  0.84257800  0.08556200  0.36211300  1
  C  433  1  0.87574600  0.08464900  0.36782100  1
  C  434  1  0.90063100  0.09366300  0.35757100  1
  C  435  1  0.89132300  0.10379100  0.34181300  1
  C  436  1  0.85805600  0.13312600  0.31878400  1
  C  437  1  0.88141400  0.14177700  0.30703900  1
  C  438  1  0.89510400  0.11082600  0.29206400  1
  C  439  1  0.87064000  0.10190900  0.30285900  1
  C  440  1  0.91468300  0.10017600  0.27987800  1
  C  441  1  0.91096400  0.08087200  0.27875200  1
  C  442  1  0.88692700  0.07163700  0.28944400  1
  C  443  1  0.86685700  0.08237400  0.30120700  1
  C  444  1  0.83926800  0.14434900  0.33110300  1
  C  445  1  0.84247700  0.16379800  0.33150500  1
  C  446  1  0.86550300  0.17207800  0.31952400  1
  C  447  1  0.88520800  0.16121000  0.30777200  1
  C  460  1  0.85063900  0.11270300  0.31684600  1
  C  461  1  0.90123600  0.13108200  0.29340000  1
  C  464  1  0.79845700  0.09459400  0.33951400  1
  C  471  1  0.85827100  0.26524700  0.97041900  1
  C  472  1  0.83354800  0.27558300  0.97963800  1
  C  473  1  0.79051200  0.25147200  0.97083400  1
  C  474  1  0.81539000  0.24026500  0.96285400  1
  C  475  1  0.80616200  0.22351200  0.95395800  1
  C  476  1  0.77298200  0.21832900  0.95171100  1
  C  477  1  0.74848400  0.22952800  0.95989500  1
  C  478  1  0.75723800  0.24567600  0.96962600  1
  C  479  1  0.84261300  0.29198900  0.98902600  1
  C  480  1  0.87577600  0.29770300  0.98992800  1
  C  481  1  0.90065800  0.28746000  0.98090500  1
  C  482  1  0.89135000  0.27171500  0.97075800  1
  C  483  1  0.85808800  0.24869400  0.94142200  1
  C  484  1  0.88145100  0.23695200  0.93277000  1
  C  485  1  0.89513800  0.22196600  0.96371700  1
  C  486  1  0.87067300  0.23275500  0.97263600  1
  C  487  1  0.91472300  0.20977800  0.97436500  1
  C  488  1  0.91098600  0.20863800  0.99366700  1
  C  489  1  0.88695700  0.21933400  0.00290500  1
  C  490  1  0.86688600  0.23109800  0.99217000  1
  C  491  1  0.83931000  0.26102700  0.93021100  1
  C  492  1  0.84246000  0.26139500  0.91075700  1
  C  493  1  0.86550500  0.24942700  0.90247200  1
  C  494  1  0.88523800  0.23768800  0.91333700  1
  C  507  1  0.85067100  0.24674600  0.96184500  1
  C  508  1  0.90127800  0.22331300  0.94346200  1
  C  511  1  0.79848900  0.26939700  0.97997400  1
  C  518  1  0.85825100  0.73921300  0.17426800  1
  C  519  1  0.83352600  0.72886100  0.16506700  1
  C  520  1  0.79048200  0.75297600  0.17385000  1
  C  521  1  0.81535500  0.76419000  0.18182700  1
  C  522  1  0.80612000  0.78094900  0.19070800  1
  C  523  1  0.77294000  0.78613600  0.19293700  1
  C  524  1  0.74844700  0.77492800  0.18476000  1
  C  525  1  0.75720800  0.75877200  0.17504400  1
  C  526  1  0.84258300  0.71243500  0.15571000  1
  C  527  1  0.87574900  0.70672400  0.15480600  1
  C  528  1  0.90063900  0.71698400  0.16380200  1
  C  529  1  0.89133000  0.73275000  0.17391800  1
  C  530  1  0.85805400  0.75577200  0.20326200  1
  C  531  1  0.88140900  0.76751900  0.21191100  1
  C  532  1  0.89509600  0.78249800  0.18096300  1
  C  533  1  0.87063800  0.77170400  0.17204500  1
  C  534  1  0.91466800  0.79469300  0.17031500  1
  C  535  1  0.91095100  0.79581500  0.15101000  1
  C  536  1  0.88693200  0.78511300  0.14177300  1
  C  537  1  0.86685400  0.77335500  0.15251100  1
  C  538  1  0.83928800  0.74343500  0.21447600  1
  C  539  1  0.84247200  0.74304400  0.23392800  1
  C  540  1  0.86548800  0.75503300  0.24220900  1
  C  541  1  0.88517600  0.76679600  0.23134700  1
  C  554  1  0.85063700  0.75771200  0.18283800  1
  C  555  1  0.90123300  0.78115800  0.20121900  1
  C  558  1  0.79846700  0.73504400  0.16472500  1
  C  565  1  0.18036400  0.10413400  0.80934800  1
  C  566  1  0.20508600  0.09493200  0.79899500  1
  C  567  1  0.24814100  0.10372800  0.82310000  1
  C  568  1  0.22327100  0.11170400  0.83431800  1
  C  569  1  0.23251500  0.12059200  0.85106900  1
  C  570  1  0.26570000  0.12284400  0.85624000  1
  C  571  1  0.29018800  0.11466300  0.84503300  1
  C  572  1  0.28141900  0.10493200  0.82888800  1
  C  573  1  0.19601200  0.08555300  0.78258600  1
  C  574  1  0.16284400  0.08464900  0.77687800  1
  C  575  1  0.13795800  0.09364200  0.78714600  1
  C  576  1  0.14728000  0.10378200  0.80289400  1
  C  577  1  0.18055900  0.13313000  0.82590100  1
  C  578  1  0.15720500  0.14178000  0.83765100  1
  C  579  1  0.14353500  0.11083100  0.85263700  1
  C  580  1  0.16799800  0.10191500  0.84184300  1
  C  581  1  0.12395500  0.10017900  0.86482100  1
  C  582  1  0.12770500  0.08087800  0.86596400  1
  C  583  1  0.15171700  0.07164200  0.85525500  1
  C  584  1  0.17179500  0.08238200  0.84350000  1
  C  585  1  0.19934000  0.14434900  0.81357700  1
  C  586  1  0.19611900  0.16379800  0.81316500  1
  C  587  1  0.17310300  0.17207800  0.82515300  1
  C  588  1  0.15342800  0.16121300  0.83692300  1
  C  601  1  0.18798500  0.11270800  0.82784500  1
  C  602  1  0.13738700  0.13108500  0.85129200  1
  C  605  1  0.24015000  0.09459900  0.80517100  1
  C  612  1  0.18038800  0.90029700  0.33535800  1
  C  613  1  0.20511000  0.90951200  0.34569700  1
  C  614  1  0.24813600  0.90073300  0.32157100  1
  C  615  1  0.22325700  0.89275200  0.31036300  1
  C  616  1  0.23248100  0.88388400  0.29359500  1
  C  617  1  0.26566300  0.88163500  0.28841600  1
  C  618  1  0.29016100  0.88981200  0.29962000  1
  C  619  1  0.28140700  0.89954300  0.31576700  1
  C  620  1  0.19605500  0.91888100  0.36211500  1
  C  621  1  0.16289300  0.91977600  0.36783600  1
  C  622  1  0.13801000  0.91073600  0.35760700  1
  C  623  1  0.14731600  0.90062800  0.34183500  1
  C  624  1  0.18057400  0.87131200  0.31878700  1
  C  625  1  0.15719500  0.86266400  0.30705100  1
  C  626  1  0.14347900  0.89361900  0.29209000  1
  C  627  1  0.16796200  0.90253100  0.30287200  1
  C  628  1  0.12387100  0.90427500  0.27992300  1
  C  629  1  0.12761300  0.92357700  0.27879000  1
  C  630  1  0.15169900  0.93280700  0.28945200  1
  C  631  1  0.17176300  0.92206400  0.30121400  1
  C  632  1  0.19938200  0.86008900  0.33109600  1
  C  633  1  0.19617800  0.84064000  0.33149000  1
  C  634  1  0.17311500  0.83236000  0.31952900  1
  C  635  1  0.15341600  0.84323100  0.30777700  1
  C  648  1  0.18798200  0.89173600  0.31685100  1
  C  649  1  0.13734000  0.87336300  0.29343100  1
  C  652  1  0.24016200  0.90986200  0.33950200  1
  C  659  1  0.18038500  0.73921200  0.97040200  1
  C  660  1  0.20510400  0.72886100  0.97960600  1
  C  661  1  0.24815000  0.75297500  0.97082800  1
  C  662  1  0.22327400  0.76419800  0.96286800  1
  C  663  1  0.23250900  0.78096900  0.95400700  1
  C  664  1  0.26569300  0.78615600  0.95177000  1
  C  665  1  0.29018800  0.77490700  0.95989000  1
  C  666  1  0.28142900  0.75875900  0.96961600  1
  C  667  1  0.19603300  0.71244500  0.98897600  1
  C  668  1  0.16286800  0.70673200  0.98987100  1
  C  669  1  0.13798800  0.71698600  0.98085700  1
  C  670  1  0.14730400  0.73275000  0.97074000  1
  C  671  1  0.18058800  0.75579200  0.94142100  1
  C  672  1  0.15722600  0.76753600  0.93277100  1
  C  673  1  0.14351000  0.78249100  0.96372800  1
  C  674  1  0.16798000  0.77170200  0.97264200  1
  C  675  1  0.12391000  0.79466400  0.97438300  1
  C  676  1  0.12764900  0.79579500  0.99368600  1
  C  677  1  0.15171600  0.78512100  0.00291800  1
  C  678  1  0.17176300  0.77334800  0.99217700  1
  C  679  1  0.19938500  0.74347600  0.93019900  1
  C  680  1  0.19621300  0.74310000  0.91074600  1
  C  681  1  0.17315200  0.75506100  0.90246700  1
  C  682  1  0.15345000  0.76681300  0.91333700  1
  C  695  1  0.18799300  0.75771900  0.96184700  1
  C  696  1  0.13737600  0.78115800  0.94347200  1
  C  699  1  0.24016600  0.73503800  0.97994500  1
  C  706  1  0.18038400  0.26522800  0.17428400  1
  C  707  1  0.20510200  0.27558300  0.16508000  1
  C  708  1  0.24814800  0.25146300  0.17384500  1
  C  709  1  0.22327500  0.24023800  0.18180600  1
  C  710  1  0.23250200  0.22346000  0.19065400  1
  C  711  1  0.26569000  0.21829300  0.19290700  1
  C  712  1  0.29018600  0.22952200  0.18476500  1
  C  713  1  0.28142700  0.24567300  0.17504400  1
  C  714  1  0.19603500  0.29200700  0.15572600  1
  C  715  1  0.16286800  0.29771700  0.15482900  1
  C  716  1  0.13799000  0.28746300  0.16384400  1
  C  717  1  0.14730400  0.27169300  0.17395400  1
  C  718  1  0.18060200  0.24864100  0.20326200  1
  C  719  1  0.15724800  0.23689400  0.21191300  1
  C  720  1  0.14352200  0.22194000  0.18095400  1
  C  721  1  0.16797600  0.23273800  0.17203800  1
  C  722  1  0.12392900  0.20976200  0.17030200  1
  C  723  1  0.12765400  0.20863600  0.15099800  1
  C  724  1  0.15168700  0.21933100  0.14176500  1
  C  725  1  0.17174600  0.23109900  0.15250100  1
  C  726  1  0.19938400  0.26096600  0.21448300  1
  C  727  1  0.19624000  0.26132400  0.23393600  1
  C  728  1  0.17318900  0.24935800  0.24221500  1
  C  729  1  0.15347700  0.23761200  0.23134700  1
  C  742  1  0.18799500  0.24671900  0.18283400  1
  C  743  1  0.13740400  0.22326700  0.20121300  1
  C  746  1  0.24016300  0.26940200  0.16473300  1
  C  753  1  0.68081700  0.60185800  0.83443600  1
  C  754  1  0.70585500  0.59211000  0.84400900  1
  C  755  1  0.74801100  0.60200200  0.81982800  1
  C  756  1  0.72290800  0.61088200  0.80948900  1
  C  757  1  0.73166000  0.62065600  0.79314700  1
  C  758  1  0.76461500  0.62253900  0.78736500  1
  C  759  1  0.78928600  0.61340200  0.79768500  1
  C  760  1  0.78099100  0.60306700  0.81352200  1
  C  761  1  0.69738000  0.58199900  0.86008100  1
  C  762  1  0.66447300  0.58095700  0.86622500  1
  C  763  1  0.63922300  0.59046700  0.85672800  1
  C  764  1  0.64797200  0.60118900  0.84126200  1
  C  765  1  0.68031300  0.63171800  0.81958600  1
  C  766  1  0.65570500  0.64081500  0.80906500  1
  C  767  1  0.64186000  0.61074400  0.79243300  1
  C  768  1  0.66735700  0.60142400  0.80206800  1
  C  769  1  0.62159700  0.60064600  0.78012900  1
  C  770  1  0.62542000  0.58143500  0.77796300  1
  C  771  1  0.65006900  0.57173000  0.78778400  1
  C  772  1  0.67146800  0.58205300  0.79917900  1
  C  773  1  0.69930600  0.64226500  0.83238600  1
  C  774  1  0.69513500  0.66151100  0.83455200  1
  C  775  1  0.67007200  0.67018700  0.82410900  1
  C  776  1  0.65058200  0.65998100  0.81166700  1
  C  789  1  0.68785100  0.61148000  0.81637200  1
  C  790  1  0.63528400  0.63081900  0.79517600  1
  C  793  1  0.74062100  0.59193500  0.83733100  1
  C  800  1  0.68087800  0.40258500  0.31024100  1
  C  801  1  0.70591600  0.41233200  0.30066200  1
  C  802  1  0.74808000  0.40244300  0.32484000  1
  C  803  1  0.72298000  0.39356400  0.33518300  1
  C  804  1  0.73174100  0.38379600  0.35152600  1
  C  805  1  0.76470200  0.38191300  0.35730400  1
  C  806  1  0.78936500  0.39105100  0.34698400  1
  C  807  1  0.78106500  0.40137800  0.33114200  1
  C  808  1  0.69743600  0.42244300  0.28459200  1
  C  809  1  0.66452500  0.42348900  0.27845600  1
  C  810  1  0.63927700  0.41398300  0.28795800  1
  C  811  1  0.64803100  0.40325900  0.30342200  1
  C  812  1  0.68038300  0.37272800  0.32509500  1
  C  813  1  0.65577400  0.36363100  0.33561800  1
  C  814  1  0.64193600  0.39370500  0.35224800  1
  C  815  1  0.66743300  0.40302400  0.34261100  1
  C  816  1  0.62168100  0.40380400  0.36455400  1
  C  817  1  0.62550400  0.42301400  0.36671800  1
  C  818  1  0.65015000  0.43271900  0.35689500  1
  C  819  1  0.67156000  0.42239300  0.34550500  1
  C  820  1  0.69938000  0.36217400  0.31230200  1
  C  821  1  0.69519200  0.34293100  0.31012900  1
  C  822  1  0.67012200  0.33425900  0.32057000  1
  C  823  1  0.65064300  0.34446600  0.33301600  1
  C  836  1  0.68792000  0.39296500  0.32830500  1
  C  837  1  0.63535800  0.37363200  0.34950700  1
  C  840  1  0.74068500  0.41250500  0.30733500  1
  C  847  1  0.68081900  0.24011700  0.67196200  1
  C  848  1  0.70585700  0.23054600  0.66220600  1
  C  849  1  0.74801600  0.25472500  0.67210000  1
  C  850  1  0.72291300  0.26506000  0.68098600  1
  C  851  1  0.73167000  0.28140300  0.69075800  1
  C  852  1  0.76462800  0.28718900  0.69263300  1
  C  853  1  0.78929600  0.27687500  0.68348900  1
  C  854  1  0.78100100  0.26102600  0.67317200  1
  C  855  1  0.69737500  0.21448000  0.65208900  1
  C  856  1  0.66447100  0.20832700  0.65106100  1
  C  857  1  0.63922300  0.21782700  0.66057200  1
  C  858  1  0.64797700  0.23328600  0.67130000  1
  C  859  1  0.68032600  0.25496400  0.70182100  1
  C  860  1  0.65571700  0.26548200  0.71092300  1
  C  861  1  0.64186700  0.28211700  0.68085400  1
  C  862  1  0.66736200  0.27248400  0.67153100  1
  C  863  1  0.62160400  0.29442400  0.67075800  1
  C  864  1  0.62543000  0.29659500  0.65154900  1
  C  865  1  0.65006900  0.28677000  0.64184000  1
  C  866  1  0.67148300  0.27538300  0.65216200  1
  C  867  1  0.69932100  0.24216400  0.71236900  1
  C  868  1  0.69515700  0.23999900  0.73161500  1
  C  869  1  0.67009200  0.25043800  0.74029300  1
  C  870  1  0.65059600  0.26287900  0.73008900  1
  C  883  1  0.68785600  0.25817900  0.68158500  1
  C  884  1  0.63529400  0.27937100  0.70092800  1
  C  887  1  0.74062100  0.23722400  0.66202900  1
  C  894  1  0.68088800  0.76429500  0.47271900  1
  C  895  1  0.70592100  0.77387900  0.48246300  1
  C  896  1  0.74809900  0.74971000  0.47257000  1
  C  897  1  0.72300700  0.73936400  0.46369000  1
  C  898  1  0.73177300  0.72302500  0.45391600  1
  C  899  1  0.76473400  0.71724900  0.45203600  1
  C  900  1  0.78939700  0.72757700  0.46117100  1
  C  901  1  0.78109000  0.74342100  0.47149300  1
  C  902  1  0.69743900  0.78995500  0.49256600  1
  C  903  1  0.66452500  0.79608900  0.49361500  1
  C  904  1  0.63927200  0.78656900  0.48412700  1
  C  905  1  0.64803400  0.77110700  0.47340400  1
  C  906  1  0.68040000  0.74945200  0.44285800  1
  C  907  1  0.65579300  0.73892800  0.43375900  1
  C  908  1  0.64196800  0.72228800  0.46382900  1
  C  909  1  0.66746300  0.73192500  0.47315000  1
  C  910  1  0.62172000  0.70997400  0.47392600  1
  C  911  1  0.62553400  0.70781600  0.49313900  1
  C  912  1  0.65017000  0.71764700  0.50284400  1
  C  913  1  0.67159200  0.72902800  0.49251800  1
  C  914  1  0.69939500  0.76224900  0.43230800  1
  C  915  1  0.69519900  0.76442800  0.41306500  1
  C  916  1  0.67013600  0.75398400  0.40439100  1
  C  917  1  0.65067000  0.74152800  0.41459300  1
  C  930  1  0.68794300  0.74623700  0.46309400  1
  C  931  1  0.63538000  0.72503500  0.44375700  1
  C  934  1  0.74069500  0.76721400  0.48263600  1
  C  941  1  0.35781400  0.40259900  0.83441100  1
  C  942  1  0.33277300  0.41234400  0.84398700  1
  C  943  1  0.29061200  0.40245100  0.81981000  1
  C  944  1  0.31570900  0.39356500  0.80947000  1
  C  945  1  0.30695300  0.38379300  0.79313000  1
  C  946  1  0.27399500  0.38191400  0.78734800  1
  C  947  1  0.24932900  0.39105800  0.79766300  1
  C  948  1  0.25762700  0.40137900  0.81351000  1
  C  949  1  0.34124800  0.42245600  0.86005900  1
  C  950  1  0.37415200  0.42348300  0.86621300  1
  C  951  1  0.39941000  0.41399600  0.85669800  1
  C  952  1  0.39065600  0.40327000  0.84123600  1
  C  953  1  0.35830400  0.37273500  0.81957000  1
  C  954  1  0.38291800  0.36363400  0.80905500  1
  C  955  1  0.39676300  0.39370100  0.79241600  1
  C  956  1  0.37125900  0.40302400  0.80204300  1
  C  957  1  0.41703100  0.40379900  0.78011500  1
  C  958  1  0.41319800  0.42300600  0.77793800  1
  C  959  1  0.38855900  0.43271400  0.78776300  1
  C  960  1  0.36712000  0.42239100  0.79913600  1
  C  961  1  0.33930000  0.36218800  0.83236500  1
  C  962  1  0.34348800  0.34294500  0.83454800  1
  C  963  1  0.36856300  0.33426800  0.82411400  1
  C  964  1  0.38803900  0.34446900  0.81166100  1
  C  977  1  0.35076900  0.39297100  0.81635200  1
  C  978  1  0.40334400  0.37362900  0.79516700  1
  C  981  1  0.29800500  0.41251700  0.83731300  1
  C  988  1  0.35773500  0.60183900  0.31025600  1
  C  989  1  0.33270400  0.59208100  0.30068600  1
  C  990  1  0.29054100  0.60197700  0.32486300  1
  C  991  1  0.31563800  0.61086600  0.33520100  1
  C  992  1  0.30688200  0.62063000  0.35154700  1
  C  993  1  0.27392100  0.62251700  0.35732100  1
  C  994  1  0.24925500  0.61337900  0.34700000  1
  C  995  1  0.25755500  0.60304600  0.33116200  1
  C  996  1  0.34118400  0.58196200  0.28462100  1
  C  997  1  0.37409500  0.58092000  0.27848100  1
  C  998  1  0.39933600  0.59045200  0.28796400  1
  C  999  1  0.39057900  0.60117200  0.30342900  1
  C  1000  1  0.35823300  0.63169800  0.32510800  1
  C  1001  1  0.38284900  0.64079600  0.33562600  1
  C  1002  1  0.39669600  0.61072300  0.35225500  1
  C  1003  1  0.37119200  0.60140600  0.34262400  1
  C  1004  1  0.41696700  0.60062100  0.36455100  1
  C  1005  1  0.41314100  0.58141100  0.36671700  1
  C  1006  1  0.38848300  0.57170900  0.35689900  1
  C  1007  1  0.36705100  0.58203800  0.34552600  1
  C  1008  1  0.33923300  0.64225000  0.31231400  1
  C  1009  1  0.34342900  0.66149300  0.31013600  1
  C  1010  1  0.36850100  0.67016600  0.32057400  1
  C  1011  1  0.38797200  0.65996200  0.33302600  1
  C  1024  1  0.35069800  0.61146200  0.32831800  1
  C  1025  1  0.40327500  0.63079700  0.34951100  1
  C  1028  1  0.29793800  0.59190400  0.30736400  1
  C  1035  1  0.35778600  0.76429000  0.67198200  1
  C  1036  1  0.33274800  0.77387100  0.66223900  1
  C  1037  1  0.29058500  0.74969000  0.67212300  1
  C  1038  1  0.31568700  0.73934000  0.68099100  1
  C  1039  1  0.30693300  0.72298300  0.69074000  1
  C  1040  1  0.27397800  0.71719200  0.69260900  1
  C  1041  1  0.24930200  0.72754700  0.68351800  1
  C  1042  1  0.25759700  0.74339700  0.67320200  1
  C  1043  1  0.34122800  0.78994400  0.65213400  1
  C  1044  1  0.37413500  0.79609300  0.65110500  1
  C  1045  1  0.39938200  0.78658700  0.66060800  1
  C  1046  1  0.39063100  0.77111300  0.67131600  1
  C  1047  1  0.35827200  0.74942500  0.70183500  1
  C  1048  1  0.38287600  0.73890200  0.71093400  1
  C  1049  1  0.39673600  0.72228100  0.68085900  1
  C  1050  1  0.37124400  0.73192100  0.67153800  1
  C  1051  1  0.41700100  0.70998100  0.67075700  1
  C  1052  1  0.41317100  0.70781400  0.65154600  1
  C  1053  1  0.38853000  0.71763900  0.64184200  1
  C  1054  1  0.36713200  0.72903600  0.65216600  1
  C  1055  1  0.33927500  0.76222000  0.71238500  1
  C  1056  1  0.34345600  0.76439300  0.73163000  1
  C  1057  1  0.36851100  0.75394400  0.74030700  1
  C  1058  1  0.38798700  0.74149400  0.73010300  1
  C  1071  1  0.35074400  0.74622200  0.68159600  1
  C  1072  1  0.40330200  0.72501700  0.70093300  1
  C  1075  1  0.29797700  0.76720000  0.66206900  1
  C  1082  1  0.35776400  0.24013200  0.47271000  1
  C  1083  1  0.33273100  0.23054600  0.48245300  1
  C  1084  1  0.29055600  0.25472100  0.47256900  1
  C  1085  1  0.31565500  0.26507400  0.46369900  1
  C  1086  1  0.30689600  0.28143000  0.45395000  1
  C  1087  1  0.27393100  0.28719400  0.45205700  1
  C  1088  1  0.24926000  0.27685100  0.46116700  1
  C  1089  1  0.25756500  0.26100800  0.47149000  1
  C  1090  1  0.34121600  0.21447400  0.49255900  1
  C  1091  1  0.37412500  0.20833000  0.49358800  1
  C  1092  1  0.39937000  0.21783800  0.48408500  1
  C  1093  1  0.39061400  0.23331100  0.47337700  1
  C  1094  1  0.35824800  0.25499600  0.44285700  1
  C  1095  1  0.38284700  0.26552700  0.43376100  1
  C  1096  1  0.39668900  0.28214900  0.46383600  1
  C  1097  1  0.37120700  0.27250200  0.47315500  1
  C  1098  1  0.41694200  0.29445400  0.47393800  1
  C  1099  1  0.41311400  0.29661900  0.49314800  1
  C  1100  1  0.38848800  0.28678100  0.50285300  1
  C  1101  1  0.36709300  0.27538300  0.49252700  1
  C  1102  1  0.33926800  0.24219300  0.43230600  1
  C  1103  1  0.34344300  0.24003100  0.41305900  1
  C  1104  1  0.36849400  0.25048500  0.40438500  1
  C  1105  1  0.38796200  0.26293600  0.41459200  1
  C  1118  1  0.35071700  0.25819800  0.46309600  1
  C  1119  1  0.40325700  0.27941700  0.44376000  1
  C  1122  1  0.29795800  0.23721300  0.48262600  1
  C  1129  1  0.35849900  0.40190100  0.30957800  1
  C  1130  1  0.33366400  0.41156300  0.29974800  1
  C  1131  1  0.29103900  0.40197700  0.32380800  1
  C  1132  1  0.31605700  0.39348800  0.33453200  1
  C  1133  1  0.30712600  0.38406000  0.35104100  1
  C  1134  1  0.27405400  0.38186700  0.35646700  1
  C  1135  1  0.24941300  0.39054600  0.34574600  1
  C  1136  1  0.25790300  0.40074900  0.32984500  1
  C  1137  1  0.34252300  0.42155900  0.28366800  1
  C  1138  1  0.37560700  0.42263500  0.27782300  1
  C  1139  1  0.40059800  0.41315800  0.28756300  1
  C  1140  1  0.39147000  0.40242600  0.30294700  1
  C  1141  1  0.35858600  0.37236500  0.32509300  1
  C  1142  1  0.38260500  0.36337600  0.33612400  1
  C  1143  1  0.39632400  0.39375400  0.35225800  1
  C  1144  1  0.37149300  0.40299900  0.34202300  1
  C  1145  1  0.41628800  0.40403200  0.36457300  1
  C  1146  1  0.41266500  0.42330500  0.36629500  1
  C  1147  1  0.38830800  0.43286300  0.35612700  1
  C  1148  1  0.36778300  0.42247200  0.34430900  1
  C  1149  1  0.33973900  0.36161100  0.31239600  1
  C  1150  1  0.34346300  0.34228200  0.31081200  1
  C  1151  1  0.36795100  0.33370600  0.32175500  1
  C  1152  1  0.38731900  0.34410700  0.33410000  1
  C  1165  1  0.35119300  0.39269100  0.32781100  1
  C  1166  1  0.40266100  0.37358700  0.35003400  1
  C  1169  1  0.29873700  0.41176300  0.30618300  1
  C  1176  1  0.35848200  0.60253400  0.83511400  1
  C  1177  1  0.33364100  0.59287700  0.84494600  1
  C  1178  1  0.29102700  0.60244200  0.82087100  1
  C  1179  1  0.31605000  0.61093200  0.81014900  1
  C  1180  1  0.30711800  0.62034800  0.79363300  1
  C  1181  1  0.27404900  0.62252900  0.78819900  1
  C  1182  1  0.24940800  0.61384500  0.79891600  1
  C  1183  1  0.25789600  0.60366000  0.81482700  1
  C  1184  1  0.34249100  0.58289400  0.86103700  1
  C  1185  1  0.37557000  0.58182900  0.86689100  1
  C  1186  1  0.40056600  0.59130100  0.85715000  1
  C  1187  1  0.39144500  0.60201700  0.84175300  1
  C  1188  1  0.35856100  0.63206400  0.81958700  1
  C  1189  1  0.38258500  0.64105200  0.80855800  1
  C  1190  1  0.39632400  0.61067200  0.79243600  1
  C  1191  1  0.37149600  0.60142500  0.80267000  1
  C  1192  1  0.41628800  0.60039300  0.78011900  1
  C  1193  1  0.41268200  0.58112100  0.77840400  1
  C  1194  1  0.38835700  0.57156100  0.78859300  1
  C  1195  1  0.36779100  0.58195100  0.80039100  1
  C  1196  1  0.33969700  0.64282200  0.83227100  1
  C  1197  1  0.34343800  0.66215000  0.83386600  1
  C  1198  1  0.36793600  0.67072400  0.82292700  1
  C  1199  1  0.38729900  0.66032200  0.81058100  1
  C  1212  1  0.35118300  0.61173600  0.81687600  1
  C  1213  1  0.40264600  0.63084100  0.79465300  1
  C  1216  1  0.29872000  0.59266900  0.83850500  1
  C  1223  1  0.35849200  0.76498300  0.47202800  1
  C  1224  1  0.33365900  0.77480800  0.48169700  1
  C  1225  1  0.29103200  0.75074800  0.47211400  1
  C  1226  1  0.31604700  0.74002600  0.46361900  1
  C  1227  1  0.30711600  0.72351700  0.45419200  1
  C  1228  1  0.27404700  0.71808500  0.45201000  1
  C  1229  1  0.24940600  0.72880100  0.46069600  1
  C  1230  1  0.25789600  0.74471700  0.47087600  1
  C  1231  1  0.34252300  0.79088400  0.49170000  1
  C  1232  1  0.37560500  0.79673500  0.49276300  1
  C  1233  1  0.40059100  0.78699500  0.48328300  1
  C  1234  1  0.39146000  0.77161900  0.47254100  1
  C  1235  1  0.35856800  0.74946700  0.44249200  1
  C  1236  1  0.38258500  0.73843700  0.43350200  1
  C  1237  1  0.39631700  0.72230300  0.46387600  1
  C  1238  1  0.37148800  0.73253700  0.47312500  1
  C  1239  1  0.41627800  0.70998400  0.47415300  1
  C  1240  1  0.41266000  0.70825600  0.49342500  1
  C  1241  1  0.38834700  0.71845300  0.50298600  1
  C  1242  1  0.36778300  0.73025200  0.49259900  1
  C  1243  1  0.33971400  0.76216400  0.43174100  1
  C  1244  1  0.34342900  0.76374300  0.41241100  1
  C  1245  1  0.36791900  0.75280500  0.40383200  1
  C  1246  1  0.38729400  0.74046200  0.41423100  1
  C  1259  1  0.35118300  0.74674900  0.46281800  1
  C  1260  1  0.40264600  0.72452700  0.44370900  1
  C  1263  1  0.29873500  0.76837300  0.48190100  1
  C  1270  1  0.35848700  0.23945800  0.67265700  1
  C  1271  1  0.33364600  0.22961900  0.66300700  1
  C  1272  1  0.29102200  0.25368900  0.67257400  1
  C  1273  1  0.31603800  0.26441400  0.68106300  1
  C  1274  1  0.30710900  0.28093200  0.69047800  1
  C  1275  1  0.27403900  0.28637000  0.69264600  1
  C  1276  1  0.24940100  0.27564800  0.68396900  1
  C  1277  1  0.25788800  0.25972400  0.67380300  1
  C  1278  1  0.34249400  0.21351800  0.65303800  1
  C  1279  1  0.37557300  0.20766600  0.65197200  1
  C  1280  1  0.40057400  0.21742300  0.66142300  1
  C  1281  1  0.39145300  0.23282400  0.67213000  1
  C  1282  1  0.35855600  0.25497500  0.70219200  1
  C  1283  1  0.38257300  0.26600700  0.71118200  1
  C  1284  1  0.39630400  0.28213900  0.68080600  1
  C  1285  1  0.37147800  0.27190300  0.67155800  1
  C  1286  1  0.41625600  0.29446500  0.67053300  1
  C  1287  1  0.41265300  0.29618000  0.65125900  1
  C  1288  1  0.38835000  0.28597800  0.64169500  1
  C  1289  1  0.36777600  0.27418600  0.65208500  1
  C  1290  1  0.33970400  0.24227900  0.71294400  1
  C  1291  1  0.34342900  0.24069200  0.73227300  1
  C  1292  1  0.36791400  0.25163500  0.74085100  1
  C  1293  1  0.38727200  0.26398700  0.73045400  1
  C  1306  1  0.35117400  0.25769200  0.68186600  1
  C  1307  1  0.40263300  0.27991500  0.70097300  1
  C  1310  1  0.29872000  0.23605500  0.66280000  1
  C  1317  1  0.68014800  0.60252700  0.30961000  1
  C  1318  1  0.70497900  0.59286700  0.29977300  1
  C  1319  1  0.74762100  0.60244600  0.32382800  1
  C  1320  1  0.72261200  0.61094000  0.33455500  1
  C  1321  1  0.73155900  0.62036100  0.35106600  1
  C  1322  1  0.76463300  0.62254400  0.35648900  1
  C  1323  1  0.78926400  0.61385900  0.34576800  1
  C  1324  1  0.78076200  0.60367800  0.32985500  1
  C  1325  1  0.69610400  0.58286600  0.28369800  1
  C  1326  1  0.66302000  0.58180100  0.27785400  1
  C  1327  1  0.63803200  0.59125800  0.28761400  1
  C  1328  1  0.64717800  0.60200300  0.30298600  1
  C  1329  1  0.68008700  0.63206500  0.32512300  1
  C  1330  1  0.65607000  0.64105300  0.33615600  1
  C  1331  1  0.64234800  0.61067700  0.35229000  1
  C  1332  1  0.66717900  0.60143100  0.34205700  1
  C  1333  1  0.62237900  0.60039900  0.36460200  1
  C  1334  1  0.62601200  0.58112800  0.36633500  1
  C  1335  1  0.65030800  0.57156500  0.35612700  1
  C  1336  1  0.67089400  0.58195700  0.34434300  1
  C  1337  1  0.69894600  0.64282000  0.31243200  1
  C  1338  1  0.69520200  0.66214600  0.31083600  1
  C  1339  1  0.67071100  0.67072200  0.32177600  1
  C  1340  1  0.65136400  0.66032400  0.33413300  1
  C  1353  1  0.68747400  0.61173800  0.32784000  1
  C  1354  1  0.63601200  0.63084400  0.35006400  1
  C  1357  1  0.73991000  0.59266500  0.30620000  1
  C  1364  1  0.68013300  0.40191200  0.83511800  1
  C  1365  1  0.70497700  0.41157800  0.84494000  1
  C  1366  1  0.74757900  0.40199600  0.82086500  1
  C  1367  1  0.72255300  0.39350000  0.81014900  1
  C  1368  1  0.73147000  0.38408600  0.79362900  1
  C  1369  1  0.76453900  0.38189000  0.78820100  1
  C  1370  1  0.78918700  0.39056900  0.79891600  1
  C  1371  1  0.78071000  0.40076400  0.81482300  1
  C  1372  1  0.69613400  0.42157200  0.86102600  1
  C  1373  1  0.66305700  0.42263500  0.86688500  1
  C  1374  1  0.63806100  0.41314100  0.85716800  1
  C  1375  1  0.64717500  0.40242800  0.84176900  1
  C  1376  1  0.68003700  0.37237700  0.81959900  1
  C  1377  1  0.65599600  0.36339300  0.80858100  1
  C  1378  1  0.64225500  0.39377200  0.79245600  1
  C  1379  1  0.66710500  0.40301300  0.80267800  1
  C  1380  1  0.62226800  0.40405400  0.78015800  1
  C  1381  1  0.62590100  0.42332600  0.77843000  1
  C  1382  1  0.65027600  0.43288000  0.78858700  1
  C  1383  1  0.67083500  0.42248500  0.80038400  1
  C  1384  1  0.69890600  0.36162100  0.83228200  1
  C  1385  1  0.69515200  0.34229500  0.83388400  1
  C  1386  1  0.67063700  0.33372300  0.82295700  1
  C  1387  1  0.65128200  0.34412300  0.81060600  1
  C  1400  1  0.68742200  0.39270400  0.81688300  1
  C  1401  1  0.63591500  0.37360500  0.79468500  1
  C  1404  1  0.73989300  0.41178400  0.83849200  1
  C  1411  1  0.68015300  0.23946800  0.47201300  1
  C  1412  1  0.70498400  0.22963200  0.48167000  1
  C  1413  1  0.74761800  0.25369300  0.47210000  1
  C  1414  1  0.72260300  0.26442700  0.46362100  1
  C  1415  1  0.73153900  0.28095100  0.45422000  1
  C  1416  1  0.76460800  0.28638800  0.45204800  1
  C  1417  1  0.78924900  0.27563000  0.46067800  1
  C  1418  1  0.78075900  0.25971600  0.47085800  1
  C  1419  1  0.69611400  0.21355000  0.49166400  1
  C  1420  1  0.66303300  0.20770100  0.49272400  1
  C  1421  1  0.63804900  0.21744700  0.48324900  1
  C  1422  1  0.64718300  0.23283800  0.47252900  1
  C  1423  1  0.68009100  0.25500000  0.44248300  1
  C  1424  1  0.65607700  0.26603300  0.43349400  1
  C  1425  1  0.64232600  0.28214900  0.46387500  1
  C  1426  1  0.66715400  0.27191400  0.47312100  1
  C  1427  1  0.62234900  0.29445500  0.47415700  1
  C  1428  1  0.62597000  0.29617800  0.49342900  1
  C  1429  1  0.65031800  0.28600300  0.50298600  1
  C  1430  1  0.67085400  0.27419000  0.49259700  1
  C  1431  1  0.69895100  0.24230900  0.43172900  1
  C  1432  1  0.69521400  0.24071700  0.41240000  1
  C  1433  1  0.67073600  0.25166500  0.40382200  1
  C  1434  1  0.65138300  0.26401700  0.41422100  1
  C  1447  1  0.68746700  0.25770600  0.46281300  1
  C  1448  1  0.63600700  0.27993400  0.44370600  1
  C  1451  1  0.73991300  0.23606000  0.48187200  1
  C  1458  1  0.68013600  0.76498100  0.67266600  1
  C  1459  1  0.70497200  0.77482100  0.66301500  1
  C  1460  1  0.74759900  0.75075300  0.67257300  1
  C  1461  1  0.72258300  0.74001800  0.68104900  1
  C  1462  1  0.73150700  0.72348400  0.69043900  1
  C  1463  1  0.76458300  0.71806500  0.69263100  1
  C  1464  1  0.78922700  0.72880700  0.68398300  1
  C  1465  1  0.78073900  0.74472500  0.67380800  1
  C  1466  1  0.69611400  0.79091500  0.65303900  1
  C  1467  1  0.66303300  0.79676500  0.65197700  1
  C  1468  1  0.63804200  0.78701600  0.66144300  1
  C  1469  1  0.64716800  0.77161500  0.67215200  1
  C  1470  1  0.68007700  0.74944300  0.70219100  1
  C  1471  1  0.65606700  0.73840500  0.71118000  1
  C  1472  1  0.64231900  0.72229000  0.68079800  1
  C  1473  1  0.66713200  0.73253600  0.67154900  1
  C  1474  1  0.62235400  0.70997600  0.67051700  1
  C  1475  1  0.62596800  0.70825800  0.65124500  1
  C  1476  1  0.65028100  0.71845600  0.64168500  1
  C  1477  1  0.67082700  0.73026500  0.65207300  1
  C  1478  1  0.69892400  0.76213900  0.71294700  1
  C  1479  1  0.69519900  0.76372000  0.73227600  1
  C  1480  1  0.67072600  0.75276700  0.74085300  1
  C  1481  1  0.65137100  0.74041600  0.73045300  1
  C  1494  1  0.68744700  0.74674000  0.68186100  1
  C  1495  1  0.63600700  0.72449900  0.70096800  1
  C  1498  1  0.73989800  0.76838900  0.66280700  1
  C  1505  1  0.15027600  0.98264100  0.28204400  1
  C  1506  1  0.16861500  0.99534200  0.27105000  1
  C  1507  1  0.16392600  0.01459400  0.27366700  1
  C  1508  1  0.14158000  0.02169300  0.28690400  1
  C  1509  1  0.12413600  0.00900300  0.29837000  1
  C  1511  1  0.12874200  0.98976900  0.29569200  1
  C  1513  1  0.10027900  0.01467400  0.31299900  1
  C  1517  1  0.19235700  0.98959400  0.25641200  1
  C  1521  1  0.14889500  0.96379300  0.27811300  1
  C  1523  1  0.13393200  0.04046900  0.28651800  1
  C  1525  1  0.15026800  0.02180800  0.86269400  1
  C  1526  1  0.16862900  0.00911000  0.87368000  1
  C  1527  1  0.16397000  0.98985700  0.87104000  1
  C  1528  1  0.14166000  0.98275900  0.85777900  1
  C  1529  1  0.12420900  0.99545400  0.84632500  1
  C  1531  1  0.12878000  0.01468800  0.84902200  1
  C  1533  1  0.10037900  0.98978100  0.83168300  1
  C  1537  1  0.19235000  0.01484900  0.88832900  1
  C  1541  1  0.14893600  0.04066000  0.86662100  1
  C  1543  1  0.13400000  0.96398500  0.85818300  1
  C  1545  1  0.15030600  0.79253500  0.05275200  1
  C  1546  1  0.16863400  0.80353900  0.06544900  1
  C  1547  1  0.16394800  0.80092400  0.08470100  1
  C  1548  1  0.14162900  0.78767600  0.09181100  1
  C  1549  1  0.12418300  0.77621300  0.07912000  1
  C  1551  1  0.12878200  0.77888500  0.05988400  1
  C  1553  1  0.10033000  0.76158400  0.08479600  1
  C  1557  1  0.19235500  0.81818400  0.05969800  1
  C  1561  1  0.14891300  0.79646400  0.03390400  1
  C  1563  1  0.13395500  0.78808700  0.11058200  1
  C  1565  1  0.15027200  0.21188300  0.09193300  1
  C  1566  1  0.16862600  0.20089100  0.07923700  1
  C  1567  1  0.16397000  0.20352700  0.05998500  1
  C  1568  1  0.14166900  0.21679100  0.05288300  1
  C  1569  1  0.12422500  0.22825100  0.06557500  1
  C  1571  1  0.12879300  0.22555800  0.08480900  1
  C  1573  1  0.10040700  0.24289700  0.05989900  1
  C  1577  1  0.19233700  0.18623600  0.08498000  1
  C  1581  1  0.14894100  0.20796100  0.11078500  1
  C  1583  1  0.13401400  0.21638700  0.03410900  1
  C  1585  1  0.88833300  0.02180300  0.28201700  1
  C  1586  1  0.87001400  0.00910600  0.27101100  1
  C  1587  1  0.87469800  0.98985300  0.27362700  1
  C  1588  1  0.89700800  0.98274300  0.28688000  1
  C  1589  1  0.91444600  0.99543400  0.29834700  1
  C  1591  1  0.90984600  0.01467100  0.29567300  1
  C  1593  1  0.93828800  0.98975900  0.31298000  1
  C  1597  1  0.84630000  0.01485600  0.25636000  1
  C  1601  1  0.88972700  0.04065100  0.27809000  1
  C  1603  1  0.90468100  0.96397300  0.28647300  1
  C  1605  1  0.88838200  0.98261100  0.86266500  1
  C  1606  1  0.87002400  0.99531000  0.87364900  1
  C  1607  1  0.87468800  0.01456200  0.87101000  1
  C  1608  1  0.89700100  0.02165900  0.85775000  1
  C  1609  1  0.91444900  0.00896300  0.84629700  1
  C  1611  1  0.90987400  0.98972900  0.84899500  1
  C  1613  1  0.93828100  0.01463200  0.83165600  1
  C  1617  1  0.84629800  0.98957400  0.88829900  1
  C  1621  1  0.88970900  0.96375800  0.86659300  1
  C  1623  1  0.90466400  0.04043300  0.85815400  1
  C  1625  1  0.88835500  0.21190400  0.05273900  1
  C  1626  1  0.87002400  0.20089800  0.06543200  1
  C  1627  1  0.87469500  0.20351400  0.08468500  1
  C  1628  1  0.89700300  0.21676500  0.09179900  1
  C  1629  1  0.91445400  0.22823000  0.07911200  1
  C  1631  1  0.90986600  0.22555800  0.05987600  1
  C  1633  1  0.93829600  0.24286200  0.08479300  1
  C  1637  1  0.84631500  0.18624900  0.05967600  1
  C  1641  1  0.88976400  0.20797900  0.03389100  1
  C  1643  1  0.90466900  0.21635500  0.11057200  1
  C  1645  1  0.88838200  0.79255700  0.09194100  1
  C  1646  1  0.87002400  0.80354400  0.07924300  1
  C  1647  1  0.87468100  0.80090600  0.05999100  1
  C  1648  1  0.89698800  0.78764400  0.05289100  1
  C  1649  1  0.91443700  0.77618800  0.06558500  1
  C  1651  1  0.90986900  0.77888400  0.08481900  1
  C  1653  1  0.93826400  0.76154500  0.05991200  1
  C  1657  1  0.84630500  0.81819700  0.08498400  1
  C  1661  1  0.88971400  0.79648100  0.11079200  1
  C  1663  1  0.90464700  0.78804900  0.03411800  1
  C  1665  1  0.64788600  0.48260800  0.78060200  1
  C  1666  1  0.66605700  0.49522500  0.76942800  1
  C  1667  1  0.66152300  0.51449900  0.77198700  1
  C  1668  1  0.63948000  0.52169600  0.78533100  1
  C  1669  1  0.62217900  0.50908700  0.79695300  1
  C  1671  1  0.62664100  0.48983300  0.79434200  1
  C  1673  1  0.59863600  0.51486400  0.81170100  1
  C  1677  1  0.68948400  0.48936300  0.75468000  1
  C  1681  1  0.64645000  0.46372400  0.77685300  1
  C  1683  1  0.63201600  0.54049400  0.78497200  1
  C  1685  1  0.64788100  0.52183700  0.36413200  1
  C  1686  1  0.66607400  0.50921900  0.37529600  1
  C  1687  1  0.66157500  0.48994600  0.37271000  1
  C  1688  1  0.63957100  0.48275300  0.35934100  1
  C  1689  1  0.62226800  0.49536700  0.34772800  1
  C  1691  1  0.62669300  0.51462000  0.35036400  1
  C  1693  1  0.59876200  0.48959100  0.33296200  1
  C  1697  1  0.68947400  0.51507300  0.39006000  1
  C  1701  1  0.64649200  0.54072200  0.36788200  1
  C  1703  1  0.63210500  0.46395700  0.35971200  1
  C  1705  1  0.64792800  0.29398400  0.55271600  1
  C  1706  1  0.66608100  0.30516700  0.56533200  1
  C  1707  1  0.66155300  0.30260800  0.58460600  1
  C  1708  1  0.63953600  0.28925000  0.59180700  1
  C  1709  1  0.62224100  0.27762800  0.57919800  1
  C  1711  1  0.62670000  0.28023700  0.55994300  1
  C  1713  1  0.59871000  0.26287600  0.58497700  1
  C  1717  1  0.68948400  0.31992600  0.55946900  1
  C  1721  1  0.64648200  0.29773400  0.53383300  1
  C  1723  1  0.63205000  0.28963200  0.61060100  1
  C  1725  1  0.64789800  0.71043200  0.59196100  1
  C  1726  1  0.66607700  0.69925800  0.57934600  1
  C  1727  1  0.66157800  0.70183800  0.56007200  1
  C  1728  1  0.63958100  0.71521100  0.55287600  1
  C  1729  1  0.62229000  0.72683200  0.56548700  1
  C  1731  1  0.62671800  0.72420200  0.58474100  1
  C  1733  1  0.59879400  0.74160300  0.55971000  1
  C  1737  1  0.68946900  0.68449000  0.58520300  1
  C  1741  1  0.64651400  0.70668900  0.61084800  1
  C  1743  1  0.63211700  0.71484000  0.53408000  1
  C  1745  1  0.39072200  0.52183400  0.78058500  1
  C  1746  1  0.37258100  0.50922000  0.76939200  1
  C  1747  1  0.37711200  0.48994600  0.77194400  1
  C  1748  1  0.39913100  0.48274800  0.78529900  1
  C  1749  1  0.41640200  0.49534900  0.79694200  1
  C  1751  1  0.41193700  0.51460400  0.79433600  1
  C  1753  1  0.43991300  0.48956600  0.81170300  1
  C  1757  1  0.34918300  0.51508900  0.75463200  1
  C  1761  1  0.39217000  0.54071800  0.77684100  1
  C  1763  1  0.40660000  0.46395000  0.78492900  1
  C  1765  1  0.39074200  0.48259200  0.36411800  1
  C  1766  1  0.37255100  0.49521100  0.37528200  1
  C  1767  1  0.37705500  0.51448300  0.37269900  1
  C  1768  1  0.39906400  0.52167500  0.35933000  1
  C  1769  1  0.41636500  0.50906000  0.34771700  1
  C  1771  1  0.41193500  0.48980800  0.35035200  1
  C  1773  1  0.43987300  0.51483500  0.33295200  1
  C  1777  1  0.34914600  0.48935800  0.39004500  1
  C  1781  1  0.39212300  0.46370600  0.36786600  1
  C  1783  1  0.40653500  0.54047200  0.35970300  1
  C  1785  1  0.39072000  0.71045300  0.55271500  1
  C  1786  1  0.37256400  0.69926400  0.56532500  1
  C  1787  1  0.37707700  0.70182100  0.58460100  1
  C  1788  1  0.39908200  0.71518100  0.59180900  1
  C  1789  1  0.41638000  0.72680800  0.57920500  1
  C  1791  1  0.41193500  0.72420100  0.55994900  1
  C  1793  1  0.43990300  0.74156300  0.58499100  1
  C  1797  1  0.34917100  0.68450200  0.55945400  1
  C  1801  1  0.39218000  0.70670700  0.53383200  1
  C  1803  1  0.40656000  0.71479900  0.61060300  1
  C  1805  1  0.39075900  0.29400700  0.59197100  1
  C  1806  1  0.37257100  0.30518000  0.57935700  1
  C  1807  1  0.37706800  0.30260100  0.56008300  1
  C  1808  1  0.39906400  0.28923100  0.55288600  1
  C  1809  1  0.41636200  0.27761000  0.56549400  1
  C  1811  1  0.41194000  0.28023900  0.58474700  1
  C  1813  1  0.43986100  0.26284300  0.55971200  1
  C  1817  1  0.34917800  0.31994600  0.58521800  1
  C  1821  1  0.39214800  0.29774800  0.61085700  1
  C  1823  1  0.40652800  0.28960700  0.53408900  1
  C  1825  1  0.25032800  0.18545700  0.36573900  1
  C  1826  1  0.27762800  0.18040100  0.37712200  1
  C  1827  1  0.29809100  0.19445700  0.38456200  1
  C  1828  1  0.29273300  0.21343500  0.38093500  1
  C  1829  1  0.26553000  0.21854100  0.36958800  1
  C  1831  1  0.24483600  0.20451500  0.36236100  1
  C  1833  1  0.25695100  0.23801700  0.36481900  1
  C  1837  1  0.28724800  0.16096100  0.38143300  1
  C  1841  1  0.22843500  0.17247400  0.35829000  1
  C  1843  1  0.31598300  0.22622900  0.38701000  1
  C  1845  1  0.25035100  0.81898400  0.77893700  1
  C  1846  1  0.27766300  0.82403000  0.76755900  1
  C  1847  1  0.29810600  0.80996500  0.76011500  1
  C  1848  1  0.29272600  0.79099000  0.76374600  1
  C  1849  1  0.26552500  0.78589400  0.77509700  1
  C  1851  1  0.24484300  0.79992700  0.78232000  1
  C  1853  1  0.25693600  0.76642100  0.77987600  1
  C  1857  1  0.28731200  0.84346600  0.76325100  1
  C  1861  1  0.22848100  0.83197700  0.78639100  1
  C  1863  1  0.31596800  0.77819100  0.75767400  1
  C  1865  1  0.25033600  0.70882700  0.25556300  1
  C  1866  1  0.27765800  0.69746300  0.25050900  1
  C  1867  1  0.29810800  0.69001400  0.26456700  1
  C  1868  1  0.29271400  0.69361700  0.28354600  1
  C  1869  1  0.26548500  0.70494500  0.28865000  1
  C  1871  1  0.24480500  0.71217900  0.27462300  1
  C  1873  1  0.25686500  0.70968800  0.30812700  1
  C  1877  1  0.28731700  0.69317800  0.23106900  1
  C  1881  1  0.22845700  0.71628400  0.24257600  1
  C  1883  1  0.31595600  0.68754000  0.29634400  1
  C  1885  1  0.25036500  0.29564100  0.88912900  1
  C  1886  1  0.27769700  0.30700000  0.89418100  1
  C  1887  1  0.29814500  0.31444600  0.88011900  1
  C  1888  1  0.29274800  0.31083300  0.86114200  1
  C  1889  1  0.26552700  0.29950200  0.85604100  1
  C  1891  1  0.24484100  0.29227600  0.87007100  1
  C  1893  1  0.25692200  0.29474300  0.83656600  1
  C  1897  1  0.28736100  0.31128800  0.91361800  1
  C  1901  1  0.22848800  0.28818700  0.90211900  1
  C  1903  1  0.31599600  0.31690500  0.84834400  1
  C  1905  1  0.78831700  0.81899500  0.36574200  1
  C  1906  1  0.76099500  0.82404500  0.37710900  1
  C  1907  1  0.74054200  0.80998500  0.38455200  1
  C  1908  1  0.74592900  0.79100900  0.38093500  1
  C  1909  1  0.77316500  0.78590500  0.36961200  1
  C  1911  1  0.79384700  0.79993500  0.36238300  1
  C  1913  1  0.78178800  0.76642900  0.36486300  1
  C  1917  1  0.75133600  0.84348400  0.38140300  1
  C  1921  1  0.81019000  0.83198400  0.35828300  1
  C  1923  1  0.72270900  0.77820200  0.38702000  1
  C  1925  1  0.78827500  0.18542400  0.77893100  1
  C  1926  1  0.76093800  0.18037600  0.76757300  1
  C  1927  1  0.74050200  0.19444100  0.76012300  1
  C  1928  1  0.74591700  0.21341700  0.76372900  1
  C  1929  1  0.77314200  0.21851500  0.77505800  1
  C  1931  1  0.79381700  0.20448200  0.78228800  1
  C  1933  1  0.78176800  0.23798900  0.77980800  1
  C  1937  1  0.75125200  0.16094000  0.76329400  1
  C  1941  1  0.81013600  0.17243000  0.78639400  1
  C  1943  1  0.72267700  0.22621900  0.75765600  1
  C  1945  1  0.78828700  0.29558600  0.25556300  1
  C  1946  1  0.76098500  0.30696400  0.25050700  1
  C  1947  1  0.74053400  0.31441700  0.26456400  1
  C  1948  1  0.74590900  0.31080100  0.28354300  1
  C  1949  1  0.77311800  0.29946000  0.28864900  1
  C  1951  1  0.79379700  0.29222200  0.27462100  1
  C  1953  1  0.78171900  0.29470300  0.30812500  1
  C  1957  1  0.75134300  0.31126200  0.23106700  1
  C  1961  1  0.81015800  0.28811800  0.24257700  1
  C  1963  1  0.72266700  0.31688300  0.29633900  1
  C  1965  1  0.78826000  0.70883300  0.88911800  1
  C  1966  1  0.76094500  0.69746100  0.89417100  1
  C  1967  1  0.74050000  0.69001000  0.88011000  1
  C  1968  1  0.74588200  0.69363000  0.86113400  1
  C  1969  1  0.77308800  0.70497400  0.85603100  1
  C  1971  1  0.79377000  0.71220400  0.87006100  1
  C  1973  1  0.78167900  0.70974000  0.83655600  1
  C  1977  1  0.75129600  0.69316400  0.91360900  1
  C  1981  1  0.81012800  0.71629600  0.90210600  1
  C  1983  1  0.72263200  0.68755600  0.84833900  1
  C  1985  1  0.78829400  0.81809300  0.77979700  1
  C  1986  1  0.76104600  0.82313100  0.76836900  1
  C  1987  1  0.74058900  0.80906500  0.76094200  1
  C  1988  1  0.74590400  0.79009200  0.76462300  1
  C  1989  1  0.77306300  0.78500600  0.77601500  1
  C  1991  1  0.79373600  0.79904600  0.78324700  1
  C  1993  1  0.78164700  0.76553700  0.78081200  1
  C  1997  1  0.75149800  0.84256500  0.76398200  1
  C  2001  1  0.81024400  0.83109100  0.78716300  1
  C  2003  1  0.72273300  0.77727800  0.75846800  1
  C  2005  1  0.78827700  0.18633100  0.36486800  1
  C  2006  1  0.76102700  0.18130200  0.37629400  1
  C  2007  1  0.74059600  0.19537300  0.38373500  1
  C  2008  1  0.74593600  0.21434600  0.38006200  1
  C  2009  1  0.77307300  0.21942100  0.36865100  1
  C  2011  1  0.79372800  0.20537700  0.36141200  1
  C  2013  1  0.78165700  0.23888800  0.36384400  1
  C  2017  1  0.75145100  0.16186900  0.38067400  1
  C  2021  1  0.81020200  0.17332400  0.35748900  1
  C  2023  1  0.72276500  0.22716000  0.38621200  1
  C  2025  1  0.78824000  0.29475700  0.88824200  1
  C  2026  1  0.76097700  0.30617000  0.89328300  1
  C  2027  1  0.74052200  0.31360400  0.87922000  1
  C  2028  1  0.74585700  0.30994200  0.86024600  1
  C  2029  1  0.77303400  0.29856500  0.85515500  1
  C  2031  1  0.79370100  0.29132700  0.86919200  1
  C  2033  1  0.78164200  0.29379000  0.83568400  1
  C  2037  1  0.75141200  0.31053700  0.91272000  1
  C  2041  1  0.81018800  0.28738400  0.90123900  1
  C  2043  1  0.72268900  0.31610200  0.84743100  1
  C  2045  1  0.78825500  0.70968600  0.25645100  1
  C  2046  1  0.76099200  0.69826900  0.25141800  1
  C  2047  1  0.74056200  0.69082700  0.26548600  1
  C  2048  1  0.74590900  0.69448800  0.28446000  1
  C  2049  1  0.77305900  0.70588800  0.28954100  1
  C  2051  1  0.79371300  0.71312900  0.27549800  1
  C  2053  1  0.78165400  0.71068100  0.30901000  1
  C  2057  1  0.75141200  0.69390200  0.23198300  1
  C  2061  1  0.81018500  0.71706300  0.24344700  1
  C  2063  1  0.72273600  0.68833600  0.29727500  1
  C  2065  1  0.25034300  0.18632000  0.77980900  1
  C  2066  1  0.27759400  0.18128600  0.76838400  1
  C  2067  1  0.29803400  0.19535500  0.76094900  1
  C  2068  1  0.29269900  0.21432900  0.76461500  1
  C  2069  1  0.26555000  0.21940800  0.77601500  1
  C  2071  1  0.24489100  0.20536800  0.78325500  1
  C  2073  1  0.25695600  0.23887700  0.78081100  1
  C  2077  1  0.28715900  0.16185200  0.76400600  1
  C  2081  1  0.22840200  0.17331900  0.78718200  1
  C  2083  1  0.31586200  0.22714600  0.75846100  1
  C  2085  1  0.25035300  0.81811500  0.36487000  1
  C  2086  1  0.27763100  0.82314700  0.37627900  1
  C  2087  1  0.29805400  0.80907400  0.38372400  1
  C  2088  1  0.29268400  0.79010100  0.38007300  1
  C  2089  1  0.26552200  0.78502400  0.36868100  1
  C  2091  1  0.24487500  0.79906800  0.36143800  1
  C  2093  1  0.25690700  0.76555500  0.36389900  1
  C  2097  1  0.28723300  0.84258000  0.38063400  1
  C  2101  1  0.22843800  0.83112300  0.35748700  1
  C  2103  1  0.31585300  0.77728500  0.38622500  1
  C  2105  1  0.25038300  0.70970600  0.88823700  1
  C  2106  1  0.27762800  0.69827800  0.89327500  1
  C  2107  1  0.29806900  0.69083600  0.87920800  1
  C  2108  1  0.29273300  0.69449600  0.86023300  1
  C  2109  1  0.26558400  0.70589600  0.85515000  1
  C  2111  1  0.24492900  0.71314300  0.86918800  1
  C  2113  1  0.25699100  0.71068500  0.83568000  1
  C  2117  1  0.28719400  0.69390500  0.91271000  1
  C  2121  1  0.22845200  0.71709000  0.90123600  1
  C  2123  1  0.31590400  0.68834200  0.84742200  1
  C  2125  1  0.25039300  0.29472400  0.25645100  1
  C  2126  1  0.27764300  0.30614900  0.25141500  1
  C  2127  1  0.29807400  0.31359700  0.26548200  1
  C  2128  1  0.29273100  0.30993700  0.28445600  1
  C  2129  1  0.26559400  0.29852800  0.28953900  1
  C  2131  1  0.24494000  0.29128100  0.27550000  1
  C  2133  1  0.25700800  0.29373500  0.30900800  1
  C  2137  1  0.28721600  0.31051800  0.23197900  1
  C  2141  1  0.22847100  0.28733600  0.24345000  1
  C  2143  1  0.31590900  0.31609100  0.29726600  1
  C  2145  1  0.29461300  0.15390800  0.25148400  1
  C  2146  1  0.31398300  0.15308100  0.23508400  1
  C  2147  1  0.31316900  0.16815900  0.22259200  1
  C  2148  1  0.29364900  0.18402800  0.22583100  1
  C  2149  1  0.27406900  0.18487400  0.24216100  1
  C  2151  1  0.27479200  0.16974200  0.25457100  1
  C  2153  1  0.25348800  0.20107100  0.24765800  1
  C  2157  1  0.33552100  0.13715500  0.23006700  1
  C  2161  1  0.29699800  0.14076200  0.26549600  1
  C  2163  1  0.29635400  0.19862200  0.21347100  1
  C  2165  1  0.29469900  0.85052000  0.89315600  1
  C  2166  1  0.31410900  0.85132800  0.90954100  1
  C  2167  1  0.31326000  0.83625100  0.92203500  1
  C  2168  1  0.29365100  0.82041300  0.91882100  1
  C  2169  1  0.27402200  0.81959100  0.90250800  1
  C  2171  1  0.27478400  0.83472000  0.89009200  1
  C  2173  1  0.25334500  0.80342800  0.89702900  1
  C  2177  1  0.33573500  0.86722300  0.91453900  1
  C  2181  1  0.29706700  0.86368700  0.87916000  1
  C  2183  1  0.29633700  0.80581300  0.93117600  1
  C  2185  1  0.29461100  0.82308900  0.22401300  1
  C  2186  1  0.31400500  0.83948100  0.22320100  1
  C  2187  1  0.31318600  0.85196600  0.23828700  1
  C  2188  1  0.29364400  0.84872800  0.25414400  1
  C  2189  1  0.27403000  0.83241000  0.25497300  1
  C  2191  1  0.27475700  0.82000600  0.23983400  1
  C  2193  1  0.25340900  0.82691500  0.27115500  1
  C  2197  1  0.33557500  0.84449300  0.20728800  1
  C  2201  1  0.29699600  0.80908000  0.21086300  1
  C  2203  1  0.29632700  0.86108100  0.26874500  1
  C  2205  1  0.29473100  0.18139700  0.92064700  1
  C  2206  1  0.31409400  0.16499500  0.92146800  1
  C  2207  1  0.31325000  0.15250500  0.90638600  1
  C  2208  1  0.29369100  0.15573900  0.89053300  1
  C  2209  1  0.27410600  0.17207000  0.88970000  1
  C  2211  1  0.27486300  0.18448000  0.90483100  1
  C  2213  1  0.25348300  0.17757000  0.87352200  1
  C  2217  1  0.33566400  0.15997500  0.93737700  1
  C  2221  1  0.29709900  0.19539400  0.93381400  1
  C  2223  1  0.29638200  0.14339000  0.87593000  1
  C  2225  1  0.74400500  0.85054900  0.25145900  1
  C  2226  1  0.72467000  0.85138300  0.23504700  1
  C  2227  1  0.72547600  0.83629900  0.22256100  1
  C  2228  1  0.74495200  0.82042100  0.22581800  1
  C  2229  1  0.76450900  0.81956800  0.24215700  1
  C  2231  1  0.76379200  0.83470600  0.25456200  1
  C  2233  1  0.78506100  0.80336400  0.24766600  1
  C  2237  1  0.70317400  0.86732100  0.23001200  1
  C  2241  1  0.74162200  0.86370000  0.26546800  1
  C  2243  1  0.74225600  0.80582500  0.21346000  1
  C  2245  1  0.74395600  0.15390400  0.89317500  1
  C  2246  1  0.72459600  0.15308900  0.90957900  1
  C  2247  1  0.72544200  0.16817500  0.92206500  1
  C  2248  1  0.74500400  0.18402500  0.91882400  1
  C  2249  1  0.76458600  0.18485200  0.90249200  1
  C  2251  1  0.76382400  0.16971700  0.89008600  1
  C  2253  1  0.78521100  0.20102800  0.89698700  1
  C  2257  1  0.70302600  0.13718100  0.91460500  1
  C  2261  1  0.74158000  0.14073300  0.87918400  1
  C  2263  1  0.74231300  0.19863300  0.93116800  1
  C  2265  1  0.74398800  0.18133300  0.22400300  1
  C  2266  1  0.72462300  0.16493200  0.22319100  1
  C  2267  1  0.72543700  0.15245600  0.23828200  1
  C  2268  1  0.74495000  0.15571200  0.25414800  1
  C  2269  1  0.76453700  0.17204100  0.25497800  1
  C  2271  1  0.76381400  0.18443600  0.23983300  1
  C  2273  1  0.78512500  0.17755200  0.27116700  1
  C  2277  1  0.70309000  0.15989700  0.20726900  1
  C  2281  1  0.74161000  0.19533200  0.21084000  1
  C  2283  1  0.74226100  0.14336200  0.26875200  1
  C  2285  1  0.74395100  0.82301900  0.92064200  1
  C  2286  1  0.72457300  0.83941700  0.92144700  1
  C  2287  1  0.72542400  0.85190100  0.90636000  1
  C  2288  1  0.74500900  0.84866500  0.89051800  1
  C  2289  1  0.76461100  0.83234000  0.88970000  1
  C  2291  1  0.76384300  0.81993600  0.90483600  1
  C  2293  1  0.78526300  0.82684100  0.87353300  1
  C  2297  1  0.70297900  0.84444000  0.93734700  1
  C  2301  1  0.74157300  0.80903000  0.93381600  1
  C  2303  1  0.74232300  0.86100500  0.87590700  1
  C  2305  1  0.79344700  0.65382500  0.75141400  1
  C  2306  1  0.81246200  0.65286300  0.73489300  1
  C  2307  1  0.81166000  0.66792800  0.72238700  1
  C  2308  1  0.79252000  0.68392000  0.72573200  1
  C  2309  1  0.77334500  0.68491300  0.74220500  1
  C  2311  1  0.77402500  0.66978600  0.75462900  1
  C  2313  1  0.75325500  0.70125800  0.74782100  1
  C  2317  1  0.83360500  0.63681000  0.72975400  1
  C  2321  1  0.79580500  0.64063700  0.76538500  1
  C  2323  1  0.79517400  0.69844200  0.71327900  1
  C  2325  1  0.79356300  0.35059800  0.39322200  1
  C  2326  1  0.81262200  0.35154100  0.40972800  1
  C  2327  1  0.81178600  0.33647900  0.42223800  1
  C  2328  1  0.79255200  0.32051700  0.41892000  1
  C  2329  1  0.77332500  0.31954900  0.40246400  1
  C  2331  1  0.77404500  0.33466900  0.39003400  1
  C  2333  1  0.75313400  0.30323300  0.39687000  1
  C  2337  1  0.83385700  0.36756500  0.41484600  1
  C  2341  1  0.79590400  0.36380200  0.37926600  1
  C  2343  1  0.79518800  0.30599000  0.43136900  1
  C  2345  1  0.79345000  0.32312800  0.72393400  1
  C  2346  1  0.81253600  0.33962600  0.72301100  1
  C  2347  1  0.81171400  0.35212500  0.73808100  1
  C  2348  1  0.79248500  0.34879700  0.75404300  1
  C  2349  1  0.77324100  0.33234800  0.75500000  1
  C  2351  1  0.77394200  0.31993200  0.73986600  1
  C  2353  1  0.75306000  0.32674100  0.77131400  1
  C  2357  1  0.83377500  0.34474700  0.70699200  1
  C  2361  1  0.79581200  0.30915900  0.71074500  1
  C  2363  1  0.79511700  0.36123700  0.76857900  1
  C  2365  1  0.79360000  0.68131800  0.42073800  1
  C  2366  1  0.81261200  0.66479400  0.42169500  1
  C  2367  1  0.81178300  0.65228600  0.40663000  1
  C  2368  1  0.79259900  0.65562400  0.39065200  1
  C  2369  1  0.77341900  0.67209600  0.38967000  1
  C  2371  1  0.77413100  0.68452300  0.40479200  1
  C  2373  1  0.75328400  0.67770900  0.37334000  1
  C  2377  1  0.83378500  0.65965500  0.43773500  1
  C  2381  1  0.79593800  0.69527500  0.43394100  1
  C  2383  1  0.79524000  0.64317800  0.37612400  1
  C  2385  1  0.24516000  0.35063300  0.75139400  1
  C  2386  1  0.22616800  0.35159800  0.73486400  1
  C  2387  1  0.22697000  0.33653200  0.72235800  1
  C  2388  1  0.24609200  0.32053600  0.72571300  1
  C  2389  1  0.26524400  0.31953800  0.74219200  1
  C  2391  1  0.26456000  0.33466500  0.75461700  1
  C  2393  1  0.28531700  0.30318600  0.74781700  1
  C  2397  1  0.20505000  0.36765900  0.72971400  1
  C  2401  1  0.24280300  0.36382000  0.76536400  1
  C  2403  1  0.24344100  0.30601100  0.71326200  1
  C  2405  1  0.24507000  0.65383000  0.39324500  1
  C  2406  1  0.22605600  0.65288000  0.40976700  1
  C  2407  1  0.22689200  0.66794600  0.42227300  1
  C  2408  1  0.24608500  0.68391800  0.41893300  1
  C  2409  1  0.26526800  0.68489600  0.40246100  1
  C  2411  1  0.26454600  0.66977200  0.39003500  1
  C  2413  1  0.28541000  0.70122100  0.39684600  1
  C  2417  1  0.20487200  0.63684300  0.41490700  1
  C  2421  1  0.24272400  0.64062400  0.37928900  1
  C  2423  1  0.24344700  0.69845000  0.43137500  1
  C  2425  1  0.24515300  0.68127100  0.72393200  1
  C  2426  1  0.22613500  0.66474900  0.72298500  1
  C  2427  1  0.22694000  0.65225300  0.73805800  1
  C  2428  1  0.24608400  0.65561000  0.75404500  1
  C  2429  1  0.26527300  0.67207900  0.75502200  1
  C  2431  1  0.26458500  0.68449400  0.73988800  1
  C  2433  1  0.28537800  0.67770200  0.77135900  1
  C  2437  1  0.20498700  0.65959800  0.70693700  1
  C  2441  1  0.24279700  0.69523200  0.71073400  1
  C  2443  1  0.24345000  0.64316400  0.76857300  1
  C  2445  1  0.24508200  0.32309500  0.42071800  1
  C  2446  1  0.22605100  0.33961200  0.42165900  1
  C  2447  1  0.22688900  0.35211500  0.40659000  1
  C  2448  1  0.24610300  0.34877900  0.39062500  1
  C  2449  1  0.26530500  0.33231300  0.38965800  1
  C  2451  1  0.26457800  0.31989000  0.40478300  1
  C  2453  1  0.28547200  0.32670300  0.37334000  1
  C  2457  1  0.20484500  0.34475100  0.43768800  1
  C  2461  1  0.24273300  0.30914400  0.43392700  1
  C  2463  1  0.24346500  0.36121700  0.37609000  1
  C  2465  1  0.05511100  0.08310100  0.37138300  1
  C  2466  1  0.03571700  0.08451000  0.38772800  1
  C  2467  1  0.00092600  0.08382900  0.38623700  1
  C  2468  1  0.98477800  0.08181400  0.36903200  1
  C  2469  1  0.00408200  0.08037400  0.35264300  1
  C  2471  1  0.03884800  0.08118700  0.35415300  1
  C  2473  1  0.99028600  0.07736300  0.33375600  1
  C  2477  1  0.04971800  0.08673700  0.40665100  1
  C  2481  1  0.08934200  0.08189500  0.37178500  1
  C  2483  1  0.95069000  0.08035000  0.36914200  1
  C  2485  1  0.05514800  0.92136200  0.77329600  1
  C  2486  1  0.03576100  0.91991400  0.75695100  1
  C  2487  1  0.00096800  0.92058200  0.75844000  1
  C  2488  1  0.98481500  0.92260500  0.77564200  1
  C  2489  1  0.00411300  0.92407900  0.79203000  1
  C  2491  1  0.03888100  0.92328500  0.79052300  1
  C  2493  1  0.99031000  0.92709900  0.81091400  1
  C  2497  1  0.04976500  0.91766500  0.73803200  1
  C  2501  1  0.08938100  0.92255300  0.77289200  1
  C  2503  1  0.95072500  0.92407400  0.77552600  1
  C  2505  1  0.05509800  0.70318300  0.15323400  1
  C  2506  1  0.03571100  0.68683700  0.15466100  1
  C  2507  1  0.00091700  0.68832200  0.15398700  1
  C  2508  1  0.98476800  0.70552600  0.15196200  1
  C  2509  1  0.00406300  0.72191600  0.15050500  1
  C  2511  1  0.03883000  0.72040900  0.15131000  1
  C  2513  1  0.99025400  0.74079900  0.14749100  1
  C  2517  1  0.04971900  0.66791700  0.15690000  1
  C  2521  1  0.08932900  0.70278300  0.15202100  1
  C  2523  1  0.95068000  0.70541000  0.15050100  1
  C  2525  1  0.05515200  0.30126000  0.99148700  1
  C  2526  1  0.03576900  0.31760400  0.99003600  1
  C  2527  1  0.00097600  0.31611800  0.99070500  1
  C  2528  1  0.98481700  0.29891800  0.99273300  1
  C  2529  1  0.00411400  0.28252900  0.99421200  1
  C  2531  1  0.03888200  0.28403400  0.99341600  1
  C  2533  1  0.99030800  0.26364700  0.99724000  1
  C  2537  1  0.04977700  0.33652200  0.98778100  1
  C  2541  1  0.08938600  0.30166100  0.99268200  1
  C  2543  1  0.95073000  0.29903700  0.99420500  1
  C  2545  1  0.98352500  0.92131100  0.37138800  1
  C  2546  1  0.00290500  0.91990300  0.38773600  1
  C  2547  1  0.03770000  0.92057500  0.38625500  1
  C  2548  1  0.05386100  0.92258200  0.36905300  1
  C  2549  1  0.03456900  0.92403100  0.35265900  1
  C  2551  1  0.99980200  0.92322300  0.35416100  1
  C  2553  1  0.04838300  0.92703800  0.33377500  1
  C  2557  1  0.98889000  0.91768400  0.40665800  1
  C  2561  1  0.94929400  0.92251900  0.37178500  1
  C  2563  1  0.08795100  0.92404700  0.36917400  1
  C  2565  1  0.98347100  0.08306700  0.77330100  1
  C  2566  1  0.00287400  0.08449700  0.75696100  1
  C  2567  1  0.03766700  0.08382600  0.75846200  1
  C  2568  1  0.05380200  0.08182000  0.77567200  1
  C  2569  1  0.03448400  0.08036300  0.79205500  1
  C  2571  1  0.99972000  0.08116000  0.79053500  1
  C  2573  1  0.04826500  0.07735900  0.81094600  1
  C  2577  1  0.98889200  0.08672900  0.73803400  1
  C  2581  1  0.94923500  0.08188000  0.77288800  1
  C  2583  1  0.08789000  0.08034200  0.77557000  1
  C  2585  1  0.98350800  0.30125500  0.15328700  1
  C  2586  1  0.00289200  0.31760100  0.15471700  1
  C  2587  1  0.03768600  0.31611700  0.15404400  1
  C  2588  1  0.05384200  0.29891600  0.15201700  1
  C  2589  1  0.03454700  0.28252600  0.15055000  1
  C  2591  1  0.99978000  0.28403000  0.15135600  1
  C  2593  1  0.04835800  0.26364500  0.14752300  1
  C  2597  1  0.98888200  0.33652100  0.15696100  1
  C  2601  1  0.94927700  0.30165400  0.15207400  1
  C  2603  1  0.08793000  0.29903700  0.15054800  1
  C  2605  1  0.98350000  0.70316300  0.99143400  1
  C  2606  1  0.00289900  0.68682200  0.99001900  1
  C  2607  1  0.03769200  0.68831800  0.99068700  1
  C  2608  1  0.05383100  0.70552800  0.99268200  1
  C  2609  1  0.03451800  0.72191600  0.99412700  1
  C  2611  1  0.99975200  0.72039800  0.99333100  1
  C  2613  1  0.04830700  0.74080600  0.99711900  1
  C  2617  1  0.98890900  0.66789300  0.98780500  1
  C  2621  1  0.94926700  0.70274800  0.99262100  1
  C  2623  1  0.08791900  0.70542200  0.99416100  1
  C  2625  1  0.55505900  0.58046500  0.87072100  1
  C  2626  1  0.53568900  0.58149300  0.88710400  1
  C  2627  1  0.50089100  0.58083300  0.88562100  1
  C  2628  1  0.48470600  0.57921200  0.86838600  1
  C  2629  1  0.50398400  0.57816600  0.85195500  1
  C  2631  1  0.53875500  0.57895200  0.85346200  1
  C  2633  1  0.49015200  0.57560700  0.83300800  1
  C  2637  1  0.54972900  0.58329800  0.90606200  1
  C  2641  1  0.58930000  0.57924500  0.87107100  1
  C  2643  1  0.45061500  0.57771500  0.86848100  1
  C  2645  1  0.55510900  0.42403800  0.27400200  1
  C  2646  1  0.53573100  0.42305200  0.25761900  1
  C  2647  1  0.50093300  0.42370300  0.25911000  1
  C  2648  1  0.48475500  0.42525900  0.27635300  1
  C  2649  1  0.50404300  0.42625400  0.29278500  1
  C  2651  1  0.53881200  0.42548200  0.29126900  1
  C  2653  1  0.49022600  0.42874200  0.31174300  1
  C  2657  1  0.54975600  0.42131000  0.23865000  1
  C  2661  1  0.58935200  0.42524000  0.27364800  1
  C  2663  1  0.45066500  0.42676400  0.27626700  1
  C  2665  1  0.55505400  0.20383300  0.65058600  1
  C  2666  1  0.53568200  0.18745100  0.65162700  1
  C  2667  1  0.50088400  0.18893700  0.65097100  1
  C  2668  1  0.48470300  0.20617300  0.64934400  1
  C  2669  1  0.50398400  0.22260200  0.64828600  1
  C  2671  1  0.53875300  0.22109200  0.64906600  1
  C  2673  1  0.49015400  0.24154700  0.64572300  1
  C  2677  1  0.54971400  0.16849300  0.65343900  1
  C  2681  1  0.58929500  0.20347900  0.64936200  1
  C  2683  1  0.45061000  0.20607900  0.64784800  1
  C  2685  1  0.55510600  0.80054800  0.49415500  1
  C  2686  1  0.53573900  0.81693300  0.49315700  1
  C  2687  1  0.50093800  0.81544600  0.49380800  1
  C  2688  1  0.48475500  0.79820500  0.49537700  1
  C  2689  1  0.50403600  0.78177200  0.49638500  1
  C  2691  1  0.53880500  0.78328400  0.49561300  1
  C  2693  1  0.49021100  0.76281600  0.49888900  1
  C  2697  1  0.54977100  0.83589800  0.49140300  1
  C  2701  1  0.58935200  0.80089800  0.49536300  1
  C  2703  1  0.45066200  0.79829500  0.49688300  1
  C  2705  1  0.48356400  0.42399800  0.87070400  1
  C  2706  1  0.50292400  0.42301200  0.88709300  1
  C  2707  1  0.53772200  0.42367300  0.88561600  1
  C  2708  1  0.55391500  0.42526100  0.86837900  1
  C  2709  1  0.53464600  0.42626400  0.85194200  1
  C  2711  1  0.49987500  0.42547400  0.85344600  1
  C  2713  1  0.54848600  0.42878300  0.83299200  1
  C  2717  1  0.48887400  0.42125100  0.90605400  1
  C  2721  1  0.44932000  0.42521400  0.87104900  1
  C  2723  1  0.58801000  0.42675100  0.86847700  1
  C  2725  1  0.48351700  0.58036100  0.27405100  1
  C  2726  1  0.50290900  0.58126300  0.25766800  1
  C  2727  1  0.53770700  0.58061400  0.25917200  1
  C  2728  1  0.55386800  0.57914400  0.27642800  1
  C  2729  1  0.53456700  0.57823200  0.29285800  1
  C  2731  1  0.49979800  0.57900000  0.29132800  1
  C  2733  1  0.54836300  0.57583200  0.31183400  1
  C  2737  1  0.48890400  0.58291200  0.23868800  1
  C  2741  1  0.44927400  0.57915800  0.27369300  1
  C  2743  1  0.58796100  0.57763100  0.27636300  1
  C  2745  1  0.48354900  0.80058300  0.65061400  1
  C  2746  1  0.50291900  0.81696600  0.65163600  1
  C  2747  1  0.53771700  0.81548400  0.65097200  1
  C  2748  1  0.55390000  0.79824800  0.64935100  1
  C  2749  1  0.53462400  0.78181600  0.64831700  1
  C  2751  1  0.49985300  0.78332300  0.64910600  1
  C  2753  1  0.54845400  0.76286900  0.64576500  1
  C  2757  1  0.48887900  0.83592600  0.65343600  1
  C  2761  1  0.44930800  0.80093100  0.64939300  1
  C  2763  1  0.58799300  0.79834300  0.64785700  1
  C  2765  1  0.48353900  0.20388400  0.49413100  1
  C  2766  1  0.50292100  0.18750100  0.49318300  1
  C  2767  1  0.53771900  0.18899900  0.49383300  1
  C  2768  1  0.55388800  0.20625000  0.49535200  1
  C  2769  1  0.53459200  0.22268000  0.49631000  1
  C  2771  1  0.49982300  0.22115700  0.49554000  1
  C  2773  1  0.54840000  0.24164500  0.49876200  1
  C  2777  1  0.48890600  0.16852700  0.49148600  1
  C  2781  1  0.44929300  0.20352200  0.49533100  1
  C  2783  1  0.58797800  0.20617200  0.49686100  1
  N  44  1  0.15554900  0.05338000  0.28856400  1
  N  45  1  0.10715700  0.09166200  0.36080800  1
  N  46  1  0.27112900  0.13426700  0.27345400  1
  N  47  1  0.21627800  0.17409900  0.34191000  1
  N  91  1  0.15560300  0.95107100  0.85611700  1
  N  92  1  0.10719100  0.91279200  0.78387700  1
  N  93  1  0.27119100  0.87019900  0.87122400  1
  N  94  1  0.21630200  0.83034600  0.80276700  1
  N  138  1  0.15555000  0.78600900  0.12349800  1
  N  139  1  0.10714800  0.71376300  0.16178300  1
  N  140  1  0.27112900  0.80112200  0.20436700  1
  N  141  1  0.21629100  0.73266300  0.24421400  1
  N  185  1  0.15562500  0.21843900  0.02119600  1
  N  186  1  0.10719600  0.29067000  0.98292700  1
  N  187  1  0.27122800  0.20334900  0.94030700  1
  N  188  1  0.21629900  0.27181500  0.90048000  1
  N  232  1  0.88308400  0.95105600  0.28854400  1
  N  233  1  0.93148300  0.91275200  0.36080600  1
  N  234  1  0.76749100  0.87018000  0.27343900  1
  N  235  1  0.82236300  0.83034300  0.34190700  1
  N  279  1  0.88306000  0.05334800  0.85610000  1
  N  280  1  0.93142100  0.09164100  0.78387100  1
  N  281  1  0.76745200  0.13423600  0.87122900  1
  N  282  1  0.82231800  0.17407300  0.80276700  1
  N  326  1  0.88306700  0.21842500  0.12348700  1
  N  327  1  0.93146100  0.29066800  0.16183000  1
  N  328  1  0.76747900  0.20328500  0.20433900  1
  N  329  1  0.82230300  0.27173600  0.24421600  1
  N  373  1  0.88304200  0.78598300  0.02120400  1
  N  374  1  0.93145300  0.71373100  0.98285700  1
  N  375  1  0.76744500  0.80108500  0.94032400  1
  N  376  1  0.82228100  0.73267700  0.90047100  1
  N  420  1  0.88472900  0.95121900  0.85425200  1
  N  421  1  0.93291900  0.91205700  0.78396900  1
  N  422  1  0.76754600  0.87025200  0.87043900  1
  N  423  1  0.82220000  0.82966100  0.80361100  1
  N  467  1  0.88471000  0.05319400  0.29042300  1
  N  468  1  0.93288900  0.09237200  0.36070300  1
  N  469  1  0.76748900  0.13410600  0.27419700  1
  N  470  1  0.82216500  0.17476000  0.34104400  1
  N  514  1  0.88473900  0.22031000  0.02134800  1
  N  515  1  0.93291600  0.29058900  0.98219300  1
  N  516  1  0.76754300  0.20411200  0.94040100  1
  N  517  1  0.82214500  0.27093800  0.89980100  1
  N  561  1  0.88473900  0.78413800  0.12332900  1
  N  562  1  0.93288600  0.71381400  0.16255300  1
  N  563  1  0.76748400  0.80038600  0.20420100  1
  N  564  1  0.82215500  0.73350700  0.24488600  1
  N  608  1  0.15391200  0.05319800  0.85427800  1
  N  609  1  0.10570100  0.09235700  0.78401400  1
  N  610  1  0.27114900  0.13415700  0.87045300  1
  N  611  1  0.21643600  0.17475600  0.80362600  1
  N  655  1  0.15389900  0.95125000  0.29044500  1
  N  656  1  0.10575500  0.91201500  0.36075000  1
  N  657  1  0.27110700  0.87034900  0.27418300  1
  N  658  1  0.21646900  0.82967800  0.34104300  1
  N  702  1  0.15392700  0.78413200  0.02136000  1
  N  703  1  0.10573100  0.71385100  0.98213500  1
  N  704  1  0.27111700  0.80034500  0.94042600  1
  N  705  1  0.21651100  0.73354000  0.89979500  1
  N  749  1  0.15390500  0.22030600  0.12332100  1
  N  750  1  0.10573500  0.29061100  0.16258000  1
  N  751  1  0.27113100  0.20407400  0.20421300  1
  N  752  1  0.21653700  0.27088400  0.24489000  1
  N  796  1  0.65372400  0.55330400  0.78730500  1
  N  797  1  0.60709100  0.58924200  0.86029000  1
  N  798  1  0.76994300  0.63407600  0.77330100  1
  N  799  1  0.71563500  0.67031800  0.84611900  1
  N  843  1  0.65380800  0.45114500  0.35737000  1
  N  844  1  0.60714100  0.41522000  0.28440600  1
  N  845  1  0.77003500  0.37037800  0.37137100  1
  N  846  1  0.71567200  0.33412100  0.29855100  1
  N  890  1  0.65373600  0.28726000  0.62341600  1
  N  891  1  0.60709100  0.21426500  0.65935100  1
  N  892  1  0.76995300  0.30125400  0.70416900  1
  N  893  1  0.71565400  0.22842700  0.74041900  1
  N  937  1  0.65382500  0.71717300  0.52127000  1
  N  938  1  0.60714100  0.79013000  0.48535300  1
  N  939  1  0.77007400  0.70318900  0.44049700  1
  N  940  1  0.71568600  0.77600300  0.40425800  1
  N  984  1  0.38489600  0.45114000  0.78727500  1
  N  985  1  0.43153700  0.41520300  0.86027900  1
  N  986  1  0.26866200  0.37037100  0.77328900  1
  N  987  1  0.32299800  0.33414200  0.84612400  1
  N  1031  1  0.38483000  0.55328300  0.35737200  1
  N  1032  1  0.43147200  0.58920700  0.28442200  1
  N  1033  1  0.26858800  0.63406200  0.37137700  1
  N  1034  1  0.32295600  0.67030200  0.29855300  1
  N  1078  1  0.38486400  0.71715900  0.62341600  1
  N  1079  1  0.43151700  0.79014900  0.65938700  1
  N  1080  1  0.26865500  0.70314500  0.70416600  1
  N  1081  1  0.32295900  0.77596300  0.74043600  1
  N  1125  1  0.38482500  0.28725900  0.52127900  1
  N  1126  1  0.43150200  0.21427400  0.48530300  1
  N  1127  1  0.26859800  0.30124200  0.44050000  1
  N  1128  1  0.32296100  0.22845600  0.40425000  1
  N  1172  1  0.38632500  0.45132600  0.35548400  1
  N  1173  1  0.43282900  0.41454100  0.28438800  1
  N  1174  1  0.26876800  0.37034600  0.37053600  1
  N  1175  1  0.32302800  0.33333333  0.29931800  1
  N  1219  1  0.38633900  0.55309900  0.78922000  1
  N  1220  1  0.43279400  0.58993600  0.86034800  1
  N  1221  1  0.26875600  0.63402800  0.77411200  1
  N  1222  1  0.32302000  0.67109800  0.84537000  1
  N  1266  1  0.38633700  0.71908100  0.52144900  1
  N  1267  1  0.43282400  0.79016700  0.48466600  1
  N  1268  1  0.26875600  0.70401400  0.44049300  1
  N  1269  1  0.32299600  0.77524200  0.40346500  1
  N  1313  1  0.38635700  0.28535800  0.62323200  1
  N  1314  1  0.43279700  0.21420000  0.66008000  1
  N  1315  1  0.26874600  0.30047400  0.70412600  1
  N  1316  1  0.32299300  0.22919500  0.74121900  1
  N  1360  1  0.65229800  0.55310200  0.35549900  1
  N  1361  1  0.60579900  0.58987900  0.28444200  1
  N  1362  1  0.76992800  0.63406400  0.37055800  1
  N  1363  1  0.71562500  0.67109300  0.29933100  1
  N  1407  1  0.65227400  0.45134200  0.78922900  1
  N  1408  1  0.60583100  0.41452100  0.86035500  1
  N  1409  1  0.76981700  0.37037000  0.77413100  1
  N  1410  1  0.71556600  0.33333333  0.84539100  1
  N  1454  1  0.65232100  0.28536200  0.52144900  1
  N  1455  1  0.60581600  0.21427100  0.48462500  1
  N  1456  1  0.76988900  0.30043700  0.44050100  1
  N  1457  1  0.71565200  0.22921900  0.40345400  1
  N  1501  1  0.65229600  0.71907900  0.62322300  1
  N  1502  1  0.60581400  0.79021100  0.66008000  1
  N  1503  1  0.76986900  0.70399000  0.70414500  1
  N  1504  1  0.71562200  0.77522400  0.74122400  1
