# generated using pymatgen
data_H32C41(N2O)4
_symmetry_space_group_name_H-M   'P 1'
_cell_length_a   32.06200000
_cell_length_b   32.06200000
_cell_length_c   47.72510000
_cell_angle_alpha   89.95830000
_cell_angle_beta   89.97910000
_cell_angle_gamma   60.00000000
_symmetry_Int_Tables_number   1
_chemical_formula_structural   H32C41(N2O)4
_chemical_formula_sum   'H384 C492 N96 O48'
_cell_volume   42487.24619758
_cell_formula_units_Z   12
loop_
 _symmetry_equiv_pos_site_id
 _symmetry_equiv_pos_as_xyz
  1  'x, y, z'
loop_
 _atom_site_type_symbol
 _atom_site_label
 _atom_site_symmetry_multiplicity
 _atom_site_fract_x
 _atom_site_fract_y
 _atom_site_fract_z
 _atom_site_occupancy
  H  5  1  0.89108100  0.10284600  0.64533500  1
  H  6  1  0.39108200  0.60284500  0.64533500  1
  H  8  1  0.63416300  0.36169300  0.97044500  1
  H  9  1  0.86344900  0.13470700  0.69993600  1
  H  11  1  0.13416000  0.86169300  0.97044500  1
  H  12  1  0.36344800  0.63470800  0.69993600  1
  H  33  1  0.60741700  0.38592400  0.02655800  1
  H  35  1  0.10741800  0.88592400  0.02655800  1
  H  43  1  0.53639400  0.44952600  0.66294000  1
  H  44  1  0.03639200  0.94952600  0.66294000  1
  H  53  1  0.83169400  0.18500400  0.97384800  1
  H  54  1  0.33169400  0.68500400  0.97384800  1
  H  55  1  0.68154500  0.33141800  0.68634700  1
  H  56  1  0.18154500  0.83141800  0.68634700  1
  H  61  1  0.83725700  0.11023300  0.85361000  1
  H  63  1  0.61216200  0.34016900  0.81663100  1
  H  64  1  0.57127100  0.41209200  0.88192400  1
  H  73  1  0.33725800  0.61023300  0.85361000  1
  H  75  1  0.11216300  0.84016800  0.81663100  1
  H  76  1  0.07127200  0.91209000  0.88192400  1
  H  104  1  0.77254800  0.76968100  0.96118900  1
  H  105  1  0.72182800  0.85467400  0.96068100  1
  H  106  1  0.74600700  0.76735200  0.04752400  1
  H  107  1  0.69651600  0.85236600  0.04737300  1
  H  108  1  0.72479300  0.92276400  0.04003600  1
  H  109  1  0.77382600  0.95905700  0.03680900  1
  H  110  1  0.73802000  0.98864700  0.95133600  1
  H  111  1  0.69037100  0.95138900  0.95417200  1
  H  112  1  0.60299900  0.00550100  0.97870000  1
  H  113  1  0.55261500  0.02710800  0.93843300  1
  H  114  1  0.58453800  0.38323600  0.93013800  1
  H  115  1  0.63496800  0.00116700  0.03330700  1
  H  116  1  0.58696400  0.02813400  0.07423100  1
  H  120  1  0.55862000  0.41356500  0.06754700  1
  H  146  1  0.76949400  0.95809100  0.29479700  1
  H  147  1  0.85453300  0.92336900  0.29422700  1
  H  148  1  0.76754100  0.98709500  0.38105100  1
  H  149  1  0.85262100  0.95103400  0.38087700  1
  H  150  1  0.92266300  0.85211400  0.37353300  1
  H  151  1  0.95847800  0.76683100  0.37029600  1
  H  152  1  0.98794700  0.77306100  0.28479600  1
  H  153  1  0.95117100  0.85790800  0.28764100  1
  H  154  1  0.50562100  0.39087600  0.31211900  1
  H  155  1  0.52729100  0.41960000  0.27181500  1
  H  156  1  0.88351500  0.03181200  0.26353200  1
  H  157  1  0.86192800  0.00378500  0.30385900  1
  H  158  1  0.88654100  0.00620100  0.35989200  1
  H  159  1  0.50121600  0.36313000  0.36682800  1
  H  160  1  0.52837400  0.38399500  0.40772300  1
  H  163  1  0.91438900  0.02717900  0.40084400  1
  H  188  1  0.95730300  0.77245800  0.62777700  1
  H  189  1  0.92307000  0.72172400  0.62727800  1
  H  190  1  0.98608900  0.74586700  0.71410400  1
  H  191  1  0.95060200  0.69635500  0.71397200  1
  H  192  1  0.85196600  0.72460600  0.70666000  1
  H  193  1  0.76665500  0.77368000  0.70345000  1
  H  194  1  0.77289800  0.73794600  0.61797700  1
  H  195  1  0.85779600  0.69026000  0.62080100  1
  H  196  1  0.91993100  0.05243700  0.60509700  1
  H  197  1  0.53186000  0.08440100  0.59676100  1
  H  198  1  0.50370400  0.13405000  0.63704000  1
  H  199  1  0.50620000  0.10727200  0.69314500  1
  H  200  1  0.88449800  0.08665100  0.74085500  1
  H  204  1  0.52738000  0.05841600  0.73413400  1
  H  205  1  0.87410000  0.05341200  0.86932500  1
  H  206  1  0.86028100  0.55770200  0.83282500  1
  H  207  1  0.55576300  0.37669700  0.80039700  1
  H  208  1  0.55892900  0.86133900  0.83661200  1
  H  209  1  0.91172200  0.57300800  0.78918600  1
  H  217  1  0.61012800  0.05251200  0.18680300  1
  H  218  1  0.55329000  0.07244600  0.20247200  1
  H  219  1  0.55764400  0.08171600  0.16593600  1
  H  221  1  0.84066400  0.04642800  0.14989000  1
  H  222  1  0.87712600  0.06630400  0.13356300  1
  H  223  1  0.86158000  0.07883600  0.16972600  1
  H  225  1  0.57337500  0.01448600  0.12257100  1
  H  226  1  0.91229300  0.01626000  0.21529800  1
  H  234  1  0.05223100  0.83694200  0.52048700  1
  H  235  1  0.57223300  0.37376900  0.53615600  1
  H  236  1  0.08181400  0.85988800  0.49966600  1
  H  238  1  0.04763600  0.61171700  0.48320500  1
  H  239  1  0.56749000  0.05530800  0.46701400  1
  H  240  1  0.07967500  0.55849600  0.50321700  1
  H  241  1  0.01514400  0.91132200  0.45599700  1
  H  243  1  0.51654700  0.07090100  0.54857300  1
  H  253  1  0.96483700  0.96334500  0.01819000  1
  H  254  1  0.94967700  0.01349100  0.99636500  1
  H  255  1  0.92845300  0.97290300  0.98835700  1
  H  257  1  0.66815600  0.21666100  0.97151100  1
  H  258  1  0.69971900  0.20206800  0.00365800  1
  H  259  1  0.68454500  0.16102600  0.98779900  1
  H  261  1  0.83157200  0.98640500  0.01973600  1
  H  271  1  0.96312600  0.57076200  0.35072300  1
  H  272  1  0.01367100  0.53605800  0.32914100  1
  H  273  1  0.97291700  0.59782100  0.32106600  1
  H  275  1  0.71574300  0.11646500  0.30594400  1
  H  276  1  0.70080600  0.09953000  0.33800500  1
  H  277  1  0.65969600  0.15547600  0.32185800  1
  H  279  1  0.98557900  0.68164900  0.35311600  1
  H  281  1  0.68457400  0.98219100  0.30859400  1
  H  291  1  0.57133900  0.96467100  0.68477200  1
  H  292  1  0.53639400  0.94952600  0.66294000  1
  H  293  1  0.59822100  0.92829800  0.65494900  1
  H  295  1  0.61474400  0.16801600  0.63816500  1
  H  296  1  0.59768800  0.19958900  0.67029500  1
  H  297  1  0.65395500  0.18439200  0.65446900  1
  H  298  1  0.68154500  0.83141800  0.68634700  1
  H  300  1  0.48285500  0.33162300  0.64043900  1
  H  324  1  0.27254700  0.26968100  0.96118900  1
  H  325  1  0.22182700  0.35467400  0.96068100  1
  H  326  1  0.24600600  0.26735100  0.04752400  1
  H  327  1  0.19651400  0.35236700  0.04737300  1
  H  328  1  0.22479300  0.42276400  0.04003600  1
  H  329  1  0.27382700  0.45905600  0.03680900  1
  H  330  1  0.23802000  0.48864700  0.95133600  1
  H  331  1  0.19037200  0.45138800  0.95417200  1
  H  332  1  0.10299700  0.50550100  0.97870000  1
  H  333  1  0.05261600  0.52710700  0.93843300  1
  H  334  1  0.08453900  0.88323500  0.93013800  1
  H  335  1  0.13496500  0.50116900  0.03330700  1
  H  336  1  0.08696100  0.52813500  0.07423100  1
  H  340  1  0.05862100  0.91356600  0.06754700  1
  H  366  1  0.26949400  0.45809000  0.29479700  1
  H  367  1  0.35453200  0.42336900  0.29422700  1
  H  368  1  0.26754200  0.48709400  0.38105100  1
  H  369  1  0.35261900  0.45103500  0.38087700  1
  H  370  1  0.42266400  0.35211300  0.37353300  1
  H  371  1  0.45847700  0.26683100  0.37029600  1
  H  372  1  0.48794800  0.27306000  0.28479600  1
  H  373  1  0.45117000  0.35790900  0.28764100  1
  H  374  1  0.00561800  0.89087800  0.31211900  1
  H  375  1  0.02728800  0.91960100  0.27181500  1
  H  376  1  0.38351300  0.53181300  0.26353200  1
  H  377  1  0.36192900  0.50378400  0.30385900  1
  H  378  1  0.38654200  0.50620000  0.35989200  1
  H  379  1  0.00121700  0.86313000  0.36682800  1
  H  380  1  0.02837600  0.88399200  0.40772300  1
  H  383  1  0.41438800  0.52717900  0.40084400  1
  H  408  1  0.45730300  0.27245800  0.62777700  1
  H  409  1  0.42307100  0.22172200  0.62727800  1
  H  410  1  0.48608900  0.24586600  0.71410400  1
  H  411  1  0.45060400  0.19635300  0.71397200  1
  H  412  1  0.35196700  0.22460600  0.70666000  1
  H  413  1  0.26665500  0.27368100  0.70345000  1
  H  414  1  0.27289700  0.23794600  0.61797700  1
  H  415  1  0.35779400  0.19026000  0.62080100  1
  H  416  1  0.41993000  0.55243800  0.60509700  1
  H  417  1  0.03186100  0.58440000  0.59676100  1
  H  418  1  0.00370500  0.63404900  0.63704000  1
  H  419  1  0.00620100  0.60727100  0.69314500  1
  H  420  1  0.38449900  0.58665100  0.74085500  1
  H  424  1  0.02737700  0.55841700  0.73413400  1
  H  425  1  0.37410100  0.55341100  0.86932500  1
  H  426  1  0.36028200  0.05770000  0.83282500  1
  H  427  1  0.05576400  0.87669800  0.80039700  1
  H  428  1  0.05893000  0.36133900  0.83661200  1
  H  429  1  0.41172200  0.07300900  0.78918600  1
  H  437  1  0.11012900  0.55251100  0.18680300  1
  H  438  1  0.05329100  0.57244500  0.20247200  1
  H  439  1  0.05764500  0.58171500  0.16593600  1
  H  441  1  0.34066300  0.54642800  0.14989000  1
  H  442  1  0.37712400  0.56630500  0.13356300  1
  H  443  1  0.36158000  0.57883600  0.16972600  1
  H  445  1  0.07337600  0.51448600  0.12257100  1
  H  446  1  0.41229200  0.51626000  0.21529800  1
  H  454  1  0.55223000  0.33694200  0.52048700  1
  H  455  1  0.07223400  0.87376700  0.53615600  1
  H  456  1  0.58181300  0.35989000  0.49966600  1
  H  458  1  0.54763500  0.11171800  0.48320500  1
  H  459  1  0.06749100  0.55530800  0.46701400  1
  H  460  1  0.57967400  0.05849700  0.50321700  1
  H  461  1  0.51514600  0.41132100  0.45599700  1
  H  463  1  0.01654800  0.57090000  0.54857300  1
  H  473  1  0.46483800  0.46334500  0.01819000  1
  H  474  1  0.44967800  0.51349000  0.99636500  1
  H  475  1  0.42845100  0.47290400  0.98835700  1
  H  477  1  0.16815500  0.71666100  0.97151100  1
  H  478  1  0.19972000  0.70206700  0.00365800  1
  H  479  1  0.18454500  0.66102500  0.98779800  1
  H  481  1  0.33157300  0.48640400  0.01973600  1
  H  491  1  0.46312700  0.07076000  0.35072300  1
  H  492  1  0.51367000  0.03605900  0.32914100  1
  H  493  1  0.47291600  0.09782200  0.32106600  1
  H  495  1  0.21574200  0.61646500  0.30594400  1
  H  496  1  0.20080700  0.59952900  0.33800500  1
  H  497  1  0.15969600  0.65547600  0.32185800  1
  H  499  1  0.48557800  0.18165100  0.35311600  1
  H  501  1  0.18457500  0.48219000  0.30859400  1
  H  511  1  0.07134100  0.92865900  0.68477200  1
  H  512  1  0.03639200  0.44952600  0.66294000  1
  H  513  1  0.09822200  0.42829800  0.65494900  1
  H  515  1  0.11474200  0.66801600  0.63816500  1
  H  516  1  0.09768900  0.69958800  0.67029500  1
  H  517  1  0.15395500  0.68439200  0.65446900  1
  H  518  1  0.18154500  0.33141700  0.68634700  1
  H  520  1  0.98285400  0.83162300  0.64043900  1
  H  546  1  0.77254800  0.26968100  0.96118900  1
  H  547  1  0.72182800  0.35467300  0.96068100  1
  H  548  1  0.74600700  0.26735100  0.04752400  1
  H  549  1  0.69651600  0.35236400  0.04737300  1
  H  550  1  0.72479300  0.42276400  0.04003600  1
  H  551  1  0.77382600  0.45905500  0.03680900  1
  H  552  1  0.73802000  0.48864600  0.95133600  1
  H  553  1  0.69037100  0.45138900  0.95417200  1
  H  554  1  0.60299900  0.50550000  0.97870000  1
  H  555  1  0.55261500  0.52710800  0.93843300  1
  H  556  1  0.58453800  0.88323500  0.93013800  1
  H  557  1  0.63416300  0.86169100  0.97044500  1
  H  558  1  0.60741700  0.88592400  0.02655800  1
  H  559  1  0.63496800  0.50116600  0.03330700  1
  H  560  1  0.58696400  0.52813300  0.07423100  1
  H  564  1  0.55862000  0.91356500  0.06754700  1
  H  590  1  0.76949400  0.45809100  0.29479700  1
  H  591  1  0.85453300  0.42337000  0.29422700  1
  H  592  1  0.76754100  0.48709500  0.38105100  1
  H  593  1  0.85262100  0.45103600  0.38087700  1
  H  594  1  0.92266300  0.35211200  0.37353300  1
  H  595  1  0.95847800  0.26683200  0.37029600  1
  H  596  1  0.98794700  0.27306000  0.28479600  1
  H  597  1  0.95117100  0.35790900  0.28764100  1
  H  598  1  0.50562100  0.89087600  0.31211900  1
  H  599  1  0.52729100  0.91960200  0.27181500  1
  H  600  1  0.88351500  0.53181100  0.26353200  1
  H  601  1  0.86192800  0.50378300  0.30385900  1
  H  602  1  0.88654100  0.50620000  0.35989200  1
  H  603  1  0.50121600  0.86313000  0.36682800  1
  H  604  1  0.52837400  0.88399600  0.40772300  1
  H  609  1  0.91438900  0.52717900  0.40084400  1
  H  634  1  0.95730300  0.27245900  0.62777700  1
  H  635  1  0.92307000  0.22172300  0.62727800  1
  H  636  1  0.98608900  0.24586800  0.71410400  1
  H  637  1  0.95060200  0.19635400  0.71397200  1
  H  638  1  0.85196600  0.22460800  0.70666000  1
  H  639  1  0.76665500  0.27368000  0.70345000  1
  H  640  1  0.77289800  0.23794500  0.61797700  1
  H  641  1  0.85779600  0.19026000  0.62080100  1
  H  642  1  0.89108100  0.60284700  0.64533500  1
  H  643  1  0.91993100  0.55243900  0.60509700  1
  H  644  1  0.53186000  0.58440000  0.59676100  1
  H  645  1  0.50370400  0.63405000  0.63704000  1
  H  646  1  0.50620000  0.60727100  0.69314500  1
  H  647  1  0.86344900  0.63470700  0.69993600  1
  H  648  1  0.88449800  0.58665100  0.74085500  1
  H  652  1  0.52738000  0.55841700  0.73413400  1
  H  662  1  0.83725700  0.61023300  0.85361000  1
  H  663  1  0.87410000  0.55341300  0.86932500  1
  H  664  1  0.86028100  0.05770100  0.83282500  1
  H  666  1  0.61216200  0.84016800  0.81663100  1
  H  667  1  0.55576300  0.87669800  0.80039700  1
  H  668  1  0.55892900  0.36134000  0.83661200  1
  H  670  1  0.91172200  0.07300900  0.78918600  1
  H  672  1  0.57127100  0.91209200  0.88192400  1
  H  682  1  0.61012800  0.55251300  0.18680300  1
  H  683  1  0.55329000  0.57244600  0.20247200  1
  H  684  1  0.55764400  0.58171500  0.16593600  1
  H  686  1  0.84066400  0.54642600  0.14989000  1
  H  687  1  0.87712600  0.56630500  0.13356300  1
  H  688  1  0.86158000  0.57883600  0.16972600  1
  H  690  1  0.57337500  0.51448700  0.12257100  1
  H  692  1  0.91229300  0.51626100  0.21529800  1
  H  702  1  0.05223100  0.33694100  0.52048700  1
  H  703  1  0.57223300  0.87377000  0.53615600  1
  H  704  1  0.08181400  0.35988900  0.49966600  1
  H  706  1  0.04763600  0.11171700  0.48320500  1
  H  707  1  0.56749000  0.55531000  0.46701400  1
  H  708  1  0.07967500  0.05849800  0.50321700  1
  H  710  1  0.01514400  0.41132200  0.45599700  1
  H  712  1  0.51654700  0.57090000  0.54857300  1
  H  722  1  0.96483700  0.46334500  0.01819000  1
  H  723  1  0.94967700  0.51349100  0.99636500  1
  H  724  1  0.92845300  0.47290400  0.98835700  1
  H  726  1  0.66815600  0.71666000  0.97151100  1
  H  727  1  0.69971900  0.70206800  0.00365800  1
  H  728  1  0.68454500  0.66102400  0.98779900  1
  H  730  1  0.83157200  0.48640400  0.01973600  1
  H  732  1  0.83169400  0.68500400  0.97384800  1
  H  742  1  0.96312600  0.07076100  0.35072300  1
  H  743  1  0.01367100  0.03605800  0.32914100  1
  H  744  1  0.97291700  0.09782100  0.32106600  1
  H  746  1  0.71574300  0.61646500  0.30594400  1
  H  747  1  0.70080600  0.59953100  0.33800500  1
  H  748  1  0.65969600  0.65547500  0.32185800  1
  H  750  1  0.98557900  0.18165200  0.35311600  1
  H  752  1  0.68457400  0.48219000  0.30859400  1
  H  762  1  0.57133900  0.46467100  0.68477200  1
  H  763  1  0.59822100  0.42829700  0.65494900  1
  H  765  1  0.61474400  0.66801500  0.63816500  1
  H  766  1  0.59768800  0.69958800  0.67029500  1
  H  767  1  0.65395500  0.68439300  0.65446900  1
  H  770  1  0.48285500  0.83162400  0.64043900  1
  H  796  1  0.27254700  0.76968100  0.96118900  1
  H  797  1  0.22182700  0.85467300  0.96068100  1
  H  798  1  0.24600600  0.76735100  0.04752400  1
  H  799  1  0.19651400  0.85236600  0.04737300  1
  H  800  1  0.22479300  0.92276400  0.04003600  1
  H  801  1  0.27382700  0.95905500  0.03680900  1
  H  802  1  0.23802000  0.98864600  0.95133600  1
  H  803  1  0.19037200  0.95138800  0.95417200  1
  H  804  1  0.10299700  0.00550100  0.97870000  1
  H  805  1  0.05261600  0.02710700  0.93843300  1
  H  806  1  0.08453900  0.38323600  0.93013800  1
  H  807  1  0.13416000  0.36169400  0.97044500  1
  H  808  1  0.10741800  0.38592300  0.02655800  1
  H  809  1  0.13496500  0.00116700  0.03330700  1
  H  810  1  0.08696100  0.02813500  0.07423100  1
  H  814  1  0.05862100  0.41356500  0.06754700  1
  H  840  1  0.26949400  0.95809100  0.29479700  1
  H  841  1  0.35453200  0.92337000  0.29422700  1
  H  842  1  0.26754200  0.98709400  0.38105100  1
  H  843  1  0.35261900  0.95103400  0.38087700  1
  H  844  1  0.42266400  0.85211200  0.37353300  1
  H  845  1  0.45847700  0.76683000  0.37029600  1
  H  846  1  0.48794800  0.77305900  0.28479600  1
  H  847  1  0.45117000  0.85791000  0.28764100  1
  H  848  1  0.00561800  0.39087800  0.31211900  1
  H  849  1  0.02728800  0.41960100  0.27181500  1
  H  850  1  0.38351300  0.03181300  0.26353200  1
  H  851  1  0.36192900  0.00378300  0.30385900  1
  H  852  1  0.38654200  0.00620000  0.35989200  1
  H  853  1  0.00121700  0.36312900  0.36682800  1
  H  854  1  0.02837600  0.38399300  0.40772300  1
  H  859  1  0.41438800  0.02717900  0.40084400  1
  H  884  1  0.45730300  0.77245900  0.62777700  1
  H  885  1  0.42307100  0.72172200  0.62727800  1
  H  886  1  0.48608900  0.74586800  0.71410400  1
  H  887  1  0.45060400  0.69635300  0.71397200  1
  H  888  1  0.35196700  0.72460500  0.70666000  1
  H  889  1  0.26665500  0.77368000  0.70345000  1
  H  890  1  0.27289700  0.73794600  0.61797700  1
  H  891  1  0.35779400  0.69026100  0.62080100  1
  H  892  1  0.39108200  0.10284500  0.64533500  1
  H  893  1  0.41993000  0.05243700  0.60509700  1
  H  894  1  0.03186100  0.08440000  0.59676100  1
  H  895  1  0.00370500  0.13404900  0.63704000  1
  H  896  1  0.00620100  0.10727100  0.69314500  1
  H  897  1  0.36344800  0.13470800  0.69993600  1
  H  898  1  0.38449900  0.08665000  0.74085500  1
  H  902  1  0.02737700  0.05841900  0.73413400  1
  H  912  1  0.33725800  0.11023300  0.85361000  1
  H  913  1  0.37410100  0.05341100  0.86932500  1
  H  914  1  0.36028200  0.55770000  0.83282500  1
  H  916  1  0.11216300  0.34016800  0.81663100  1
  H  917  1  0.05576400  0.37669600  0.80039700  1
  H  918  1  0.05893000  0.86133900  0.83661200  1
  H  920  1  0.41172200  0.57300900  0.78918600  1
  H  922  1  0.07127200  0.41209100  0.88192400  1
  H  932  1  0.11012900  0.05251200  0.18680300  1
  H  933  1  0.05329100  0.07244600  0.20247200  1
  H  934  1  0.05764500  0.08171500  0.16593600  1
  H  936  1  0.34066300  0.04642800  0.14989000  1
  H  937  1  0.37712400  0.06630500  0.13356300  1
  H  938  1  0.36158000  0.07883600  0.16972600  1
  H  940  1  0.07337600  0.01448600  0.12257100  1
  H  942  1  0.41229200  0.01626000  0.21529800  1
  H  952  1  0.55223000  0.83694200  0.52048700  1
  H  953  1  0.07223400  0.37376900  0.53615600  1
  H  954  1  0.58181300  0.85989100  0.49966600  1
  H  956  1  0.54763500  0.61171700  0.48320500  1
  H  957  1  0.06749100  0.05530600  0.46701400  1
  H  958  1  0.57967400  0.55849800  0.50321700  1
  H  960  1  0.51514600  0.91132100  0.45599700  1
  H  962  1  0.01654800  0.07089900  0.54857300  1
  H  972  1  0.46483800  0.96334400  0.01819000  1
  H  973  1  0.44967800  0.01349000  0.99636500  1
  H  974  1  0.42845100  0.97290500  0.98835700  1
  H  976  1  0.16815500  0.21666100  0.97151100  1
  H  977  1  0.19972000  0.20206700  0.00365800  1
  H  978  1  0.18454500  0.16102500  0.98779800  1
  H  980  1  0.33157300  0.98640400  0.01973600  1
  H  982  1  0.33169400  0.18500400  0.97384800  1
  H  992  1  0.46312700  0.57076100  0.35072300  1
  H  993  1  0.51367000  0.53605900  0.32914100  1
  H  994  1  0.47291600  0.59782100  0.32106600  1
  H  996  1  0.21574200  0.11646500  0.30594400  1
  H  997  1  0.20080700  0.09952900  0.33800500  1
  H  998  1  0.15969600  0.15547600  0.32185800  1
  H  1000  1  0.48557800  0.68165300  0.35311600  1
  H  1002  1  0.18457500  0.98219000  0.30859400  1
  H  1012  1  0.07134100  0.96467000  0.68477200  1
  H  1013  1  0.09822200  0.92829700  0.65494900  1
  H  1015  1  0.11474200  0.16801600  0.63816500  1
  H  1016  1  0.09768900  0.19958800  0.67029500  1
  H  1017  1  0.15395500  0.18439200  0.65446900  1
  H  1020  1  0.98285400  0.33162400  0.64043900  1
  C  7  1  0.58838500  0.40931100  0.94013800  1
  C  10  1  0.08838600  0.90930900  0.94013800  1
  C  13  1  0.96884100  0.02165900  0.81197100  1
  C  15  1  0.53684800  0.45223800  0.83197600  1
  C  16  1  0.51969800  0.46935500  0.85931300  1
  C  20  1  0.94648700  0.04832700  0.78826900  1
  C  21  1  0.54575100  0.44653400  0.88310800  1
  C  22  1  0.67767400  0.31259300  0.67106000  1
  C  23  1  0.46884100  0.52166000  0.81197100  1
  C  25  1  0.03684900  0.95223700  0.83197600  1
  C  26  1  0.01969900  0.96935600  0.85931300  1
  C  30  1  0.44648700  0.54832700  0.78826900  1
  C  31  1  0.04574800  0.94653400  0.88310800  1
  C  32  1  0.17767400  0.81259200  0.67106000  1
  C  34  1  0.81576800  0.17883600  0.98988300  1
  C  36  1  0.31576800  0.67883700  0.98988300  1
  C  37  1  0.95035600  0.03739300  0.83926800  1
  C  38  1  0.45035500  0.53739400  0.83926800  1
  C  45  1  0.57479400  0.43220600  0.06050100  1
  C  46  1  0.07479200  0.93220300  0.06050100  1
  C  47  1  0.93807800  0.06930100  0.61181600  1
  C  48  1  0.43807800  0.56930100  0.61181600  1
  C  49  1  0.91036600  0.09128600  0.73119000  1
  C  50  1  0.41036500  0.59128700  0.73119000  1
  C  60  1  0.86839400  0.07456400  0.85027800  1
  C  62  1  0.57604300  0.37066500  0.81983100  1
  C  65  1  0.96960200  0.01045400  0.19270600  1
  C  66  1  0.94672500  0.00736700  0.21651700  1
  C  67  1  0.00939900  0.96843700  0.47872300  1
  C  68  1  0.00506300  0.94608500  0.45504400  1
  C  72  1  0.36839300  0.57456400  0.85027800  1
  C  74  1  0.07604400  0.87066600  0.81983100  1
  C  77  1  0.46960200  0.51045400  0.19270600  1
  C  78  1  0.44672600  0.50736600  0.21651700  1
  C  79  1  0.50939800  0.46843900  0.47872300  1
  C  80  1  0.50506200  0.44608600  0.45504400  1
  C  81  1  0.56983500  0.97220400  0.07555100  1
  C  82  1  0.59156600  0.99765500  0.06457400  1
  C  83  1  0.62062700  0.98103300  0.04048200  1
  C  84  1  0.63056700  0.93762600  0.02680100  1
  C  85  1  0.60385500  0.91588000  0.03637500  1
  C  86  1  0.66430400  0.91686200  0.00153600  1
  C  87  1  0.62798300  0.93027900  0.97755700  1
  C  88  1  0.61834500  0.89662000  0.96385300  1
  C  89  1  0.56532100  0.95691800  0.92973700  1
  C  90  1  0.56945500  0.99209600  0.94517100  1
  C  91  1  0.59948400  0.97908400  0.96887700  1
  C  92  1  0.69878400  0.93658000  0.99808200  1
  C  93  1  0.70040400  0.86280900  0.00348000  1
  C  94  1  0.72716900  0.83718100  0.97940700  1
  C  95  1  0.75788500  0.78698300  0.97966500  1
  C  96  1  0.76487100  0.76059800  0.00458000  1
  C  97  1  0.74207400  0.78571000  0.02924000  1
  C  98  1  0.71162900  0.83597600  0.02881900  1
  C  99  1  0.72764900  0.93575600  0.02098500  1
  C  100  1  0.75733500  0.95638100  0.01911400  1
  C  101  1  0.76089500  0.97673900  0.99365800  1
  C  102  1  0.73616400  0.97397500  0.97004300  1
  C  103  1  0.70684900  0.95305600  0.97207900  1
  C  121  1  0.97275700  0.95718900  0.40893600  1
  C  122  1  0.49797800  0.40996900  0.39803000  1
  C  123  1  0.98125600  0.89764300  0.37394400  1
  C  124  1  0.93793500  0.93126000  0.36022300  1
  C  125  1  0.91643200  0.97971700  0.36973400  1
  C  126  1  0.93288700  0.99235400  0.39383100  1
  C  127  1  0.91698500  0.91843300  0.33499800  1
  C  128  1  0.93044400  0.94125600  0.31097500  1
  C  129  1  0.89684500  0.98461800  0.29726900  1
  C  130  1  0.90956300  0.00184900  0.27353500  1
  C  131  1  0.95713700  0.97718900  0.26310900  1
  C  132  1  0.99227600  0.93779900  0.27853700  1
  C  133  1  0.97923600  0.92080600  0.30225400  1
  C  134  1  0.93646900  0.86428000  0.33156400  1
  C  135  1  0.86289800  0.93659900  0.33699700  1
  C  136  1  0.83714600  0.93549700  0.31297400  1
  C  137  1  0.78691800  0.95518500  0.31326900  1
  C  138  1  0.76063300  0.97488400  0.33816400  1
  C  139  1  0.78584900  0.97249500  0.36278800  1
  C  140  1  0.83615300  0.95234100  0.36234800  1
  C  141  1  0.93552200  0.83628100  0.35447600  1
  C  142  1  0.95583400  0.78601100  0.35259600  1
  C  143  1  0.97594200  0.76212500  0.32711900  1
  C  144  1  0.97338900  0.78958200  0.30351100  1
  C  145  1  0.95276500  0.83977700  0.30555400  1
  C  164  1  0.95753800  0.56957900  0.74215900  1
  C  165  1  0.89792400  0.62036500  0.70709300  1
  C  166  1  0.93136300  0.63038600  0.69341700  1
  C  167  1  0.97982100  0.60367700  0.70297800  1
  C  168  1  0.49257500  0.07455100  0.72708500  1
  C  169  1  0.91838100  0.66414900  0.66814700  1
  C  170  1  0.94129500  0.62786000  0.64416400  1
  C  171  1  0.98461200  0.61822100  0.63045900  1
  C  172  1  0.50192500  0.08824800  0.60676000  1
  C  173  1  0.97741300  0.56516100  0.59638000  1
  C  174  1  0.93807800  0.56930200  0.61181600  1
  C  175  1  0.92101900  0.59934200  0.63550600  1
  C  176  1  0.86418000  0.69860400  0.66471100  1
  C  177  1  0.93631400  0.70025900  0.67008100  1
  C  178  1  0.93518700  0.72705400  0.64600600  1
  C  179  1  0.95452800  0.75789300  0.64627000  1
  C  180  1  0.97394600  0.76484000  0.67117100  1
  C  181  1  0.97169300  0.74193700  0.69582000  1
  C  182  1  0.95187700  0.71148800  0.69541400  1
  C  183  1  0.83612000  0.72742200  0.68762100  1
  C  184  1  0.78581600  0.75715100  0.68575900  1
  C  185  1  0.76192000  0.76081200  0.66029800  1
  C  186  1  0.78941100  0.73603800  0.63668800  1
  C  187  1  0.83964600  0.70671100  0.63871400  1
  C  210  1  0.52199300  0.00880200  0.14536200  1
  C  211  1  0.95258200  0.01018800  0.16537400  1
  C  213  1  0.53760900  0.01180000  0.17264700  1
  C  216  1  0.57451700  0.05689600  0.18347200  1
  C  220  1  0.87106700  0.05221000  0.15306000  1
  C  224  1  0.54868700  0.00441100  0.12165700  1
  C  228  1  0.01082900  0.53645300  0.49865800  1
  C  229  1  0.01080700  0.51934900  0.52601300  1
  C  230  1  0.01209300  0.95000000  0.50604000  1
  C  233  1  0.05680500  0.86805000  0.51712000  1
  C  237  1  0.05324400  0.57560400  0.48643800  1
  C  242  1  0.00754800  0.54543500  0.54978000  1
  C  244  1  0.81777700  0.04877700  0.99894400  1
  C  246  1  0.77880500  0.13009400  0.98165700  1
  C  247  1  0.81736300  0.13538100  0.99167800  1
  C  249  1  0.85673500  0.05406200  0.00843800  1
  C  252  1  0.93635600  0.99091200  0.00525700  1
  C  256  1  0.69609500  0.18728000  0.98377700  1
  C  260  1  0.81276000  0.00910000  0.00443400  1
  C  262  1  0.54813900  0.13327400  0.33241400  1
  C  264  1  0.62971300  0.09140300  0.31554900  1
  C  265  1  0.63513300  0.04740400  0.32541400  1
  C  267  1  0.55354200  0.08887200  0.34171700  1
  C  270  1  0.99078600  0.57190400  0.33800000  1
  C  274  1  0.68627600  0.11771500  0.31802100  1
  C  278  1  0.50826000  0.17783600  0.33782000  1
  C  280  1  0.67874100  0.00570600  0.32375400  1
  C  282  1  0.63299300  0.31761400  0.66556200  1
  C  284  1  0.59067200  0.27865500  0.64827300  1
  C  285  1  0.54681000  0.31721900  0.65827000  1
  C  287  1  0.58873100  0.35657700  0.67503700  1
  C  290  1  0.57227600  0.93619700  0.67184400  1
  C  294  1  0.61616000  0.19595200  0.65042500  1
  C  299  1  0.50494300  0.31564200  0.65646400  1
  C  301  1  0.06983600  0.47220300  0.07555100  1
  C  302  1  0.09156700  0.49765400  0.06457400  1
  C  303  1  0.12062400  0.48103500  0.04048200  1
  C  304  1  0.13056400  0.43762800  0.02680100  1
  C  305  1  0.10385200  0.41588200  0.03637500  1
  C  306  1  0.16430300  0.41686200  0.00153600  1
  C  307  1  0.12798400  0.43027800  0.97755700  1
  C  308  1  0.11834300  0.39662000  0.96385300  1
  C  309  1  0.06532200  0.45691700  0.92973700  1
  C  310  1  0.06945700  0.49209400  0.94517100  1
  C  311  1  0.09948200  0.47908500  0.96887700  1
  C  312  1  0.19878500  0.43658000  0.99808200  1
  C  313  1  0.20040400  0.36280900  0.00348000  1
  C  314  1  0.22716800  0.33718100  0.97940700  1
  C  315  1  0.25788500  0.28698300  0.97966500  1
  C  316  1  0.26487000  0.26059900  0.00458000  1
  C  317  1  0.24207300  0.28571000  0.02924000  1
  C  318  1  0.21163000  0.33597500  0.02881900  1
  C  319  1  0.22764900  0.43575500  0.02098500  1
  C  320  1  0.25733600  0.45638000  0.01911400  1
  C  321  1  0.26089600  0.47673800  0.99365800  1
  C  322  1  0.23616500  0.47397400  0.97004300  1
  C  323  1  0.20684900  0.45305600  0.97207900  1
  C  341  1  0.47275700  0.45718900  0.40893600  1
  C  342  1  0.99797700  0.90997000  0.39803000  1
  C  343  1  0.48125700  0.39764200  0.37394400  1
  C  344  1  0.43793400  0.43126000  0.36022300  1
  C  345  1  0.41643000  0.47971800  0.36973400  1
  C  346  1  0.43288500  0.49235500  0.39383100  1
  C  347  1  0.41698500  0.41843200  0.33499800  1
  C  348  1  0.43044400  0.44125600  0.31097500  1
  C  349  1  0.39684500  0.48461800  0.29726900  1
  C  350  1  0.40956200  0.50184900  0.27353500  1
  C  351  1  0.45713800  0.47718800  0.26310900  1
  C  352  1  0.49227700  0.43779800  0.27853700  1
  C  353  1  0.47923600  0.42080600  0.30225400  1
  C  354  1  0.43646900  0.36427900  0.33156400  1
  C  355  1  0.36289800  0.43659900  0.33699700  1
  C  356  1  0.33714400  0.43549800  0.31297400  1
  C  357  1  0.28691800  0.45518500  0.31326900  1
  C  358  1  0.26063400  0.47488300  0.33816400  1
  C  359  1  0.28584800  0.47249500  0.36278800  1
  C  360  1  0.33615300  0.45234100  0.36234800  1
  C  361  1  0.43552200  0.33628000  0.35447600  1
  C  362  1  0.45583400  0.28601000  0.35259600  1
  C  363  1  0.47594100  0.26212500  0.32711900  1
  C  364  1  0.47338700  0.28958300  0.30351100  1
  C  365  1  0.45276500  0.33977700  0.30555400  1
  C  384  1  0.45753700  0.06957900  0.74215900  1
  C  385  1  0.39792500  0.12036400  0.70709300  1
  C  386  1  0.43136100  0.13038800  0.69341700  1
  C  387  1  0.47981900  0.10367900  0.70297800  1
  C  388  1  0.99257700  0.57455100  0.72708500  1
  C  389  1  0.41838200  0.16414700  0.66814700  1
  C  390  1  0.44129400  0.12786100  0.64416400  1
  C  391  1  0.48461300  0.11822100  0.63045900  1
  C  392  1  0.00192200  0.58825000  0.60676000  1
  C  393  1  0.47741300  0.06516200  0.59638000  1
  C  394  1  0.43807800  0.06930000  0.61181600  1
  C  395  1  0.42101800  0.09934100  0.63550600  1
  C  396  1  0.36417900  0.19860400  0.66471100  1
  C  397  1  0.43631300  0.20026100  0.67008100  1
  C  398  1  0.43518600  0.22705400  0.64600600  1
  C  399  1  0.45452600  0.25789400  0.64627000  1
  C  400  1  0.47394500  0.26484000  0.67117100  1
  C  401  1  0.47169400  0.24193700  0.69582000  1
  C  402  1  0.45187500  0.21149000  0.69541400  1
  C  403  1  0.33612000  0.22742000  0.68762100  1
  C  404  1  0.28581500  0.25715100  0.68575900  1
  C  405  1  0.26191900  0.26081300  0.66029800  1
  C  406  1  0.28940900  0.23603800  0.63668800  1
  C  407  1  0.33964600  0.20671100  0.63871400  1
  C  430  1  0.02199400  0.50880100  0.14536200  1
  C  431  1  0.45258200  0.51018800  0.16537400  1
  C  433  1  0.03761000  0.51179900  0.17264700  1
  C  436  1  0.07451800  0.55689500  0.18347200  1
  C  440  1  0.37106600  0.55221000  0.15306000  1
  C  444  1  0.04868800  0.50441000  0.12165700  1
  C  448  1  0.51082800  0.03645400  0.49865800  1
  C  449  1  0.51080600  0.01935000  0.52601300  1
  C  450  1  0.51209200  0.45000100  0.50604000  1
  C  453  1  0.55680400  0.36805200  0.51712000  1
  C  457  1  0.55324200  0.07560600  0.48643800  1
  C  462  1  0.50755100  0.04543400  0.54978000  1
  C  464  1  0.31777800  0.54877600  0.99894400  1
  C  466  1  0.27880600  0.63009300  0.98165700  1
  C  467  1  0.31736300  0.63538000  0.99167800  1
  C  469  1  0.35673300  0.55406300  0.00843800  1
  C  472  1  0.43635400  0.49091300  0.00525700  1
  C  476  1  0.19609500  0.68728000  0.98377600  1
  C  480  1  0.31275900  0.50910000  0.00443400  1
  C  482  1  0.04814000  0.63327300  0.33241400  1
  C  484  1  0.12971400  0.59140200  0.31554900  1
  C  485  1  0.13513400  0.54740300  0.32541400  1
  C  487  1  0.05354300  0.58887200  0.34171700  1
  C  490  1  0.49078600  0.07190200  0.33800000  1
  C  494  1  0.18627500  0.61771600  0.31802100  1
  C  498  1  0.00825800  0.67783600  0.33782000  1
  C  500  1  0.17874100  0.50570600  0.32375400  1
  C  502  1  0.13299000  0.81761500  0.66556200  1
  C  504  1  0.09067300  0.77865500  0.64827300  1
  C  505  1  0.04680700  0.81722000  0.65827000  1
  C  507  1  0.08873200  0.85657500  0.67503700  1
  C  510  1  0.07227700  0.43619600  0.67184400  1
  C  514  1  0.11616100  0.69595100  0.65042500  1
  C  519  1  0.00494000  0.81564300  0.65646400  1
  C  521  1  0.56983500  0.47220600  0.07555100  1
  C  522  1  0.59156600  0.49765400  0.06457400  1
  C  523  1  0.62062700  0.48103400  0.04048200  1
  C  524  1  0.63056700  0.43762500  0.02680100  1
  C  525  1  0.60385500  0.41588000  0.03637500  1
  C  526  1  0.57479400  0.93220400  0.06050100  1
  C  527  1  0.66430400  0.41686100  0.00153600  1
  C  528  1  0.62798300  0.43028000  0.97755700  1
  C  529  1  0.61834500  0.39662000  0.96385300  1
  C  530  1  0.58838500  0.90931100  0.94013800  1
  C  531  1  0.56532100  0.45691600  0.92973700  1
  C  532  1  0.56945500  0.49209500  0.94517100  1
  C  533  1  0.59948400  0.47908500  0.96887700  1
  C  534  1  0.69878400  0.43658000  0.99808200  1
  C  535  1  0.70040400  0.36280900  0.00348000  1
  C  536  1  0.72716900  0.33718200  0.97940700  1
  C  537  1  0.75788500  0.28698200  0.97966500  1
  C  538  1  0.76487100  0.26059800  0.00458000  1
  C  539  1  0.74207400  0.28570900  0.02924000  1
  C  540  1  0.71162900  0.33597700  0.02881900  1
  C  541  1  0.72764900  0.43575700  0.02098500  1
  C  542  1  0.75733500  0.45638100  0.01911400  1
  C  543  1  0.76089500  0.47673900  0.99365800  1
  C  544  1  0.73616400  0.47397400  0.97004300  1
  C  545  1  0.70684900  0.45305500  0.97207900  1
  C  565  1  0.97275700  0.45718800  0.40893600  1
  C  566  1  0.49797800  0.90996800  0.39803000  1
  C  567  1  0.98125600  0.39764200  0.37394400  1
  C  568  1  0.93793500  0.43126000  0.36022300  1
  C  569  1  0.91643200  0.47971900  0.36973400  1
  C  570  1  0.93288700  0.49235300  0.39383100  1
  C  571  1  0.91698500  0.41843300  0.33499800  1
  C  572  1  0.93044400  0.44125600  0.31097500  1
  C  573  1  0.89684500  0.48461900  0.29726900  1
  C  574  1  0.90956300  0.50185000  0.27353500  1
  C  575  1  0.95713700  0.47718900  0.26310900  1
  C  576  1  0.99227600  0.43779700  0.27853700  1
  C  577  1  0.97923600  0.42080600  0.30225400  1
  C  578  1  0.93646900  0.36428100  0.33156400  1
  C  579  1  0.86289800  0.43660100  0.33699700  1
  C  580  1  0.83714600  0.43549800  0.31297400  1
  C  581  1  0.78691800  0.45518500  0.31326900  1
  C  582  1  0.76063300  0.47488500  0.33816400  1
  C  583  1  0.78584900  0.47249600  0.36278800  1
  C  584  1  0.83615300  0.45234100  0.36234800  1
  C  585  1  0.93552200  0.33628100  0.35447600  1
  C  586  1  0.95583400  0.28601100  0.35259600  1
  C  587  1  0.97594200  0.26212400  0.32711900  1
  C  588  1  0.97338900  0.28958200  0.30351100  1
  C  589  1  0.95276500  0.33977700  0.30555400  1
  C  610  1  0.95753800  0.06957900  0.74215900  1
  C  611  1  0.91036600  0.59128700  0.73119000  1
  C  612  1  0.89792400  0.12036400  0.70709300  1
  C  613  1  0.93136300  0.13038600  0.69341700  1
  C  614  1  0.97982100  0.10367900  0.70297800  1
  C  615  1  0.49257500  0.57455200  0.72708500  1
  C  616  1  0.91838100  0.16414800  0.66814700  1
  C  617  1  0.94129500  0.12786000  0.64416400  1
  C  618  1  0.98461200  0.11822100  0.63045900  1
  C  619  1  0.50192500  0.58824700  0.60676000  1
  C  620  1  0.97741300  0.06516100  0.59638000  1
  C  621  1  0.92101900  0.09934100  0.63550600  1
  C  622  1  0.86418000  0.19860400  0.66471100  1
  C  623  1  0.93631400  0.20026100  0.67008100  1
  C  624  1  0.93518700  0.22705300  0.64600600  1
  C  625  1  0.95452800  0.25789500  0.64627000  1
  C  626  1  0.97394600  0.26483900  0.67117100  1
  C  627  1  0.97169300  0.24193800  0.69582000  1
  C  628  1  0.95187700  0.21149000  0.69541400  1
  C  629  1  0.83612000  0.22742100  0.68762100  1
  C  630  1  0.78581600  0.25715000  0.68575900  1
  C  631  1  0.76192000  0.26081100  0.66029800  1
  C  632  1  0.78941100  0.23603800  0.63668800  1
  C  633  1  0.83964600  0.20671000  0.63871400  1
  C  653  1  0.96884100  0.52165900  0.81197100  1
  C  655  1  0.53684800  0.95223800  0.83197600  1
  C  656  1  0.51969800  0.96935500  0.85931300  1
  C  658  1  0.95035600  0.53739400  0.83926800  1
  C  661  1  0.86839400  0.57456400  0.85027800  1
  C  665  1  0.57604300  0.87066600  0.81983100  1
  C  669  1  0.94648700  0.54832800  0.78826900  1
  C  671  1  0.54575100  0.94653400  0.88310800  1
  C  673  1  0.52199300  0.50880100  0.14536200  1
  C  675  1  0.95258200  0.51018800  0.16537400  1
  C  676  1  0.96960200  0.51045300  0.19270600  1
  C  678  1  0.53760900  0.51179900  0.17264700  1
  C  681  1  0.57451700  0.55689400  0.18347200  1
  C  685  1  0.87106700  0.55220900  0.15306000  1
  C  689  1  0.54868700  0.50441300  0.12165700  1
  C  691  1  0.94672500  0.50736500  0.21651700  1
  C  693  1  0.00939900  0.46843800  0.47872300  1
  C  695  1  0.01082900  0.03645400  0.49865800  1
  C  696  1  0.01080700  0.01935000  0.52601300  1
  C  698  1  0.01209300  0.45000100  0.50604000  1
  C  701  1  0.05680500  0.36805100  0.51712000  1
  C  705  1  0.05324400  0.07560500  0.48643800  1
  C  709  1  0.00506300  0.44608500  0.45504400  1
  C  711  1  0.00754800  0.04543400  0.54978000  1
  C  713  1  0.81777700  0.54877800  0.99894400  1
  C  715  1  0.77880500  0.63009500  0.98165700  1
  C  716  1  0.81736300  0.63537900  0.99167800  1
  C  718  1  0.85673500  0.55406100  0.00843800  1
  C  721  1  0.93635600  0.49091200  0.00525700  1
  C  725  1  0.69609500  0.68727900  0.98377700  1
  C  729  1  0.81276000  0.50910100  0.00443400  1
  C  731  1  0.81576800  0.67883700  0.98988300  1
  C  733  1  0.54813900  0.63327500  0.33241400  1
  C  735  1  0.62971300  0.59140100  0.31554900  1
  C  736  1  0.63513300  0.54740500  0.32541400  1
  C  738  1  0.55354200  0.58887100  0.34171700  1
  C  741  1  0.99078600  0.07190300  0.33800000  1
  C  745  1  0.68627600  0.61771500  0.31802100  1
  C  749  1  0.50826000  0.67783600  0.33782000  1
  C  751  1  0.67874100  0.50570700  0.32375400  1
  C  753  1  0.63299300  0.81761200  0.66556200  1
  C  755  1  0.59067200  0.77865500  0.64827300  1
  C  756  1  0.54681000  0.81721800  0.65827000  1
  C  758  1  0.58873100  0.85657900  0.67503700  1
  C  761  1  0.57227600  0.43619600  0.67184400  1
  C  764  1  0.61616000  0.69595300  0.65042500  1
  C  768  1  0.67767400  0.81259200  0.67106000  1
  C  769  1  0.50494300  0.81564400  0.65646400  1
  C  771  1  0.06983600  0.97220200  0.07555100  1
  C  772  1  0.09156700  0.99765300  0.06457400  1
  C  773  1  0.12062400  0.98103600  0.04048200  1
  C  774  1  0.13056400  0.93762700  0.02680100  1
  C  775  1  0.10385200  0.91588100  0.03637500  1
  C  776  1  0.07479200  0.43220500  0.06050100  1
  C  777  1  0.16430300  0.91686100  0.00153600  1
  C  778  1  0.12798400  0.93028000  0.97755700  1
  C  779  1  0.11834300  0.89662100  0.96385300  1
  C  780  1  0.08838600  0.40931000  0.94013800  1
  C  781  1  0.06532200  0.95691600  0.92973700  1
  C  782  1  0.06945700  0.99209300  0.94517100  1
  C  783  1  0.09948200  0.97908600  0.96887700  1
  C  784  1  0.19878500  0.93658000  0.99808200  1
  C  785  1  0.20040400  0.86281000  0.00348000  1
  C  786  1  0.22716800  0.83718000  0.97940700  1
  C  787  1  0.25788500  0.78698200  0.97966500  1
  C  788  1  0.26487000  0.76059900  0.00458000  1
  C  789  1  0.24207300  0.78570900  0.02924000  1
  C  790  1  0.21163000  0.83597600  0.02881900  1
  C  791  1  0.22764900  0.93575700  0.02098500  1
  C  792  1  0.25733600  0.95638100  0.01911400  1
  C  793  1  0.26089600  0.97673800  0.99365800  1
  C  794  1  0.23616500  0.97397400  0.97004300  1
  C  795  1  0.20684900  0.95305500  0.97207900  1
  C  815  1  0.47275700  0.95718800  0.40893600  1
  C  816  1  0.99797700  0.40996900  0.39803000  1
  C  817  1  0.48125700  0.89764200  0.37394400  1
  C  818  1  0.43793400  0.93126100  0.36022300  1
  C  819  1  0.41643000  0.97971700  0.36973400  1
  C  820  1  0.43288500  0.99235500  0.39383100  1
  C  821  1  0.41698500  0.91843300  0.33499800  1
  C  822  1  0.43044400  0.94125600  0.31097500  1
  C  823  1  0.39684500  0.98462000  0.29726900  1
  C  824  1  0.40956200  0.00185000  0.27353500  1
  C  825  1  0.45713800  0.97718800  0.26310900  1
  C  826  1  0.49227700  0.93779700  0.27853700  1
  C  827  1  0.47923600  0.92080600  0.30225400  1
  C  828  1  0.43646900  0.86428000  0.33156400  1
  C  829  1  0.36289800  0.93660100  0.33699700  1
  C  830  1  0.33714400  0.93549900  0.31297400  1
  C  831  1  0.28691800  0.95518500  0.31326900  1
  C  832  1  0.26063400  0.97488400  0.33816400  1
  C  833  1  0.28584800  0.97249600  0.36278800  1
  C  834  1  0.33615300  0.95234100  0.36234800  1
  C  835  1  0.43552200  0.83628100  0.35447600  1
  C  836  1  0.45583400  0.78601100  0.35259600  1
  C  837  1  0.47594100  0.76212400  0.32711900  1
  C  838  1  0.47338700  0.78958300  0.30351100  1
  C  839  1  0.45276500  0.83977700  0.30555400  1
  C  860  1  0.45753700  0.56957900  0.74215900  1
  C  861  1  0.41036500  0.09128600  0.73119000  1
  C  862  1  0.39792500  0.62036400  0.70709300  1
  C  863  1  0.43136100  0.63038700  0.69341700  1
  C  864  1  0.47981900  0.60367700  0.70297800  1
  C  865  1  0.99257700  0.07455100  0.72708500  1
  C  866  1  0.41838200  0.66414800  0.66814700  1
  C  867  1  0.44129400  0.62786000  0.64416400  1
  C  868  1  0.48461300  0.61822000  0.63045900  1
  C  869  1  0.00192200  0.08824800  0.60676000  1
  C  870  1  0.47741300  0.56516100  0.59638000  1
  C  871  1  0.42101800  0.59934100  0.63550600  1
  C  872  1  0.36417900  0.69860500  0.66471100  1
  C  873  1  0.43631300  0.70026200  0.67008100  1
  C  874  1  0.43518600  0.72705400  0.64600600  1
  C  875  1  0.45452600  0.75789300  0.64627000  1
  C  876  1  0.47394500  0.76483900  0.67117100  1
  C  877  1  0.47169400  0.74193800  0.69582000  1
  C  878  1  0.45187500  0.71149200  0.69541400  1
  C  879  1  0.33612000  0.72742100  0.68762100  1
  C  880  1  0.28581500  0.75715100  0.68575900  1
  C  881  1  0.26191900  0.76081200  0.66029800  1
  C  882  1  0.28940900  0.73603900  0.63668800  1
  C  883  1  0.33964600  0.70671100  0.63871400  1
  C  903  1  0.46884100  0.02166000  0.81197100  1
  C  905  1  0.03684900  0.45223700  0.83197600  1
  C  906  1  0.01969900  0.46935500  0.85931300  1
  C  908  1  0.45035500  0.03739400  0.83926800  1
  C  911  1  0.36839300  0.07456400  0.85027800  1
  C  915  1  0.07604400  0.37066500  0.81983100  1
  C  919  1  0.44648700  0.04832700  0.78826900  1
  C  921  1  0.04574800  0.44653500  0.88310800  1
  C  923  1  0.02199400  0.00880100  0.14536200  1
  C  925  1  0.45258200  0.01018800  0.16537400  1
  C  926  1  0.46960200  0.01045400  0.19270600  1
  C  928  1  0.03761000  0.01179800  0.17264700  1
  C  931  1  0.07451800  0.05689400  0.18347200  1
  C  935  1  0.37106600  0.05221000  0.15306000  1
  C  939  1  0.04868800  0.00440900  0.12165700  1
  C  941  1  0.44672600  0.00736600  0.21651700  1
  C  943  1  0.50939800  0.96843900  0.47872300  1
  C  945  1  0.51082800  0.53645400  0.49865800  1
  C  946  1  0.51080600  0.51935000  0.52601300  1
  C  948  1  0.51209200  0.95000100  0.50604000  1
  C  951  1  0.55680400  0.86805400  0.51712000  1
  C  955  1  0.55324200  0.57560600  0.48643800  1
  C  959  1  0.50506200  0.94608600  0.45504400  1
  C  961  1  0.50755100  0.54543200  0.54978000  1
  C  963  1  0.31777800  0.04877600  0.99894400  1
  C  965  1  0.27880600  0.13009400  0.98165700  1
  C  966  1  0.31736300  0.13538100  0.99167800  1
  C  968  1  0.35673300  0.05406200  0.00843800  1
  C  971  1  0.43635400  0.99091300  0.00525700  1
  C  975  1  0.19609500  0.18728000  0.98377600  1
  C  979  1  0.31275900  0.00910200  0.00443400  1
  C  981  1  0.31576800  0.17883600  0.98988300  1
  C  983  1  0.04814000  0.13327400  0.33241400  1
  C  985  1  0.12971400  0.09140100  0.31554900  1
  C  986  1  0.13513400  0.04740400  0.32541400  1
  C  988  1  0.05354300  0.08887100  0.34171700  1
  C  991  1  0.49078600  0.57190400  0.33800000  1
  C  995  1  0.18627500  0.11771600  0.31802100  1
  C  999  1  0.00825800  0.17783600  0.33782000  1
  C  1001  1  0.17874100  0.00570600  0.32375400  1
  C  1003  1  0.13299000  0.31761500  0.66556200  1
  C  1005  1  0.09067300  0.27865400  0.64827300  1
  C  1006  1  0.04680700  0.31722000  0.65827000  1
  C  1008  1  0.08873200  0.35657600  0.67503700  1
  C  1011  1  0.07227700  0.93619500  0.67184400  1
  C  1014  1  0.11616100  0.19595200  0.65042500  1
  C  1018  1  0.17767400  0.31259300  0.67106000  1
  C  1019  1  0.00494000  0.31564300  0.65646400  1
  N  1  1  0.78359700  0.21329300  0.00471000  1
  N  2  1  0.71480400  0.27936100  0.65840600  1
  N  3  1  0.28359800  0.71329300  0.00471000  1
  N  4  1  0.21480500  0.77936000  0.65840600  1
  N  14  1  0.51140400  0.47962600  0.80973900  1
  N  17  1  0.97708900  0.01133700  0.86154100  1
  N  24  1  0.01140100  0.97962800  0.80973900  1
  N  27  1  0.47708900  0.51133700  0.86154100  1
  N  39  1  0.98002800  0.00813900  0.14314300  1
  N  40  1  0.01139800  0.97675900  0.52828600  1
  N  41  1  0.48002900  0.50813800  0.14314300  1
  N  42  1  0.51140100  0.47675700  0.52828600  1
  N  51  1  0.54142500  0.47049000  0.90559500  1
  N  52  1  0.04142600  0.97049000  0.90559500  1
  N  57  1  0.48370500  0.47050400  0.43296300  1
  N  58  1  0.97072300  0.98756800  0.23898100  1
  N  59  1  0.97091200  0.04529400  0.76619400  1
  N  69  1  0.98370400  0.97050400  0.43296300  1
  N  70  1  0.47072200  0.48756800  0.23898100  1
  N  71  1  0.47091200  0.54529400  0.76619400  1
  N  117  1  0.78359700  0.71329400  0.00471000  1
  N  118  1  0.77949800  0.00525900  0.99177800  1
  N  119  1  0.54557900  0.98309200  0.09958900  1
  N  161  1  0.71342600  0.00387300  0.33813200  1
  N  162  1  0.00443300  0.71501300  0.32524200  1
  N  201  1  0.00259200  0.78348700  0.67129500  1
  N  202  1  0.71480400  0.77936200  0.65840600  1
  N  203  1  0.48779300  0.04122100  0.57226100  1
  N  212  1  0.51151300  0.01122000  0.19492500  1
  N  227  1  0.00889900  0.51098400  0.47645000  1
  N  245  1  0.78095600  0.08729500  0.98583500  1
  N  248  1  0.85454200  0.09727100  0.00477500  1
  N  263  1  0.58672900  0.13187100  0.31958400  1
  N  266  1  0.59692900  0.04801800  0.33818900  1
  N  283  1  0.63131800  0.28079500  0.65246200  1
  N  286  1  0.54772100  0.35439300  0.67136000  1
  N  337  1  0.28359800  0.21329200  0.00471000  1
  N  338  1  0.27949800  0.50525900  0.99177800  1
  N  339  1  0.04558000  0.48309100  0.09958900  1
  N  381  1  0.21342600  0.50387300  0.33813200  1
  N  382  1  0.50443600  0.21501200  0.32524200  1
  N  421  1  0.50259100  0.28348800  0.67129500  1
  N  422  1  0.21480500  0.27936100  0.65840600  1
  N  423  1  0.98779200  0.54122200  0.57226100  1
  N  432  1  0.01151400  0.51122000  0.19492500  1
  N  447  1  0.50889800  0.01098500  0.47645000  1
  N  465  1  0.28095600  0.58729500  0.98583500  1
  N  468  1  0.35454300  0.59727000  0.00477500  1
  N  483  1  0.08673000  0.63187000  0.31958400  1
  N  486  1  0.09693000  0.54801700  0.33818900  1
  N  503  1  0.13131600  0.78079500  0.65246200  1
  N  506  1  0.04771900  0.85439200  0.67136000  1
  N  561  1  0.77949800  0.50526000  0.99177800  1
  N  562  1  0.54557900  0.48309100  0.09958900  1
  N  563  1  0.54142500  0.97049200  0.90559500  1
  N  605  1  0.71342600  0.50387500  0.33813200  1
  N  606  1  0.00443300  0.21501300  0.32524200  1
  N  607  1  0.48370500  0.97050300  0.43296300  1
  N  608  1  0.97072300  0.48756700  0.23898100  1
  N  649  1  0.00259200  0.28348700  0.67129500  1
  N  650  1  0.97091200  0.54529400  0.76619400  1
  N  651  1  0.48779300  0.54122000  0.57226100  1
  N  654  1  0.51140400  0.97962600  0.80973900  1
  N  657  1  0.97708900  0.51133700  0.86154100  1
  N  674  1  0.98002800  0.50813800  0.14314300  1
  N  677  1  0.51151300  0.51122100  0.19492500  1
  N  694  1  0.00889900  0.01098500  0.47645000  1
  N  697  1  0.01139800  0.47675900  0.52828600  1
  N  714  1  0.78095600  0.58729500  0.98583500  1
  N  717  1  0.85454200  0.59727100  0.00477500  1
  N  734  1  0.58672900  0.63187100  0.31958400  1
  N  737  1  0.59692900  0.54801900  0.33818900  1
  N  754  1  0.63131800  0.78079300  0.65246200  1
  N  757  1  0.54772100  0.85439400  0.67136000  1
  N  811  1  0.27949800  0.00525900  0.99177800  1
  N  812  1  0.04558000  0.98309100  0.09958900  1
  N  813  1  0.04142600  0.47049100  0.90559500  1
  N  855  1  0.21342600  0.00387200  0.33813200  1
  N  856  1  0.50443600  0.71501100  0.32524200  1
  N  857  1  0.98370400  0.47050500  0.43296300  1
  N  858  1  0.47072200  0.98756800  0.23898100  1
  N  899  1  0.50259100  0.78348700  0.67129500  1
  N  900  1  0.47091200  0.04529300  0.76619400  1
  N  901  1  0.98779200  0.04122100  0.57226100  1
  N  904  1  0.01140100  0.47962800  0.80973900  1
  N  907  1  0.47708900  0.01133700  0.86154100  1
  N  924  1  0.48002900  0.00813800  0.14314300  1
  N  927  1  0.01151400  0.01122000  0.19492500  1
  N  944  1  0.50889800  0.51098500  0.47645000  1
  N  947  1  0.51140100  0.97675700  0.52828600  1
  N  964  1  0.28095600  0.08729500  0.98583500  1
  N  967  1  0.35454300  0.09727000  0.00477500  1
  N  984  1  0.08673000  0.13187100  0.31958400  1
  N  987  1  0.09693000  0.04801800  0.33818900  1
  N  1004  1  0.13131600  0.28079500  0.65246200  1
  N  1007  1  0.04771900  0.35439300  0.67136000  1
  O  18  1  0.90919300  0.08024500  0.84419500  1
  O  19  1  0.58037500  0.41183400  0.82711700  1
  O  28  1  0.40919400  0.58024500  0.84419500  1
  O  29  1  0.08037600  0.91183300  0.82711700  1
  O  214  1  0.58037600  0.01030300  0.17755900  1
  O  215  1  0.91229300  0.00685400  0.16053400  1
  O  231  1  0.01035400  0.90886700  0.51101000  1
  O  232  1  0.00772800  0.57996700  0.49375500  1
  O  250  1  0.89489600  0.01839700  0.02273900  1
  O  251  1  0.74010000  0.16631400  0.96788200  1
  O  268  1  0.51780400  0.08607700  0.35573900  1
  O  269  1  0.66594800  0.09420900  0.30200500  1
  O  288  1  0.58621400  0.39472900  0.68933100  1
  O  289  1  0.59317900  0.23995300  0.63450900  1
  O  434  1  0.08037400  0.51030400  0.17755900  1
  O  435  1  0.41229200  0.50685500  0.16053400  1
  O  451  1  0.51035300  0.40886800  0.51101000  1
  O  452  1  0.50773100  0.07996600  0.49375500  1
  O  470  1  0.39489800  0.51839500  0.02273900  1
  O  471  1  0.24009800  0.66631400  0.96788200  1
  O  488  1  0.01780500  0.58607600  0.35573900  1
  O  489  1  0.16594800  0.59420900  0.30200500  1
  O  508  1  0.08621500  0.89472800  0.68933100  1
  O  509  1  0.09318000  0.73995300  0.63450900  1
  O  659  1  0.90919300  0.58024500  0.84419500  1
  O  660  1  0.58037500  0.91183400  0.82711700  1
  O  679  1  0.58037600  0.51030300  0.17755900  1
  O  680  1  0.91229300  0.50685400  0.16053400  1
  O  699  1  0.01035400  0.40886700  0.51101000  1
  O  700  1  0.00772800  0.07996600  0.49375500  1
  O  719  1  0.89489600  0.51839700  0.02273900  1
  O  720  1  0.74010000  0.66631400  0.96788200  1
  O  739  1  0.51780400  0.58607800  0.35573900  1
  O  740  1  0.66594800  0.59420800  0.30200500  1
  O  759  1  0.58621400  0.89472800  0.68933100  1
  O  760  1  0.59317900  0.73995400  0.63450900  1
  O  909  1  0.40919400  0.08024500  0.84419500  1
  O  910  1  0.08037600  0.41183300  0.82711700  1
  O  929  1  0.08037400  0.01030400  0.17755900  1
  O  930  1  0.41229200  0.00685500  0.16053400  1
  O  949  1  0.51035300  0.90886700  0.51101000  1
  O  950  1  0.50773100  0.57996400  0.49375500  1
  O  969  1  0.39489800  0.01839600  0.02273900  1
  O  970  1  0.24009800  0.16631400  0.96788200  1
  O  989  1  0.01780500  0.08607400  0.35573900  1
  O  990  1  0.16594800  0.09420800  0.30200500  1
  O  1009  1  0.08621500  0.39472900  0.68933100  1
  O  1010  1  0.09318000  0.23995300  0.63450900  1
