# generated using pymatgen
data_H15C20N4O3
_symmetry_space_group_name_H-M   'P 1'
_cell_length_a   55.23670000
_cell_length_b   55.23670000
_cell_length_c   55.23670000
_cell_angle_alpha   90.00000000
_cell_angle_beta   90.00000000
_cell_angle_gamma   90.00000000
_symmetry_Int_Tables_number   1
_chemical_formula_structural   H15C20N4O3
_chemical_formula_sum   'H720 C960 N192 O144'
_cell_volume   168532.31019841
_cell_formula_units_Z   48
loop_
 _symmetry_equiv_pos_site_id
 _symmetry_equiv_pos_as_xyz
  1  'x, y, z'
loop_
 _atom_site_type_symbol
 _atom_site_label
 _atom_site_symmetry_multiplicity
 _atom_site_fract_x
 _atom_site_fract_y
 _atom_site_fract_z
 _atom_site_occupancy
  H  7  1  0.31659000  0.33514700  0.03754800  1
  H  8  1  0.27880200  0.39529500  0.01100900  1
  H  15  1  0.39565700  0.27869900  0.99202600  1
  H  16  1  0.33529300  0.31616800  0.96553100  1
  H  19  1  0.32771800  0.35803500  0.95023200  1
  H  20  1  0.35854900  0.32786100  0.05268500  1
  H  25  1  0.35794800  0.26822000  0.95338200  1
  H  26  1  0.31257100  0.40445200  0.95834900  1
  H  27  1  0.26886600  0.35748300  0.05032200  1
  H  28  1  0.40498200  0.31278300  0.04443600  1
  H  35  1  0.68670200  0.66779500  0.03760600  1
  H  36  1  0.72423900  0.60746900  0.01110900  1
  H  43  1  0.60698400  0.72365800  0.99205700  1
  H  44  1  0.66755800  0.68652500  0.96555100  1
  H  47  1  0.67515800  0.64463100  0.95039500  1
  H  48  1  0.64483200  0.67525500  0.05290400  1
  H  53  1  0.64544200  0.73325500  0.95211100  1
  H  54  1  0.69028300  0.59820100  0.95863000  1
  H  55  1  0.73437500  0.64535900  0.05010300  1
  H  56  1  0.59825400  0.69001900  0.04481100  1
  H  63  1  0.68660300  0.33541100  0.96563100  1
  H  64  1  0.72399800  0.39581400  0.99214600  1
  H  71  1  0.60768300  0.27867900  0.01110100  1
  H  72  1  0.66790000  0.31636600  0.03763100  1
  H  75  1  0.67526800  0.35828700  0.05291900  1
  H  76  1  0.64467100  0.32796500  0.95046200  1
  H  81  1  0.64531500  0.26827800  0.04973100  1
  H  82  1  0.69018200  0.40478700  0.04480900  1
  H  83  1  0.73410200  0.35786900  0.95302300  1
  H  84  1  0.59826800  0.31274800  0.95869300  1
  H  91  1  0.31625700  0.66819800  0.96542100  1
  H  92  1  0.27828600  0.60811500  0.99184000  1
  H  99  1  0.39617100  0.72364900  0.01094800  1
  H  100  1  0.33558600  0.68654700  0.03747400  1
  H  103  1  0.32788000  0.64463300  0.05251300  1
  H  104  1  0.35811900  0.67549400  0.95004300  1
  H  109  1  0.35776900  0.73318200  0.05100500  1
  H  110  1  0.31239000  0.59838800  0.04417500  1
  H  111  1  0.26802300  0.64577500  0.95332600  1
  H  112  1  0.40474900  0.69015800  0.95808500  1
  H  119  1  0.03763300  0.31664400  0.33547200  1
  H  120  1  0.01101800  0.27932000  0.39587800  1
  H  127  1  0.99207000  0.39527700  0.27838000  1
  H  128  1  0.96560200  0.33504300  0.31607600  1
  H  131  1  0.95015600  0.32757700  0.35788700  1
  H  132  1  0.05267300  0.35857300  0.32791900  1
  H  137  1  0.95354700  0.35757200  0.26794800  1
  H  138  1  0.95814300  0.31278300  0.40448800  1
  H  139  1  0.05110500  0.26990700  0.35754800  1
  H  140  1  0.04438200  0.40486300  0.31257300  1
  H  147  1  0.03762900  0.68664400  0.66781800  1
  H  148  1  0.01111800  0.72418300  0.60750000  1
  H  155  1  0.99211000  0.60686100  0.72363800  1
  H  156  1  0.96557700  0.66745400  0.68655600  1
  H  159  1  0.95042000  0.67508100  0.64466500  1
  H  160  1  0.05293800  0.64477600  0.67526400  1
  H  165  1  0.95215800  0.64526400  0.73329800  1
  H  166  1  0.95864600  0.69021800  0.59823600  1
  H  167  1  0.05010600  0.73433600  0.64538000  1
  H  168  1  0.04485900  0.59817300  0.68998800  1
  H  175  1  0.96563100  0.68650700  0.33561200  1
  H  176  1  0.99216900  0.72348400  0.39626300  1
  H  183  1  0.01115400  0.60784900  0.27843800  1
  H  184  1  0.03767800  0.66796300  0.31628900  1
  H  187  1  0.05303000  0.67530100  0.35816600  1
  H  188  1  0.95052300  0.64462300  0.32789600  1
  H  193  1  0.04976900  0.64544000  0.26811300  1
  H  194  1  0.04499800  0.68991600  0.40480800  1
  H  195  1  0.95213800  0.73313200  0.35784900  1
  H  196  1  0.95877500  0.59831000  0.31251500  1
  H  203  1  0.96547700  0.31625300  0.66811300  1
  H  204  1  0.99192700  0.27823900  0.60806800  1
  H  211  1  0.01100300  0.39621500  0.72351500  1
  H  212  1  0.03751700  0.33556500  0.68650700  1
  H  215  1  0.05258500  0.32784500  0.64459600  1
  H  216  1  0.95011400  0.35814000  0.67535100  1
  H  221  1  0.05103200  0.35776600  0.73311900  1
  H  222  1  0.04426400  0.31233900  0.59834800  1
  H  223  1  0.95339300  0.26800500  0.64572400  1
  H  224  1  0.95817600  0.40478900  0.68996500  1
  H  231  1  0.33565000  0.03758200  0.31665900  1
  H  232  1  0.39614800  0.01101000  0.27944600  1
  H  239  1  0.27848100  0.99196300  0.39521000  1
  H  240  1  0.31622800  0.96554900  0.33498200  1
  H  243  1  0.35807000  0.95011000  0.32759500  1
  H  244  1  0.32807300  0.05259000  0.35860900  1
  H  249  1  0.26806800  0.95349200  0.35745100  1
  H  250  1  0.40469600  0.95811100  0.31290400  1
  H  251  1  0.35776200  0.05113300  0.27001800  1
  H  252  1  0.31270900  0.04423800  0.40489000  1
  H  259  1  0.66791200  0.03771600  0.68683600  1
  H  260  1  0.60765500  0.01121200  0.72448000  1
  H  267  1  0.72347000  0.99223100  0.60684800  1
  H  268  1  0.68644200  0.96570500  0.66748000  1
  H  271  1  0.64448600  0.95062500  0.67500500  1
  H  272  1  0.67527500  0.05309900  0.64494000  1
  H  277  1  0.73309500  0.95221600  0.64530100  1
  H  278  1  0.59811100  0.95892900  0.69026500  1
  H  279  1  0.64531100  0.04974100  0.73498500  1
  H  280  1  0.68987800  0.04504800  0.59827000  1
  H  287  1  0.33530000  0.96562200  0.68670800  1
  H  288  1  0.39570000  0.99213000  0.72411400  1
  H  295  1  0.27859500  0.01108200  0.60775700  1
  H  296  1  0.31640900  0.03763500  0.66788200  1
  H  299  1  0.35834800  0.05284600  0.67519700  1
  H  300  1  0.32776400  0.95039100  0.64481400  1
  H  305  1  0.26831800  0.04980200  0.64530400  1
  H  306  1  0.40482100  0.04468100  0.69018400  1
  H  307  1  0.35788500  0.95297400  0.73440800  1
  H  308  1  0.31252600  0.95856900  0.59841500  1
  H  315  1  0.66794000  0.96547900  0.31643300  1
  H  316  1  0.60770800  0.99194700  0.27872400  1
  H  323  1  0.72363600  0.01104100  0.39623100  1
  H  324  1  0.68658100  0.03754000  0.33560600  1
  H  327  1  0.64468900  0.05267600  0.32792500  1
  H  328  1  0.67530800  0.95018100  0.35831400  1
  H  333  1  0.73331100  0.05097600  0.35783200  1
  H  334  1  0.59831600  0.04441400  0.31266100  1
  H  335  1  0.64561400  0.95298900  0.26868500  1
  H  336  1  0.69000500  0.95828800  0.40492800  1
  H  343  1  0.81653400  0.83531400  0.53766400  1
  H  344  1  0.77889500  0.89558100  0.51117600  1
  H  351  1  0.89567200  0.77892500  0.49207800  1
  H  352  1  0.83530800  0.81644200  0.46563600  1
  H  355  1  0.82784400  0.85834900  0.45040700  1
  H  356  1  0.85847600  0.82791500  0.55283300  1
  H  361  1  0.85773300  0.76875100  0.45293600  1
  H  362  1  0.81274500  0.90478500  0.45859200  1
  H  363  1  0.76882900  0.85770300  0.55039800  1
  H  364  1  0.90493900  0.81286100  0.54458100  1
  H  371  1  0.18687000  0.16779700  0.53768200  1
  H  372  1  0.22454400  0.10755800  0.51117600  1
  H  379  1  0.10675000  0.22321000  0.49222500  1
  H  380  1  0.16743300  0.18626900  0.46568800  1
  H  383  1  0.17496200  0.14430500  0.45062000  1
  H  384  1  0.14498000  0.17513300  0.55310500  1
  H  389  1  0.14547500  0.23255500  0.45171600  1
  H  390  1  0.19026300  0.09796900  0.45891700  1
  H  391  1  0.23509400  0.14519600  0.54963600  1
  H  392  1  0.09827800  0.18967300  0.54508600  1
  H  399  1  0.18635200  0.83573200  0.46557800  1
  H  400  1  0.22323000  0.89649600  0.49201900  1
  H  407  1  0.10768200  0.77862100  0.51126300  1
  H  408  1  0.16789900  0.81640600  0.53766000  1
  H  411  1  0.17524100  0.85830600  0.55297800  1
  H  412  1  0.14441800  0.82801600  0.45054800  1
  H  417  1  0.14549100  0.76840200  0.55020100  1
  H  418  1  0.18973600  0.90504800  0.54484000  1
  H  419  1  0.23262100  0.85776600  0.45154400  1
  H  420  1  0.09806300  0.81266900  0.45891700  1
  H  427  1  0.81630300  0.16810000  0.46547800  1
  H  428  1  0.77839500  0.10795800  0.49186500  1
  H  435  1  0.89644100  0.22332200  0.51104600  1
  H  436  1  0.83573900  0.18637800  0.53753500  1
  H  439  1  0.82806100  0.14441800  0.55252000  1
  H  440  1  0.85817500  0.17540200  0.45008300  1
  H  445  1  0.85774800  0.23262100  0.55159800  1
  H  446  1  0.81257200  0.09813200  0.54410000  1
  H  447  1  0.76803400  0.14565100  0.45343700  1
  H  448  1  0.90492500  0.18990400  0.45816600  1
  H  455  1  0.53754300  0.81679500  0.83542800  1
  H  456  1  0.51103700  0.77945900  0.89588000  1
  H  463  1  0.49196400  0.89561200  0.77859800  1
  H  464  1  0.46551600  0.83529400  0.81618100  1
  H  467  1  0.45015100  0.82782800  0.85805400  1
  H  468  1  0.55259600  0.85876900  0.82800300  1
  H  473  1  0.45345900  0.85792500  0.76807600  1
  H  474  1  0.45823700  0.81302000  0.90465500  1
  H  475  1  0.55108100  0.76988400  0.85756300  1
  H  476  1  0.54426300  0.90514900  0.81279200  1
  H  483  1  0.53776700  0.18675400  0.16781800  1
  H  484  1  0.51129600  0.22439600  0.10754300  1
  H  491  1  0.49219400  0.10704100  0.22360800  1
  H  492  1  0.46575700  0.16759900  0.18639400  1
  H  495  1  0.45066000  0.17501500  0.14441800  1
  H  496  1  0.55307900  0.14483000  0.17520400  1
  H  501  1  0.45225200  0.14545400  0.23330100  1
  H  502  1  0.45897400  0.19022800  0.09802300  1
  H  503  1  0.54983200  0.23487800  0.14521300  1
  H  504  1  0.54494000  0.09821900  0.18994800  1
  H  511  1  0.46562700  0.18655300  0.83542400  1
  H  512  1  0.49211100  0.22399900  0.89581100  1
  H  519  1  0.51114200  0.10752900  0.77883500  1
  H  520  1  0.53763700  0.16777800  0.81649600  1
  H  523  1  0.55286000  0.17512500  0.85844700  1
  H  524  1  0.45044500  0.14460700  0.82798700  1
  H  529  1  0.54980300  0.14519300  0.76845800  1
  H  530  1  0.54467400  0.19009100  0.90494500  1
  H  531  1  0.45293600  0.23424300  0.85796000  1
  H  532  1  0.45868400  0.09817000  0.81284300  1
  H  539  1  0.46555200  0.81642600  0.16787400  1
  H  540  1  0.49193000  0.77881100  0.10754100  1
  H  547  1  0.51119100  0.89600300  0.22375700  1
  H  548  1  0.53761700  0.83546600  0.18649900  1
  H  551  1  0.55271700  0.82792000  0.14454800  1
  H  552  1  0.45030400  0.85833500  0.17527800  1
  H  557  1  0.55107300  0.85766300  0.23349300  1
  H  558  1  0.54436200  0.81275100  0.09810300  1
  H  559  1  0.45306100  0.76869900  0.14552700  1
  H  560  1  0.45851400  0.90493400  0.19008400  1
  H  567  1  0.83525600  0.53751400  0.81658300  1
  H  568  1  0.89550000  0.51105100  0.77889100  1
  H  575  1  0.77894700  0.49195300  0.89577200  1
  H  576  1  0.81639500  0.46549100  0.83537200  1
  H  579  1  0.85830900  0.45026400  0.82785500  1
  H  580  1  0.82794500  0.55267900  0.85854300  1
  H  585  1  0.76867300  0.45285100  0.85787500  1
  H  586  1  0.90473800  0.45845600  0.81272900  1
  H  587  1  0.85762300  0.55024600  0.76884000  1
  H  588  1  0.81292800  0.54441700  0.90503500  1
  H  595  1  0.16777300  0.53765700  0.18660400  1
  H  596  1  0.10741000  0.51118900  0.22410600  1
  H  603  1  0.22333100  0.49210500  0.10657700  1
  H  604  1  0.18642100  0.46561000  0.16729800  1
  H  607  1  0.14447700  0.45051200  0.17489800  1
  H  608  1  0.17518300  0.55298700  0.14470600  1
  H  613  1  0.23277600  0.45167800  0.14528600  1
  H  614  1  0.09804700  0.45879800  0.19003100  1
  H  615  1  0.14530300  0.55002700  0.23439800  1
  H  616  1  0.18973600  0.54489100  0.09801000  1
  H  623  1  0.83568100  0.46559200  0.18638500  1
  H  624  1  0.89633100  0.49205300  0.22343800  1
  H  631  1  0.77878200  0.51123400  0.10756600  1
  H  632  1  0.81645800  0.53764000  0.16785000  1
  H  635  1  0.85838200  0.55294700  0.17517500  1
  H  636  1  0.82809400  0.45052600  0.14442700  1
  H  641  1  0.76851400  0.55018500  0.14541800  1
  H  642  1  0.90505700  0.54479000  0.18980300  1
  H  643  1  0.85791500  0.45218500  0.23316400  1
  H  644  1  0.81285000  0.45888100  0.09802200  1
  H  651  1  0.16793100  0.46545500  0.81643300  1
  H  652  1  0.10769400  0.49187600  0.77869500  1
  H  659  1  0.22335700  0.51104900  0.89645400  1
  H  660  1  0.18643800  0.53751700  0.83572500  1
  H  663  1  0.14450700  0.55258900  0.82804500  1
  H  664  1  0.17527800  0.45012600  0.85831800  1
  H  669  1  0.23273600  0.55151700  0.85771900  1
  H  670  1  0.09813300  0.54423700  0.81271800  1
  H  671  1  0.14562500  0.45306300  0.76857900  1
  H  672  1  0.18981900  0.45824900  0.90503000  1
  H  687  1  0.47132400  0.31123700  0.87164500  1
  H  688  1  0.46553600  0.32610700  0.89939200  1
  H  689  1  0.43293100  0.32860200  0.85440400  1
  H  690  1  0.45322600  0.35148000  0.86416000  1
  H  691  1  0.42770600  0.34409500  0.88214700  1
  H  694  1  0.37205700  0.19162600  0.97194600  1
  H  695  1  0.39963300  0.17657000  0.96582600  1
  H  696  1  0.35420800  0.17441100  0.93379700  1
  H  697  1  0.36410000  0.15143700  0.95391600  1
  H  698  1  0.38177900  0.15875500  0.92816300  1
  H  715  1  0.53085000  0.69272200  0.87124100  1
  H  716  1  0.53649600  0.67753800  0.89885100  1
  H  717  1  0.56901800  0.67509200  0.85379800  1
  H  718  1  0.54849500  0.65234800  0.86338400  1
  H  719  1  0.57411800  0.65929900  0.88139300  1
  H  722  1  0.63137300  0.81042300  0.97244700  1
  H  723  1  0.60398200  0.82579600  0.96627900  1
  H  724  1  0.64964400  0.82780000  0.93458100  1
  H  725  1  0.63982200  0.85069500  0.95482300  1
  H  726  1  0.62226200  0.84375900  0.92888500  1
  H  743  1  0.53192000  0.31159500  0.13132700  1
  H  744  1  0.53781800  0.32640400  0.10356900  1
  H  745  1  0.57023800  0.32898400  0.14868800  1
  H  746  1  0.55000400  0.35185300  0.13878800  1
  H  747  1  0.57559700  0.34440800  0.12093300  1
  H  750  1  0.63128500  0.19158300  0.03163300  1
  H  751  1  0.60358600  0.17671000  0.03764500  1
  H  752  1  0.64884500  0.17425400  0.06987900  1
  H  753  1  0.63890600  0.15135000  0.04970300  1
  H  754  1  0.62114800  0.15877100  0.07536900  1
  H  771  1  0.47243600  0.69208600  0.13148900  1
  H  772  1  0.46656600  0.67697300  0.10388800  1
  H  773  1  0.43436900  0.67452800  0.14917800  1
  H  774  1  0.45473400  0.65173700  0.13937300  1
  H  775  1  0.42899200  0.65882100  0.12158600  1
  H  778  1  0.37162600  0.81057800  0.03149800  1
  H  779  1  0.39918000  0.82571300  0.03752700  1
  H  780  1  0.35379400  0.82796000  0.06959700  1
  H  781  1  0.36360800  0.85084000  0.04933400  1
  H  782  1  0.38134200  0.84370100  0.07509600  1
  H  799  1  0.87105100  0.47041900  0.31083100  1
  H  800  1  0.89918600  0.46547800  0.32527400  1
  H  801  1  0.85512800  0.43175800  0.32898200  1
  H  802  1  0.86467600  0.45265900  0.35139700  1
  H  803  1  0.88325100  0.42754500  0.34409300  1
  H  806  1  0.97293200  0.37218500  0.19165900  1
  H  807  1  0.96672600  0.39972100  0.17656600  1
  H  808  1  0.93507500  0.35404300  0.17414200  1
  H  809  1  0.95528100  0.36411600  0.15132400  1
  H  810  1  0.92932900  0.38157600  0.15846000  1
  H  827  1  0.87164100  0.53057600  0.69219500  1
  H  828  1  0.89920900  0.53649600  0.67704200  1
  H  829  1  0.85388100  0.56864900  0.67471800  1
  H  830  1  0.86366600  0.54832200  0.65188300  1
  H  831  1  0.88143900  0.57407400  0.65896700  1
  H  834  1  0.97161400  0.63142000  0.81068500  1
  H  835  1  0.96560600  0.60386600  0.82583100  1
  H  836  1  0.93349500  0.64922600  0.82804500  1
  H  837  1  0.95375500  0.63943900  0.85093700  1
  H  838  1  0.92800900  0.62167900  0.84379300  1
  H  855  1  0.13160600  0.53222400  0.31142000  1
  H  856  1  0.10373500  0.53788100  0.32611100  1
  H  857  1  0.14857400  0.57065600  0.32898900  1
  H  858  1  0.13875000  0.55026400  0.35175000  1
  H  859  1  0.12070700  0.57572400  0.34430900  1
  H  862  1  0.03133200  0.63116500  0.19153400  1
  H  863  1  0.03744200  0.60351700  0.17660500  1
  H  864  1  0.06945300  0.64893800  0.17417400  1
  H  865  1  0.04930100  0.63893000  0.15128000  1
  H  866  1  0.07506900  0.62129300  0.15864500  1
  H  883  1  0.13151500  0.47243900  0.69201000  1
  H  884  1  0.10389800  0.46657200  0.67692400  1
  H  885  1  0.14919800  0.43439600  0.67439700  1
  H  886  1  0.13935600  0.45477500  0.65163300  1
  H  887  1  0.12158900  0.42901900  0.65871900  1
  H  890  1  0.03163500  0.37159000  0.81055300  1
  H  891  1  0.03761600  0.39918900  0.82562400  1
  H  892  1  0.06975200  0.35385900  0.82801600  1
  H  893  1  0.04944600  0.36369300  0.85084900  1
  H  894  1  0.07518600  0.38145400  0.84369600  1
  H  911  1  0.31074800  0.87037700  0.46986800  1
  H  912  1  0.32477100  0.89885500  0.46573500  1
  H  913  1  0.32968300  0.85569100  0.43104300  1
  H  914  1  0.35162300  0.86504900  0.45252300  1
  H  915  1  0.34440700  0.88414300  0.42777700  1
  H  918  1  0.19193600  0.97342600  0.37232300  1
  H  919  1  0.17681100  0.96721700  0.39984300  1
  H  920  1  0.17421900  0.93572500  0.35406300  1
  H  921  1  0.15150800  0.95602000  0.36419800  1
  H  922  1  0.15850500  0.92997300  0.38157600  1
  H  939  1  0.69221700  0.87172600  0.53054500  1
  H  940  1  0.67702200  0.89927300  0.53645600  1
  H  941  1  0.67472800  0.85393200  0.56859400  1
  H  942  1  0.65189800  0.86369700  0.54825100  1
  H  943  1  0.65893800  0.88146900  0.57401700  1
  H  946  1  0.81053700  0.97175900  0.63153300  1
  H  947  1  0.82570400  0.96577000  0.60398800  1
  H  948  1  0.82790700  0.93363800  0.64933200  1
  H  949  1  0.85079400  0.95391900  0.63957300  1
  H  950  1  0.84367900  0.92817900  0.62179400  1
  H  967  1  0.31181100  0.13130400  0.53192500  1
  H  968  1  0.32658200  0.10352700  0.53782700  1
  H  969  1  0.32918300  0.14862900  0.57026700  1
  H  970  1  0.35205700  0.13871200  0.55005100  1
  H  971  1  0.34457100  0.12085400  0.57562800  1
  H  974  1  0.19160800  0.03173400  0.63119600  1
  H  975  1  0.17675700  0.03776000  0.60348800  1
  H  976  1  0.17431600  0.07000200  0.64874200  1
  H  977  1  0.15139300  0.04985400  0.63879400  1
  H  978  1  0.15885500  0.07550900  0.62103800  1
  H  995  1  0.69168600  0.13132600  0.47248100  1
  H  996  1  0.67670900  0.10367000  0.46651900  1
  H  997  1  0.67406000  0.14905000  0.43446600  1
  H  998  1  0.65130400  0.13906500  0.45478400  1
  H  999  1  0.65849100  0.12139900  0.42898800  1
  H  1002  1  0.81083200  0.03219400  0.37159100  1
  H  1003  1  0.82566100  0.03799400  0.39935900  1
  H  1004  1  0.82844000  0.07046100  0.35429100  1
  H  1005  1  0.85118200  0.05006700  0.36415400  1
  H  1006  1  0.84389300  0.07566900  0.38205900  1
  H  1023  1  0.31069400  0.47079700  0.13225900  1
  H  1024  1  0.32530200  0.46592200  0.10419500  1
  H  1025  1  0.32890400  0.43219400  0.14825800  1
  H  1026  1  0.35129000  0.45318000  0.13883500  1
  H  1027  1  0.34417500  0.42804800  0.12021200  1
  H  1030  1  0.19241000  0.37204600  0.02983500  1
  H  1031  1  0.17714000  0.39950000  0.03598200  1
  H  1032  1  0.17485200  0.35380800  0.06762200  1
  H  1033  1  0.15205400  0.36375600  0.04733300  1
  H  1034  1  0.15899600  0.38125200  0.07331300  1
  H  1051  1  0.69167400  0.53171300  0.13161500  1
  H  1052  1  0.67695700  0.53730000  0.10374300  1
  H  1053  1  0.67393400  0.57006100  0.14858400  1
  H  1054  1  0.65126200  0.54957300  0.13875300  1
  H  1055  1  0.65859600  0.57506800  0.12071600  1
  H  1058  1  0.81119200  0.63105800  0.03139100  1
  H  1059  1  0.82620400  0.60349700  0.03768800  1
  H  1060  1  0.82852100  0.64915500  0.06936900  1
  H  1061  1  0.85143500  0.63905800  0.04928600  1
  H  1062  1  0.84412500  0.62159200  0.07518500  1
  H  1079  1  0.31090500  0.53351800  0.87012200  1
  H  1080  1  0.32465700  0.53730500  0.89878000  1
  H  1081  1  0.33022600  0.57239300  0.85602400  1
  H  1082  1  0.35192700  0.55066200  0.86536100  1
  H  1083  1  0.34469300  0.57525100  0.88465200  1
  H  1086  1  0.19194800  0.63076700  0.97334000  1
  H  1087  1  0.17688400  0.60320000  0.96718200  1
  H  1088  1  0.17414800  0.64893000  0.93563100  1
  H  1089  1  0.15148500  0.63877200  0.95596700  1
  H  1090  1  0.15849000  0.62137300  0.92993900  1
  H  1107  1  0.69184200  0.47169500  0.87161000  1
  H  1108  1  0.67694600  0.46602900  0.89937100  1
  H  1109  1  0.67426000  0.43338200  0.85442200  1
  H  1110  1  0.65149600  0.45381200  0.86416200  1
  H  1111  1  0.65874500  0.42827300  0.88217400  1
  H  1114  1  0.81096000  0.37201000  0.97200500  1
  H  1115  1  0.82608800  0.39951500  0.96573600  1
  H  1116  1  0.82821500  0.35387700  0.93401200  1
  H  1117  1  0.85117300  0.36385900  0.95410400  1
  H  1118  1  0.84393300  0.38137800  0.92822100  1
  H  1135  1  0.47160100  0.87194900  0.69144400  1
  H  1136  1  0.46557100  0.89961900  0.67652300  1
  H  1137  1  0.43336200  0.85433400  0.67416900  1
  H  1138  1  0.45351200  0.86424500  0.65123100  1
  H  1139  1  0.42783700  0.88199800  0.65864100  1
  H  1142  1  0.37182000  0.97137700  0.81134400  1
  H  1143  1  0.39953500  0.96545300  0.82622200  1
  H  1144  1  0.35439600  0.93304900  0.82864800  1
  H  1145  1  0.36424300  0.95325700  0.85156200  1
  H  1146  1  0.38210600  0.92766300  0.84414300  1
  H  1163  1  0.53231100  0.87086800  0.31096300  1
  H  1164  1  0.53704500  0.89909900  0.32529400  1
  H  1165  1  0.57087700  0.85517500  0.32952200  1
  H  1166  1  0.54975400  0.86476900  0.35170600  1
  H  1167  1  0.57486400  0.88339200  0.34451700  1
  H  1170  1  0.63091500  0.97270000  0.19213800  1
  H  1171  1  0.60341200  0.96637500  0.17703400  1
  H  1172  1  0.64927100  0.93499700  0.17451600  1
  H  1173  1  0.63907300  0.95520300  0.15175300  1
  H  1174  1  0.62176600  0.92913000  0.15882800  1
  H  1191  1  0.53193900  0.13140000  0.69164800  1
  H  1192  1  0.53781200  0.10362900  0.67685200  1
  H  1193  1  0.57029100  0.14870300  0.67426100  1
  H  1194  1  0.55004200  0.13882600  0.65139600  1
  H  1195  1  0.57560800  0.12093500  0.65884400  1
  H  1198  1  0.63121900  0.03157200  0.81162800  1
  H  1199  1  0.60353300  0.03758700  0.82652200  1
  H  1200  1  0.64881500  0.06979300  0.82896300  1
  H  1201  1  0.63887400  0.04961900  0.85186600  1
  H  1202  1  0.62113000  0.07530100  0.84446300  1
  H  1219  1  0.47243700  0.13184300  0.31046900  1
  H  1220  1  0.46680500  0.10423500  0.32566000  1
  H  1221  1  0.43426000  0.14927100  0.32810000  1
  H  1222  1  0.45479200  0.13970400  0.35084400  1
  H  1223  1  0.42917800  0.12167700  0.34390300  1
  H  1226  1  0.37182300  0.03061700  0.19284800  1
  H  1227  1  0.39918500  0.03678900  0.17742600  1
  H  1228  1  0.35351700  0.06848700  0.17551900  1
  H  1229  1  0.36329600  0.04825500  0.15259800  1
  H  1230  1  0.38087000  0.07419000  0.15951100  1
  H  1247  1  0.87029000  0.31076200  0.53334100  1
  H  1248  1  0.89883700  0.32468400  0.53734200  1
  H  1249  1  0.85582500  0.32985300  0.57218100  1
  H  1250  1  0.86517400  0.35169700  0.55059900  1
  H  1251  1  0.88434300  0.34448100  0.57528900  1
  H  1254  1  0.97338500  0.19189900  0.63080500  1
  H  1255  1  0.96722400  0.17680800  0.60325600  1
  H  1256  1  0.93566900  0.17413500  0.64898700  1
  H  1257  1  0.95599400  0.15145200  0.63885400  1
  H  1258  1  0.92997000  0.15845100  0.62144700  1
  H  1275  1  0.87172200  0.69211500  0.47260900  1
  H  1276  1  0.89927500  0.67693700  0.46667900  1
  H  1277  1  0.85393000  0.67466000  0.43454400  1
  H  1278  1  0.86370200  0.65181300  0.45486200  1
  H  1279  1  0.88147100  0.65888400  0.42910400  1
  H  1282  1  0.97170300  0.81053700  0.37169100  1
  H  1283  1  0.96567800  0.82572400  0.39921800  1
  H  1284  1  0.93358300  0.82784800  0.35384100  1
  H  1285  1  0.95382500  0.85076900  0.36360200  1
  H  1286  1  0.92807600  0.84363600  0.38136200  1
  H  1303  1  0.13200700  0.31016500  0.47213100  1
  H  1304  1  0.10445500  0.32545200  0.46648300  1
  H  1305  1  0.14949000  0.32768800  0.43392100  1
  H  1306  1  0.14001800  0.35048800  0.45443500  1
  H  1307  1  0.12195400  0.34358800  0.42883800  1
  H  1310  1  0.03022900  0.19289200  0.37160100  1
  H  1311  1  0.03621300  0.17740700  0.39897000  1
  H  1312  1  0.06814900  0.17549200  0.35346600  1
  H  1313  1  0.04780100  0.15260900  0.36309700  1
  H  1314  1  0.07366100  0.15941900  0.38082100  1
  H  1331  1  0.13161800  0.69157800  0.53174400  1
  H  1332  1  0.10375200  0.67686300  0.53736300  1
  H  1333  1  0.14862600  0.67386100  0.57008100  1
  H  1334  1  0.13877300  0.65117500  0.54962000  1
  H  1335  1  0.12076400  0.65852500  0.57513000  1
  H  1338  1  0.03150800  0.81118800  0.63109100  1
  H  1339  1  0.03779400  0.82616600  0.60350800  1
  H  1340  1  0.06950600  0.82852600  0.64914200  1
  H  1341  1  0.04942100  0.85143500  0.63903300  1
  H  1342  1  0.07530600  0.84409800  0.62155700  1
  H  1359  1  0.52109900  0.68532600  0.11403300  1
  H  1360  1  0.52791900  0.67047900  0.08650500  1
  H  1361  1  0.56202100  0.67404100  0.13033700  1
  H  1362  1  0.54488600  0.64823000  0.12195200  1
  H  1363  1  0.56853100  0.65853600  0.10287400  1
  H  1366  1  0.61365000  0.81741400  0.02107900  1
  H  1367  1  0.58611400  0.83223400  0.02793100  1
  H  1368  1  0.63001500  0.82878400  0.06195400  1
  H  1369  1  0.62156300  0.85455800  0.04479600  1
  H  1370  1  0.60254500  0.84425900  0.06849300  1
  H  1387  1  0.48223200  0.31769100  0.11351800  1
  H  1388  1  0.47524000  0.33248500  0.08600400  1
  H  1389  1  0.44138700  0.32895900  0.13003000  1
  H  1390  1  0.45844500  0.35477700  0.12150600  1
  H  1391  1  0.43470500  0.34440700  0.10257700  1
  H  1394  1  0.38955200  0.18531900  0.02112600  1
  H  1395  1  0.41712500  0.17057100  0.02798900  1
  H  1396  1  0.37321700  0.17394900  0.06201300  1
  H  1397  1  0.38173300  0.14817700  0.04488100  1
  H  1398  1  0.40072800  0.15854800  0.06856600  1
  H  1415  1  0.48192900  0.68568000  0.88884700  1
  H  1416  1  0.47510000  0.67078200  0.91634700  1
  H  1417  1  0.44104300  0.67435200  0.87248100  1
  H  1418  1  0.45821100  0.64855600  0.88084700  1
  H  1419  1  0.43452600  0.65879900  0.89991200  1
  H  1422  1  0.38936400  0.81748900  0.98214700  1
  H  1423  1  0.41686600  0.83233900  0.97522400  1
  H  1424  1  0.37283500  0.82894800  0.94136300  1
  H  1425  1  0.38134400  0.85468700  0.95854900  1
  H  1426  1  0.40027500  0.84445200  0.93475300  1
  H  1443  1  0.52108800  0.31750200  0.88954200  1
  H  1444  1  0.52805300  0.33232200  0.91704900  1
  H  1445  1  0.56191900  0.32882100  0.87303300  1
  H  1446  1  0.54482400  0.35461700  0.88154000  1
  H  1447  1  0.56857300  0.34429300  0.90047900  1
  H  1450  1  0.61384300  0.18533300  0.98213300  1
  H  1451  1  0.58630400  0.17054400  0.97523100  1
  H  1452  1  0.63027400  0.17393600  0.94129200  1
  H  1453  1  0.62175500  0.14817300  0.95843500  1
  H  1454  1  0.60279600  0.15849500  0.93470000  1
  H  1471  1  0.11420800  0.52112100  0.68528500  1
  H  1472  1  0.08668400  0.52793100  0.67042300  1
  H  1473  1  0.13048700  0.56206300  0.67404100  1
  H  1474  1  0.12213200  0.54494200  0.64821200  1
  H  1475  1  0.10303000  0.56856400  0.65852400  1
  H  1478  1  0.02100700  0.61341200  0.81737600  1
  H  1479  1  0.02792700  0.58588700  0.83218300  1
  H  1480  1  0.06183200  0.62988300  0.82878200  1
  H  1481  1  0.04468300  0.62136700  0.85454000  1
  H  1482  1  0.06843700  0.60242000  0.84424200  1
  H  1499  1  0.11335600  0.48217500  0.31750400  1
  H  1500  1  0.08583500  0.47516600  0.33227700  1
  H  1501  1  0.12988800  0.44134200  0.32879200  1
  H  1502  1  0.12133200  0.45840000  0.35459900  1
  H  1503  1  0.10242800  0.43464500  0.34422000  1
  H  1506  1  0.02132800  0.38918300  0.18508200  1
  H  1507  1  0.02810300  0.41676600  0.17031600  1
  H  1508  1  0.06229600  0.37300000  0.17379600  1
  H  1509  1  0.04517100  0.38141800  0.14798900  1
  H  1510  1  0.06876400  0.40051800  0.15837500  1
  H  1527  1  0.88887200  0.48190200  0.68534600  1
  H  1528  1  0.91639000  0.47509100  0.67047600  1
  H  1529  1  0.87256200  0.44098500  0.67405500  1
  H  1530  1  0.88092800  0.45813000  0.64824400  1
  H  1531  1  0.90001500  0.43448300  0.65852900  1
  H  1534  1  0.98214200  0.38954500  0.81732700  1
  H  1535  1  0.97520600  0.41706100  0.83214500  1
  H  1536  1  0.94134800  0.37302700  0.82877100  1
  H  1537  1  0.95851200  0.38155900  0.85451300  1
  H  1538  1  0.93472600  0.40048200  0.84424100  1
  H  1555  1  0.88969200  0.52108100  0.31719800  1
  H  1556  1  0.91718500  0.52807100  0.33203400  1
  H  1557  1  0.87313600  0.56189600  0.32851900  1
  H  1558  1  0.88164500  0.54480000  0.35431700  1
  H  1559  1  0.90056700  0.56857100  0.34401000  1
  H  1562  1  0.98216200  0.61408000  0.18510700  1
  H  1563  1  0.97531100  0.58654400  0.17028800  1
  H  1564  1  0.94128800  0.63044500  0.17374200  1
  H  1565  1  0.95844000  0.62198800  0.14796500  1
  H  1566  1  0.93474400  0.60297200  0.15827100  1
  H  1583  1  0.68512200  0.11427800  0.52110800  1
  H  1584  1  0.67026600  0.08675500  0.52793300  1
  H  1585  1  0.67389600  0.13057000  0.56204800  1
  H  1586  1  0.64805800  0.12220600  0.54494200  1
  H  1587  1  0.65838400  0.10311400  0.56856700  1
  H  1590  1  0.81726200  0.02112300  0.61337400  1
  H  1591  1  0.83205700  0.02802200  0.58583700  1
  H  1592  1  0.82867500  0.06196000  0.62980900  1
  H  1593  1  0.85443000  0.04480400  0.62129500  1
  H  1594  1  0.84412300  0.06854400  0.60233300  1
  H  1611  1  0.31776700  0.11319400  0.48216800  1
  H  1612  1  0.33250700  0.08565500  0.47516000  1
  H  1613  1  0.32904000  0.12969500  0.44131900  1
  H  1614  1  0.35485300  0.12112100  0.45835800  1
  H  1615  1  0.34443600  0.10221600  0.43462200  1
  H  1618  1  0.18517400  0.02138800  0.38918300  1
  H  1619  1  0.17043400  0.02812500  0.41679000  1
  H  1620  1  0.17393600  0.06240400  0.37309200  1
  H  1621  1  0.14811000  0.04529600  0.38148900  1
  H  1622  1  0.15853800  0.06883400  0.40063200  1
  H  1639  1  0.68534600  0.88888300  0.48193300  1
  H  1640  1  0.67047600  0.91640100  0.47512400  1
  H  1641  1  0.67409100  0.87259300  0.44099800  1
  H  1642  1  0.64826600  0.88094400  0.45812800  1
  H  1643  1  0.65856500  0.90004600  0.43449700  1
  H  1646  1  0.81737600  0.98221600  0.38970800  1
  H  1647  1  0.83218500  0.97525300  0.41722200  1
  H  1648  1  0.82882000  0.94143300  0.37315700  1
  H  1649  1  0.85456300  0.95858700  0.38171500  1
  H  1650  1  0.84428000  0.93478500  0.40061200  1
  H  1667  1  0.31711100  0.88953800  0.52111000  1
  H  1668  1  0.33198600  0.91701300  0.52809800  1
  H  1669  1  0.32841700  0.87297200  0.56192900  1
  H  1670  1  0.35422300  0.88144400  0.54482600  1
  H  1671  1  0.34394300  0.90038300  0.56859600  1
  H  1674  1  0.18516700  0.98223900  0.61407900  1
  H  1675  1  0.17032200  0.97536700  0.58656100  1
  H  1676  1  0.17376200  0.94140400  0.63051200  1
  H  1677  1  0.14800000  0.95857200  0.62204300  1
  H  1678  1  0.15826800  0.93483600  0.60305700  1
  H  1695  1  0.68548800  0.52113700  0.88936300  1
  H  1696  1  0.67066600  0.52803300  0.91688600  1
  H  1697  1  0.67421400  0.56203000  0.87297200  1
  H  1698  1  0.64839800  0.54493100  0.88141900  1
  H  1699  1  0.65873900  0.56861400  0.90043200  1
  H  1702  1  0.81770800  0.61363100  0.98216500  1
  H  1703  1  0.83250400  0.58609900  0.97525700  1
  H  1704  1  0.82906200  0.63006400  0.94131400  1
  H  1705  1  0.85484200  0.62156100  0.95843800  1
  H  1706  1  0.84451400  0.60259400  0.93471300  1
  H  1723  1  0.31720900  0.48206000  0.88969400  1
  H  1724  1  0.33203400  0.47505500  0.91718800  1
  H  1725  1  0.32858600  0.44127000  0.87310400  1
  H  1726  1  0.35435700  0.45838700  0.88164500  1
  H  1727  1  0.34406600  0.43458800  0.90053800  1
  H  1730  1  0.18518100  0.38859300  0.98180300  1
  H  1731  1  0.17032800  0.41614500  0.97509600  1
  H  1732  1  0.17386700  0.37243300  0.94083800  1
  H  1733  1  0.14806700  0.38075900  0.95801800  1
  H  1734  1  0.15836000  0.39991900  0.93443200  1
  H  1751  1  0.68541300  0.48210300  0.11385600  1
  H  1752  1  0.67057700  0.47518600  0.08634600  1
  H  1753  1  0.67414600  0.44122400  0.13028500  1
  H  1754  1  0.64832800  0.45831800  0.12183900  1
  H  1755  1  0.65865400  0.43461800  0.10283900  1
  H  1758  1  0.81757900  0.38951400  0.02106600  1
  H  1759  1  0.83238300  0.41705400  0.02793600  1
  H  1760  1  0.82894600  0.37313200  0.06193400  1
  H  1761  1  0.85472100  0.38161000  0.04478800  1
  H  1762  1  0.84440500  0.40060800  0.06849300  1
  H  1779  1  0.31715700  0.52113100  0.11315800  1
  H  1780  1  0.33196700  0.52811200  0.08564900  1
  H  1781  1  0.32846100  0.56197000  0.12967500  1
  H  1782  1  0.35426400  0.54488400  0.12116200  1
  H  1783  1  0.34392900  0.56863200  0.10222800  1
  H  1786  1  0.18492400  0.61444100  0.02115600  1
  H  1787  1  0.17009800  0.58687200  0.02786000  1
  H  1788  1  0.17368100  0.63054600  0.06216200  1
  H  1789  1  0.14785200  0.62222700  0.04502100  1
  H  1790  1  0.15819900  0.60304600  0.06856500  1
  H  1807  1  0.52134300  0.11374200  0.31735200  1
  H  1808  1  0.52816700  0.08620700  0.33218500  1
  H  1809  1  0.56226200  0.13004500  0.32865400  1
  H  1810  1  0.54512100  0.12164500  0.35445800  1
  H  1811  1  0.56877200  0.10257500  0.34414600  1
  H  1814  1  0.61405000  0.02097100  0.18523900  1
  H  1815  1  0.58651400  0.02779700  0.17041000  1
  H  1816  1  0.63037000  0.06187300  0.17391100  1
  H  1817  1  0.62195200  0.04472600  0.14811800  1
  H  1818  1  0.60289800  0.06839100  0.15842700  1
  H  1835  1  0.48217200  0.11370500  0.68543000  1
  H  1836  1  0.47519100  0.08620800  0.67060100  1
  H  1837  1  0.44134600  0.13024000  0.67412700  1
  H  1838  1  0.45843200  0.12173500  0.64832200  1
  H  1839  1  0.43467400  0.10280400  0.65864300  1
  H  1842  1  0.38944900  0.02107000  0.81758800  1
  H  1843  1  0.41699100  0.02797200  0.83237000  1
  H  1844  1  0.37301300  0.06190300  0.82900600  1
  H  1845  1  0.38154500  0.04475200  0.85475900  1
  H  1846  1  0.40049400  0.06849500  0.84444000  1
  H  1863  1  0.48213400  0.88918200  0.31744800  1
  H  1864  1  0.47523800  0.91668000  0.33231700  1
  H  1865  1  0.44128400  0.87273100  0.32880300  1
  H  1866  1  0.45843600  0.88116700  0.35458600  1
  H  1867  1  0.43470700  0.90016500  0.34432500  1
  H  1870  1  0.38919000  0.98200000  0.18555600  1
  H  1871  1  0.41669900  0.97515700  0.17068500  1
  H  1872  1  0.37280400  0.94113300  0.17419800  1
  H  1873  1  0.38121400  0.95830100  0.14841600  1
  H  1874  1  0.40025000  0.93459900  0.15867300  1
  H  1891  1  0.52106800  0.88966100  0.68531200  1
  H  1892  1  0.52801600  0.91719800  0.67053600  1
  H  1893  1  0.56194500  0.87322900  0.67404100  1
  H  1894  1  0.54487600  0.88173900  0.64822600  1
  H  1895  1  0.56858200  0.90070100  0.65861100  1
  H  1898  1  0.61360800  0.98212400  0.81773800  1
  H  1899  1  0.58605000  0.97521100  0.83248800  1
  H  1900  1  0.63000500  0.94125400  0.82908000  1
  H  1901  1  0.62147000  0.95835900  0.85486400  1
  H  1902  1  0.60250800  0.93465100  0.84448300  1
  H  1919  1  0.11405200  0.68525800  0.48217500  1
  H  1920  1  0.08655700  0.67038900  0.47526700  1
  H  1921  1  0.13049300  0.67398400  0.44130400  1
  H  1922  1  0.12207200  0.64816500  0.45841000  1
  H  1923  1  0.10306200  0.65846200  0.43470500  1
  H  1926  1  0.02108000  0.81728400  0.38957900  1
  H  1927  1  0.02797000  0.83211100  0.41710100  1
  H  1928  1  0.06191900  0.82867700  0.37314100  1
  H  1929  1  0.04476200  0.85444200  0.38162300  1
  H  1930  1  0.06849800  0.84415700  0.40059900  1
  H  1947  1  0.11341000  0.31707900  0.52125500  1
  H  1948  1  0.08587700  0.33188200  0.52815600  1
  H  1949  1  0.12982200  0.32841700  0.56212000  1
  H  1950  1  0.12134000  0.35420400  0.54499600  1
  H  1951  1  0.10235300  0.34387800  0.56870700  1
  H  1954  1  0.02119000  0.18487900  0.61438800  1
  H  1955  1  0.02793000  0.17006400  0.58682100  1
  H  1956  1  0.06216000  0.17359100  0.63055700  1
  H  1957  1  0.04501000  0.14778200  0.62219500  1
  H  1958  1  0.06859600  0.15812000  0.60305900  1
  H  1975  1  0.88919800  0.68541700  0.52134100  1
  H  1976  1  0.91673900  0.67059700  0.52816100  1
  H  1977  1  0.87292400  0.67415600  0.56228200  1
  H  1978  1  0.88131700  0.64833700  0.54516400  1
  H  1979  1  0.90040100  0.65867800  0.56879200  1
  H  1982  1  0.98223200  0.81764100  0.61360400  1
  H  1983  1  0.97529800  0.83242600  0.58607200  1
  H  1984  1  0.94140600  0.82902800  0.63007700  1
  H  1985  1  0.95853600  0.85479300  0.62153900  1
  H  1986  1  0.93478200  0.84446700  0.60260600  1
  H  2003  1  0.88947300  0.31723800  0.48216300  1
  H  2004  1  0.91695300  0.33210100  0.47518200  1
  H  2005  1  0.87286800  0.32866900  0.44139500  1
  H  2006  1  0.88138800  0.35442000  0.45855500  1
  H  2007  1  0.90028700  0.34418600  0.43473600  1
  H  2010  1  0.98186500  0.18544400  0.38866700  1
  H  2011  1  0.97510100  0.17055700  0.41618900  1
  H  2012  1  0.94096200  0.17407800  0.37238300  1
  H  2013  1  0.95815900  0.14829800  0.38073600  1
  H  2014  1  0.93450300  0.15853800  0.39983700  1
  C  1  1  0.32819500  0.34636500  0.00269600  1
  C  2  1  0.31402700  0.34766900  0.02411800  1
  C  3  1  0.29653300  0.36596100  0.02769500  1
  C  4  1  0.29184400  0.38227300  0.00865800  1
  C  5  1  0.30483200  0.38118100  0.98663900  1
  C  6  1  0.32335200  0.36347700  0.98398800  1
  C  9  1  0.34662800  0.32800300  0.00026900  1
  C  10  1  0.36384300  0.32332600  0.01892300  1
  C  11  1  0.38159200  0.30484800  0.01629900  1
  C  12  1  0.38261900  0.29172800  0.99435500  1
  C  13  1  0.36621100  0.29625900  0.97535800  1
  C  14  1  0.34788400  0.31372200  0.97891900  1
  C  21  1  0.36763400  0.28333900  0.95390000  1
  C  22  1  0.29931200  0.39744600  0.96824000  1
  C  23  1  0.28376200  0.36747100  0.04921900  1
  C  24  1  0.39792500  0.29945800  0.03467100  1
  C  29  1  0.67494800  0.65650700  0.00282300  1
  C  30  1  0.68920400  0.65524500  0.02419000  1
  C  31  1  0.70666700  0.63692000  0.02775700  1
  C  32  1  0.71123300  0.62052700  0.00876000  1
  C  33  1  0.69816600  0.62158600  0.98678700  1
  C  34  1  0.67967400  0.63931900  0.98415300  1
  C  37  1  0.65648300  0.67484600  0.00043200  1
  C  38  1  0.63933700  0.67954000  0.01914700  1
  C  39  1  0.62144500  0.69787400  0.01648000  1
  C  40  1  0.62017100  0.71078400  0.99442700  1
  C  41  1  0.63655500  0.70628400  0.97541200  1
  C  42  1  0.65504400  0.68900000  0.97900600  1
  C  49  1  0.63472400  0.71890600  0.95382900  1
  C  50  1  0.70359000  0.60526700  0.96841200  1
  C  51  1  0.71946000  0.63535600  0.04927700  1
  C  52  1  0.60517500  0.70330400  0.03489700  1
  C  57  1  0.67490400  0.34659000  0.00046600  1
  C  58  1  0.68909000  0.34795000  0.97905900  1
  C  59  1  0.70648600  0.36633600  0.97548500  1
  C  60  1  0.71103900  0.38270900  0.99450100  1
  C  61  1  0.69804300  0.38155600  0.01651300  1
  C  62  1  0.67962900  0.36374300  0.01916500  1
  C  65  1  0.65654900  0.32814800  0.00288100  1
  C  66  1  0.63936300  0.32341000  0.98421600  1
  C  67  1  0.62167500  0.30487300  0.98683400  1
  C  68  1  0.62068100  0.29174800  0.00877800  1
  C  69  1  0.63706300  0.29633900  0.02778200  1
  C  70  1  0.65533000  0.31386700  0.02423400  1
  C  77  1  0.63566400  0.28341800  0.04924300  1
  C  78  1  0.70347000  0.39785300  0.03490800  1
  C  79  1  0.71924600  0.36795400  0.95394800  1
  C  80  1  0.60535800  0.29944200  0.96845700  1
  C  85  1  0.32802800  0.65669300  0.00012200  1
  C  86  1  0.31371100  0.65560900  0.97879100  1
  C  87  1  0.29608700  0.63744300  0.97522000  1
  C  88  1  0.29141800  0.62104500  0.99419000  1
  C  89  1  0.30457600  0.62190500  0.01611700  1
  C  90  1  0.32322300  0.63947800  0.01874700  1
  C  93  1  0.34657700  0.67494000  0.00254500  1
  C  94  1  0.36369100  0.67965800  0.98380500  1
  C  95  1  0.38161900  0.69795200  0.98648500  1
  C  96  1  0.38296400  0.71079900  0.00857300  1
  C  97  1  0.36660900  0.70627100  0.02760800  1
  C  98  1  0.34808400  0.68902900  0.02400700  1
  C  105  1  0.36848500  0.71883900  0.04921600  1
  C  106  1  0.29909600  0.60555000  0.03444500  1
  C  107  1  0.28317900  0.63614400  0.95375500  1
  C  108  1  0.39784400  0.70342300  0.96804000  1
  C  113  1  0.00267700  0.32819500  0.34643800  1
  C  114  1  0.02414500  0.31411500  0.34793700  1
  C  115  1  0.02772100  0.29681000  0.36640800  1
  C  116  1  0.00865700  0.29221000  0.38270900  1
  C  117  1  0.98656400  0.30504900  0.38137100  1
  C  118  1  0.98390900  0.32340600  0.36349900  1
  C  121  1  0.00028200  0.34651200  0.32795000  1
  C  122  1  0.01891300  0.36374500  0.32324000  1
  C  123  1  0.01630800  0.38138900  0.30465600  1
  C  124  1  0.99439800  0.38230200  0.29147300  1
  C  125  1  0.97542500  0.36588000  0.29604200  1
  C  126  1  0.97897200  0.34764700  0.31360300  1
  C  133  1  0.95398100  0.36722100  0.28309400  1
  C  134  1  0.96810400  0.29953300  0.39756100  1
  C  135  1  0.04933100  0.28424400  0.36827500  1
  C  136  1  0.03465000  0.39775500  0.29925000  1
  C  141  1  0.00284700  0.67488200  0.65653400  1
  C  142  1  0.02421200  0.68914500  0.65527000  1
  C  143  1  0.02777400  0.70661100  0.63694600  1
  C  144  1  0.00877500  0.71117500  0.62055600  1
  C  145  1  0.98680300  0.69810200  0.62161700  1
  C  146  1  0.98417600  0.67960900  0.63935000  1
  C  149  1  0.00046100  0.65640700  0.67486800  1
  C  150  1  0.01918200  0.63926300  0.67954600  1
  C  151  1  0.01652300  0.62135300  0.69786300  1
  C  152  1  0.99447000  0.62006000  0.71077500  1
  C  153  1  0.97545000  0.63644100  0.70629300  1
  C  154  1  0.97903500  0.65494600  0.68902100  1
  C  161  1  0.95387100  0.63458500  0.71892000  1
  C  162  1  0.96842400  0.70352600  0.60530200  1
  C  163  1  0.04929000  0.71941600  0.63538100  1
  C  164  1  0.03494700  0.60508800  0.70328000  1
  C  169  1  0.00054100  0.67483700  0.34659900  1
  C  170  1  0.97909700  0.68895600  0.34811600  1
  C  171  1  0.97550500  0.70618000  0.36666200  1
  C  172  1  0.99453600  0.71065400  0.38303300  1
  C  173  1  0.01660800  0.69778000  0.38168600  1
  C  174  1  0.01927500  0.67951000  0.36373100  1
  C  177  1  0.00293800  0.65656800  0.32806100  1
  C  178  1  0.98428100  0.63938200  0.32328100  1
  C  179  1  0.98689000  0.62175800  0.30467900  1
  C  180  1  0.00882900  0.62081300  0.29154300  1
  C  181  1  0.02783100  0.63718100  0.29618000  1
  C  182  1  0.02428200  0.65539900  0.31376000  1
  C  189  1  0.04929800  0.63580300  0.28326400  1
  C  190  1  0.03504400  0.70319900  0.39794000  1
  C  191  1  0.95391000  0.71878200  0.36855900  1
  C  192  1  0.96852600  0.60543800  0.29921800  1
  C  197  1  0.00018900  0.32800800  0.65662300  1
  C  198  1  0.97885400  0.31369700  0.65553500  1
  C  199  1  0.97529300  0.29606000  0.63737800  1
  C  200  1  0.99426900  0.29138000  0.62099100  1
  C  201  1  0.01619800  0.30453800  0.62185600  1
  C  202  1  0.01882300  0.32319300  0.63942200  1
  C  205  1  0.00260700  0.34657000  0.67485700  1
  C  206  1  0.98387600  0.36370200  0.67953700  1
  C  207  1  0.98655400  0.38165200  0.69781100  1
  C  208  1  0.00863100  0.38299300  0.71067700  1
  C  209  1  0.02765600  0.36661500  0.70618900  1
  C  210  1  0.02405600  0.34807400  0.68896400  1
  C  217  1  0.04925300  0.36848700  0.71877900  1
  C  218  1  0.03453600  0.29904900  0.60551500  1
  C  219  1  0.95382900  0.28315000  0.63607700  1
  C  220  1  0.96811700  0.39789600  0.70324400  1
  C  225  1  0.34660800  0.00262500  0.32821100  1
  C  226  1  0.34812500  0.02409900  0.31414400  1
  C  227  1  0.36662700  0.02769100  0.29687700  1
  C  228  1  0.38295000  0.00863800  0.29230700  1
  C  229  1  0.38159900  0.98654100  0.30513600  1
  C  230  1  0.36368900  0.98386700  0.32345100  1
  C  233  1  0.32809700  0.00021700  0.34649800  1
  C  234  1  0.32337700  0.01882800  0.36374900  1
  C  235  1  0.30477900  0.01620700  0.38137500  1
  C  236  1  0.29158500  0.99430200  0.38224700  1
  C  237  1  0.29616300  0.97534700  0.36580700  1
  C  238  1  0.31374200  0.97890800  0.34759500  1
  C  245  1  0.28320600  0.95390700  0.36711100  1
  C  246  1  0.39781100  0.96809100  0.29964800  1
  C  247  1  0.36851700  0.04931000  0.28432900  1
  C  248  1  0.29938000  0.03452600  0.39776600  1
  C  253  1  0.65649400  0.00301300  0.67498000  1
  C  254  1  0.65532300  0.02433300  0.68931300  1
  C  255  1  0.63706700  0.02787600  0.70685700  1
  C  256  1  0.62065000  0.00889300  0.71140700  1
  C  257  1  0.62159000  0.98698400  0.69822000  1
  C  258  1  0.63926500  0.98437700  0.67967100  1
  C  261  1  0.67479500  0.00061700  0.65647800  1
  C  262  1  0.67947700  0.01934900  0.63935000  1
  C  263  1  0.69775500  0.01667200  0.62140200  1
  C  264  1  0.71063200  0.99460100  0.62006900  1
  C  265  1  0.70615300  0.97557500  0.63644800  1
  C  266  1  0.68891300  0.97917100  0.65497900  1
  C  273  1  0.71876300  0.95398500  0.63457000  1
  C  274  1  0.60522900  0.96863400  0.70359900  1
  C  275  1  0.63569500  0.04931500  0.71982200  1
  C  276  1  0.70316600  0.03509900  0.60513900  1
  C  281  1  0.34654800  0.00041000  0.67493800  1
  C  282  1  0.34786800  0.97902800  0.68916600  1
  C  283  1  0.36623600  0.97545900  0.70658600  1
  C  284  1  0.38262400  0.99446900  0.71112600  1
  C  285  1  0.38152300  0.01644900  0.69807200  1
  C  286  1  0.36373300  0.01908800  0.67963500  1
  C  289  1  0.32809500  0.00283400  0.65659000  1
  C  290  1  0.32329000  0.98414600  0.63944600  1
  C  291  1  0.30473700  0.98677300  0.62177300  1
  C  292  1  0.29167200  0.00875000  0.62074800  1
  C  293  1  0.29632800  0.02777600  0.63708300  1
  C  294  1  0.31386700  0.02422000  0.65533900  1
  C  301  1  0.28345800  0.04926700  0.63565500  1
  C  302  1  0.39782900  0.03484100  0.70348600  1
  C  303  1  0.36775700  0.95397700  0.71943100  1
  C  304  1  0.29924800  0.96838300  0.60549000  1
  C  309  1  0.65659900  0.00025500  0.32815800  1
  C  310  1  0.65539000  0.97888800  0.31389800  1
  C  311  1  0.63711800  0.97531500  0.29638400  1
  C  312  1  0.62072800  0.99430400  0.29176800  1
  C  313  1  0.62173700  0.01627500  0.30484100  1
  C  314  1  0.63941500  0.01891400  0.32338400  1
  C  317  1  0.67489700  0.00265700  0.34666200  1
  C  318  1  0.67957100  0.98394300  0.36381400  1
  C  319  1  0.69787600  0.98661300  0.38173300  1
  C  320  1  0.71078100  0.00867000  0.38302800  1
  C  321  1  0.70630000  0.02768300  0.36663500  1
  C  322  1  0.68904000  0.02408700  0.34812300  1
  C  329  1  0.71891300  0.04926900  0.36848300  1
  C  330  1  0.60542100  0.03463800  0.29937100  1
  C  331  1  0.63559900  0.95379500  0.28359400  1
  C  332  1  0.70329500  0.96819300  0.39800000  1
  C  337  1  0.82821100  0.84657800  0.50285000  1
  C  338  1  0.81401400  0.84786700  0.52425400  1
  C  339  1  0.79655000  0.86618600  0.52784100  1
  C  340  1  0.79192000  0.88254300  0.50882600  1
  C  341  1  0.80494400  0.88146800  0.48682500  1
  C  342  1  0.82343400  0.86373500  0.48416900  1
  C  345  1  0.84661900  0.82819000  0.50041000  1
  C  346  1  0.86381500  0.82346500  0.51906900  1
  C  347  1  0.88156500  0.80499300  0.51641200  1
  C  348  1  0.88262500  0.79194000  0.49442800  1
  C  349  1  0.86622600  0.79651500  0.47543500  1
  C  350  1  0.84788500  0.81395600  0.47902900  1
  C  357  1  0.86768700  0.78367200  0.45395000  1
  C  358  1  0.79946800  0.89775800  0.46843800  1
  C  359  1  0.78373900  0.86767100  0.54934500  1
  C  360  1  0.89788400  0.79956000  0.53478500  1
  C  365  1  0.17498800  0.15634500  0.50300000  1
  C  366  1  0.18934700  0.15520200  0.52430500  1
  C  367  1  0.20691500  0.13696800  0.52783700  1
  C  368  1  0.21145700  0.12054100  0.50886100  1
  C  369  1  0.19824300  0.12144900  0.48696600  1
  C  370  1  0.17967400  0.13910600  0.48437000  1
  C  373  1  0.15646800  0.17462800  0.50061400  1
  C  374  1  0.13934800  0.17930000  0.51935700  1
  C  375  1  0.12137100  0.19754800  0.51668000  1
  C  376  1  0.11999500  0.21039600  0.49459500  1
  C  377  1  0.13637400  0.20593500  0.47556600  1
  C  378  1  0.15494100  0.18873500  0.47916300  1
  C  385  1  0.13444600  0.21851900  0.45397500  1
  C  386  1  0.20360500  0.10507100  0.46862300  1
  C  387  1  0.21990300  0.13562200  0.54926100  1
  C  388  1  0.10512100  0.20295900  0.53512000  1
  C  393  1  0.17471400  0.84671900  0.50050000  1
  C  394  1  0.18880400  0.84824700  0.47903300  1
  C  395  1  0.20598100  0.86683100  0.47539700  1
  C  396  1  0.21043200  0.88323800  0.49440600  1
  C  397  1  0.19760200  0.88186800  0.51650200  1
  C  398  1  0.17937800  0.86387300  0.51921400  1
  C  401  1  0.15645700  0.82817300  0.50293300  1
  C  402  1  0.13922800  0.82340800  0.48431400  1
  C  403  1  0.12158800  0.80483000  0.48696600  1
  C  404  1  0.12066000  0.79170700  0.50891100  1
  C  405  1  0.13707500  0.79632500  0.52787900  1
  C  406  1  0.15531300  0.81387900  0.52428500  1
  C  413  1  0.13569100  0.78343300  0.54934300  1
  C  414  1  0.20302400  0.89812300  0.53493000  1
  C  415  1  0.21855400  0.86875700  0.45379600  1
  C  416  1  0.10524300  0.79936800  0.46862500  1
  C  421  1  0.82811900  0.15655700  0.50015300  1
  C  422  1  0.81377700  0.15549200  0.47883300  1
  C  423  1  0.79615900  0.13731900  0.47525600  1
  C  424  1  0.79152800  0.12088900  0.49420900  1
  C  425  1  0.80471800  0.12172700  0.51611800  1
  C  426  1  0.82335400  0.13930800  0.51875400  1
  C  429  1  0.84668300  0.17479100  0.50258400  1
  C  430  1  0.86380000  0.17948700  0.48384500  1
  C  431  1  0.88178800  0.19771800  0.48655100  1
  C  432  1  0.88318900  0.21051900  0.50866300  1
  C  433  1  0.86681400  0.20603100  0.52769000  1
  C  434  1  0.84823300  0.18885100  0.52406400  1
  C  441  1  0.86875500  0.21857400  0.54930500  1
  C  442  1  0.79926300  0.10535900  0.53443800  1
  C  443  1  0.78320500  0.13604300  0.45381000  1
  C  444  1  0.89800600  0.20317600  0.46810000  1
  C  449  1  0.50263300  0.82838300  0.84649800  1
  C  450  1  0.52409000  0.81427500  0.84793400  1
  C  451  1  0.52769600  0.79695500  0.86638500  1
  C  452  1  0.50866700  0.79237100  0.88273100  1
  C  453  1  0.48659300  0.80525200  0.88146900  1
  C  454  1  0.48390800  0.82361500  0.86361000  1
  C  457  1  0.50021100  0.84672800  0.82804500  1
  C  458  1  0.51883600  0.86397400  0.82336700  1
  C  459  1  0.51621100  0.88166700  0.80483600  1
  C  460  1  0.49429400  0.88260800  0.79166200  1
  C  461  1  0.47532500  0.86617200  0.79619800  1
  C  462  1  0.47888600  0.84789900  0.81371900  1
  C  469  1  0.45388300  0.86753700  0.78324300  1
  C  470  1  0.46816500  0.79975900  0.89770500  1
  C  471  1  0.54926800  0.78431900  0.86813200  1
  C  472  1  0.53455200  0.89803800  0.79945900  1
  C  477  1  0.50305100  0.17493200  0.15640800  1
  C  478  1  0.52438800  0.18923800  0.15522600  1
  C  479  1  0.52794600  0.20677000  0.13696300  1
  C  480  1  0.50896600  0.21133000  0.12054400  1
  C  481  1  0.48704400  0.19816700  0.12149100  1
  C  482  1  0.48441700  0.17963200  0.13917900  1
  C  485  1  0.50062500  0.15647000  0.17474100  1
  C  486  1  0.51932300  0.13931400  0.17945500  1
  C  487  1  0.51662700  0.12143300  0.19779400  1
  C  488  1  0.49457100  0.12020100  0.21070900  1
  C  489  1  0.47557100  0.13659900  0.20618500  1
  C  490  1  0.47919000  0.15506500  0.18888300  1
  C  497  1  0.45401800  0.13488500  0.21886000  1
  C  498  1  0.46869300  0.20355700  0.10513400  1
  C  499  1  0.54939300  0.21971600  0.13559300  1
  C  500  1  0.53502800  0.10514800  0.20323100  1
  C  505  1  0.50042800  0.17482100  0.84666800  1
  C  506  1  0.47903300  0.18903200  0.84798600  1
  C  507  1  0.47545000  0.20645300  0.86635100  1
  C  508  1  0.49445700  0.21101000  0.88273700  1
  C  509  1  0.51644800  0.19797000  0.88163800  1
  C  510  1  0.51910400  0.17953500  0.86384900  1
  C  513  1  0.50286500  0.15645300  0.82823900  1
  C  514  1  0.48420300  0.13926700  0.82349200  1
  C  515  1  0.48684300  0.12155600  0.80498100  1
  C  516  1  0.50880600  0.12054100  0.79188800  1
  C  517  1  0.52781000  0.13692200  0.79648400  1
  C  518  1  0.52424000  0.15520900  0.81399100  1
  C  525  1  0.54928300  0.13551300  0.78358000  1
  C  526  1  0.53483200  0.20339200  0.89794800  1
  C  527  1  0.45396100  0.21929100  0.86786600  1
  C  528  1  0.46846900  0.10524000  0.79954200  1
  C  533  1  0.50031400  0.82815900  0.15650400  1
  C  534  1  0.47893800  0.81391100  0.15529800  1
  C  535  1  0.47533600  0.79642800  0.13699900  1
  C  536  1  0.49430000  0.79183700  0.12057500  1
  C  537  1  0.51627600  0.80490500  0.12157800  1
  C  538  1  0.51895000  0.82341200  0.13928800  1
  C  541  1  0.50275800  0.84661900  0.17483900  1
  C  542  1  0.48407100  0.86378700  0.17955500  1
  C  543  1  0.48676700  0.88164700  0.19791400  1
  C  544  1  0.50881500  0.88285600  0.21084300  1
  C  545  1  0.52781000  0.86645600  0.20631000  1
  C  546  1  0.52418900  0.84800400  0.18898800  1
  C  553  1  0.54936100  0.86815600  0.21899200  1
  C  554  1  0.53462600  0.79945200  0.10524500  1
  C  555  1  0.45382300  0.78361400  0.13551800  1
  C  556  1  0.46836600  0.89792200  0.20336600  1
  C  561  1  0.84653800  0.50270200  0.82824400  1
  C  562  1  0.84780700  0.52410800  0.81404900  1
  C  563  1  0.86611000  0.52770100  0.79656800  1
  C  564  1  0.88247200  0.50869400  0.79192600  1
  C  565  1  0.88141300  0.48668900  0.80494600  1
  C  566  1  0.86369500  0.48402400  0.82344800  1
  C  569  1  0.82817300  0.50025900  0.84667400  1
  C  570  1  0.82347900  0.51891700  0.86387800  1
  C  571  1  0.80502600  0.51626700  0.88164900  1
  C  572  1  0.79195500  0.49429400  0.88271300  1
  C  573  1  0.79649700  0.47530100  0.86630600  1
  C  574  1  0.81392900  0.47888600  0.84795200  1
  C  581  1  0.78363200  0.45383000  0.86777800  1
  C  582  1  0.89770700  0.46831000  0.79945700  1
  C  583  1  0.86757800  0.54920700  0.78376100  1
  C  584  1  0.79961500  0.53464400  0.89796600  1
  C  589  1  0.15643400  0.50291000  0.17479400  1
  C  590  1  0.15520500  0.52425800  0.18908800  1
  C  591  1  0.13688900  0.52782400  0.20656700  1
  C  592  1  0.12046300  0.50884600  0.21109300  1
  C  593  1  0.12147800  0.48689900  0.19797900  1
  C  594  1  0.13921000  0.48426600  0.17948500  1
  C  597  1  0.17474500  0.50051300  0.15629500  1
  C  598  1  0.17939600  0.51923200  0.13914200  1
  C  599  1  0.19764600  0.51654900  0.12116800  1
  C  600  1  0.21051700  0.49447500  0.11982100  1
  C  601  1  0.20608000  0.47546300  0.13622500  1
  C  602  1  0.18887400  0.47907200  0.15479000  1
  C  609  1  0.21869100  0.45388300  0.13430900  1
  C  610  1  0.10512400  0.46854300  0.20335900  1
  C  611  1  0.13536700  0.54931000  0.21943200  1
  C  612  1  0.20303700  0.53497400  0.10489600  1
  C  617  1  0.84674300  0.50048200  0.17472600  1
  C  618  1  0.84820500  0.47903800  0.18885100  1
  C  619  1  0.86671700  0.47542800  0.20611100  1
  C  620  1  0.88312200  0.49443200  0.21059000  1
  C  621  1  0.88183700  0.51649100  0.19768900  1
  C  622  1  0.86390300  0.51918700  0.17940300  1
  C  625  1  0.82824200  0.50291300  0.15642800  1
  C  626  1  0.82351000  0.48428800  0.13919800  1
  C  627  1  0.80497000  0.48694000  0.12152000  1
  C  628  1  0.79184600  0.50888800  0.12056700  1
  C  629  1  0.79642800  0.52785300  0.13699300  1
  C  630  1  0.81395100  0.52426300  0.15526000  1
  C  637  1  0.78353100  0.54931200  0.13559800  1
  C  638  1  0.89811600  0.53490300  0.20310000  1
  C  639  1  0.86854700  0.45384800  0.21874600  1
  C  640  1  0.79953900  0.46859800  0.10517000  1
  C  645  1  0.15651500  0.50019200  0.82819900  1
  C  646  1  0.15535900  0.47884400  0.81390600  1
  C  647  1  0.13711100  0.47526500  0.79636500  1
  C  648  1  0.12069300  0.49423100  0.79175900  1
  C  649  1  0.12164600  0.51618200  0.80487200  1
  C  650  1  0.13929800  0.51882500  0.82343900  1
  C  653  1  0.17478300  0.50260800  0.84673200  1
  C  654  1  0.17944800  0.48388600  0.86387800  1
  C  655  1  0.19769300  0.48658400  0.88185300  1
  C  656  1  0.21054500  0.50866900  0.88320900  1
  C  657  1  0.20609100  0.52767800  0.86680400  1
  C  658  1  0.18889200  0.52405900  0.84823600  1
  C  665  1  0.21867000  0.54927400  0.86871000  1
  C  666  1  0.10530600  0.53452800  0.79941700  1
  C  667  1  0.13565600  0.45376700  0.78352400  1
  C  668  1  0.20311300  0.46815000  0.89810500  1
  C  673  1  0.42899900  0.23492700  0.90018200  1
  C  674  1  0.41240800  0.22641600  0.91768300  1
  C  675  1  0.39847900  0.24231900  0.93163200  1
  C  676  1  0.39998200  0.26776400  0.92900100  1
  C  677  1  0.41742900  0.27627600  0.91235500  1
  C  678  1  0.43142500  0.26038100  0.89846200  1
  C  681  1  0.39233700  0.20574300  0.94271900  1
  C  683  1  0.44234100  0.29698900  0.89218300  1
  C  685  1  0.45699300  0.31762700  0.88370700  1
  C  686  1  0.44162600  0.33666900  0.87022000  1
  C  692  1  0.38390600  0.18515900  0.95747000  1
  C  693  1  0.37009400  0.16622800  0.94225900  1
  C  701  1  0.57415000  0.76828600  0.90023600  1
  C  702  1  0.59087800  0.77649900  0.91775000  1
  C  703  1  0.60462500  0.76034400  0.93158500  1
  C  704  1  0.60272400  0.73493700  0.92887600  1
  C  705  1  0.58519700  0.72673000  0.91216300  1
  C  706  1  0.57137200  0.74288100  0.89840600  1
  C  709  1  0.61115800  0.79675800  0.94296100  1
  C  711  1  0.56001000  0.70645900  0.89187600  1
  C  713  1  0.54511900  0.68606300  0.88323300  1
  C  714  1  0.56026100  0.66697800  0.86955500  1
  C  720  1  0.61968400  0.81713000  0.95795100  1
  C  721  1  0.63377600  0.83605900  0.94299900  1
  C  729  1  0.57436000  0.23520400  0.10322300  1
  C  730  1  0.59093800  0.22662600  0.08574200  1
  C  731  1  0.60485300  0.24246900  0.07171300  1
  C  732  1  0.60334500  0.26792500  0.07423600  1
  C  733  1  0.58590200  0.27650400  0.09085200  1
  C  734  1  0.57192000  0.26066300  0.10482300  1
  C  737  1  0.61097200  0.20584300  0.06076900  1
  C  739  1  0.56098000  0.29729700  0.11093300  1
  C  741  1  0.54630100  0.31795700  0.11930600  1
  C  742  1  0.56162100  0.33702000  0.13281500  1
  C  748  1  0.61933400  0.18519900  0.04606200  1
  C  749  1  0.63295200  0.16617600  0.06133600  1
  C  757  1  0.42894800  0.76782800  0.10328500  1
  C  758  1  0.41222900  0.77617200  0.08582500  1
  C  759  1  0.39851900  0.76012600  0.07182700  1
  C  760  1  0.40045600  0.73469900  0.07430500  1
  C  761  1  0.41798400  0.72636400  0.09095300  1
  C  762  1  0.43177400  0.74241000  0.10487200  1
  C  765  1  0.39195500  0.79664000  0.06077800  1
  C  767  1  0.44316900  0.70594000  0.11108600  1
  C  769  1  0.45806800  0.68548900  0.11958100  1
  C  770  1  0.44297000  0.66642200  0.13333000  1
  C  776  1  0.38347300  0.81713500  0.04593400  1
  C  777  1  0.36964700  0.83612500  0.06106300  1
  C  785  1  0.90054900  0.42866800  0.23451200  1
  C  786  1  0.91814600  0.41213900  0.22607800  1
  C  787  1  0.93197800  0.39816800  0.24204400  1
  C  788  1  0.92912800  0.39956200  0.26746700  1
  C  789  1  0.91238000  0.41694400  0.27590900  1
  C  790  1  0.89858500  0.43097200  0.25995900  1
  C  793  1  0.94343900  0.39223200  0.20555200  1
  C  795  1  0.89205800  0.44178400  0.29655800  1
  C  797  1  0.88356800  0.45645900  0.31717700  1
  C  798  1  0.87081700  0.44101300  0.33665800  1
  C  804  1  0.95842000  0.38392700  0.18508200  1
  C  805  1  0.94346400  0.37000400  0.16603100  1
  C  813  1  0.89988700  0.57401800  0.76794000  1
  C  814  1  0.91733500  0.59075200  0.77628000  1
  C  815  1  0.93129700  0.60450200  0.76023500  1
  C  816  1  0.92879800  0.60258600  0.73480600  1
  C  817  1  0.91216500  0.58504200  0.72647500  1
  C  818  1  0.89828100  0.57121800  0.74252000  1
  C  821  1  0.94235600  0.61105700  0.79674700  1
  C  823  1  0.89203500  0.55984800  0.70605000  1
  C  825  1  0.88352200  0.54496500  0.68559600  1
  C  826  1  0.86972400  0.56007500  0.66657300  1
  C  832  1  0.95718500  0.61956200  0.81724400  1
  C  833  1  0.94203800  0.63338300  0.83622100  1
  C  841  1  0.10315200  0.57441500  0.23499600  1
  C  842  1  0.08564500  0.59098000  0.22644200  1
  C  843  1  0.07166700  0.60492300  0.24230600  1
  C  844  1  0.07426900  0.60346800  0.26775500  1
  C  845  1  0.09092000  0.58604700  0.27631100  1
  C  846  1  0.10484600  0.57203600  0.26045500  1
  C  849  1  0.06058600  0.61096300  0.20571100  1
  C  851  1  0.11105500  0.56115900  0.29709000  1
  C  853  1  0.11944700  0.54650000  0.31775800  1
  C  854  1  0.13274200  0.56187400  0.33692800  1
  C  860  1  0.04580400  0.61929100  0.18510500  1
  C  861  1  0.06098300  0.63301200  0.16608300  1
  C  869  1  0.10341000  0.42889200  0.76775000  1
  C  870  1  0.08594700  0.41218000  0.77610300  1
  C  871  1  0.07192500  0.39848300  0.76006700  1
  C  872  1  0.07437900  0.40043100  0.73463600  1
  C  873  1  0.09102700  0.41795700  0.72629400  1
  C  874  1  0.10497000  0.43173100  0.74233200  1
  C  877  1  0.06090000  0.39192400  0.79658800  1
  C  879  1  0.11114100  0.44315300  0.70586200  1
  C  881  1  0.11960500  0.45807400  0.68541500  1
  C  882  1  0.13333600  0.44299500  0.66631700  1
  C  888  1  0.04605100  0.38347100  0.81709400  1
  C  889  1  0.06118200  0.36971800  0.83613200  1
  C  897  1  0.23444900  0.90064500  0.42855400  1
  C  898  1  0.22608000  0.91832700  0.41207900  1
  C  899  1  0.24209800  0.93208400  0.39809700  1
  C  900  1  0.26750700  0.92908600  0.39943200  1
  C  901  1  0.27588500  0.91225500  0.41676100  1
  C  902  1  0.25989000  0.89850900  0.43078600  1
  C  905  1  0.20567100  0.94379800  0.39227300  1
  C  907  1  0.29647300  0.89179200  0.44153600  1
  C  909  1  0.31705300  0.88330900  0.45627100  1
  C  910  1  0.33696400  0.87125200  0.44081000  1
  C  916  1  0.18528100  0.95891400  0.38402200  1
  C  917  1  0.16615200  0.94410500  0.37004900  1
  C  925  1  0.76788200  0.90000200  0.57409800  1
  C  926  1  0.77619500  0.91746400  0.59083100  1
  C  927  1  0.76012600  0.93143400  0.60454500  1
  C  928  1  0.73470100  0.92893100  0.60259200  1
  C  929  1  0.72639700  0.91228400  0.58504500  1
  C  930  1  0.74246800  0.89839300  0.57125700  1
  C  933  1  0.79662700  0.94250100  0.61114900  1
  C  935  1  0.70601700  0.89213100  0.55983600  1
  C  937  1  0.68558900  0.88359500  0.54493100  1
  C  938  1  0.66656900  0.86976700  0.56001900  1
  C  944  1  0.81711000  0.95733900  0.61967500  1
  C  945  1  0.83608800  0.94219500  0.63350000  1
  C  953  1  0.23534700  0.10326400  0.57428300  1
  C  954  1  0.22673900  0.08579700  0.59086000  1
  C  955  1  0.24255600  0.07175500  0.60479100  1
  C  956  1  0.26801500  0.07424900  0.60330300  1
  C  957  1  0.27662400  0.09085400  0.58586400  1
  C  958  1  0.26081000  0.10483900  0.57186600  1
  C  961  1  0.20591400  0.06085100  0.61088700  1
  C  963  1  0.29746000  0.11091400  0.56096200  1
  C  965  1  0.31814300  0.11927000  0.54630700  1
  C  966  1  0.33720900  0.13275000  0.56165000  1
  C  972  1  0.18524800  0.04617000  0.61924000  1
  C  973  1  0.16623600  0.06146800  0.63284500  1
  C  981  1  0.76759200  0.10367000  0.42895000  1
  C  982  1  0.77604100  0.08625100  0.41224400  1
  C  983  1  0.76009000  0.07216300  0.39851400  1
  C  984  1  0.73464700  0.07449700  0.40043100  1
  C  985  1  0.72620700  0.09108900  0.41796500  1
  C  986  1  0.74216200  0.10509900  0.43176500  1
  C  989  1  0.79667600  0.06131000  0.39200900  1
  C  991  1  0.70565000  0.11108100  0.44315600  1
  C  993  1  0.68515300  0.11942900  0.45807400  1
  C  994  1  0.66602600  0.13313300  0.44300900  1
  C  1000  1  0.81726200  0.04653200  0.38362700  1
  C  1001  1  0.83642000  0.06176100  0.37014900  1
  C  1009  1  0.23469000  0.42874200  0.10239300  1
  C  1010  1  0.22640000  0.41217100  0.08476400  1
  C  1011  1  0.24248700  0.39827500  0.07100100  1
  C  1012  1  0.26789100  0.39978600  0.07395000  1
  C  1013  1  0.27618800  0.41719500  0.09074300  1
  C  1014  1  0.26011700  0.43114800  0.10447500  1
  C  1017  1  0.20608000  0.39217000  0.05937700  1
  C  1019  1  0.29663400  0.44211700  0.11116600  1
  C  1021  1  0.31715500  0.45686600  0.11976700  1
  C  1022  1  0.33662700  0.44148300  0.13261300  1
  C  1028  1  0.18571300  0.38375400  0.04432100  1
  C  1029  1  0.16668400  0.36972300  0.05920500  1
  C  1037  1  0.76790700  0.57433700  0.10331800  1
  C  1038  1  0.77641600  0.59096400  0.08584600  1
  C  1039  1  0.76050800  0.60483500  0.07184500  1
  C  1040  1  0.73506000  0.60316900  0.07433000  1
  C  1041  1  0.72656000  0.58570800  0.09096500  1
  C  1042  1  0.74246100  0.57175900  0.10489300  1
  C  1045  1  0.79708900  0.61102800  0.06079800  1
  C  1047  1  0.70587100  0.56071200  0.11106300  1
  C  1049  1  0.68527200  0.54595700  0.11945400  1
  C  1050  1  0.66603300  0.56124800  0.13274900  1
  C  1056  1  0.81766200  0.61930500  0.04594300  1
  C  1057  1  0.83665100  0.63318700  0.06101500  1
  C  1065  1  0.23452300  0.57458500  0.90055300  1
  C  1066  1  0.22613000  0.59104500  0.91823800  1
  C  1067  1  0.24213100  0.60506300  0.93197800  1
  C  1068  1  0.26753800  0.60378300  0.92895800  1
  C  1069  1  0.27594100  0.58646700  0.91212700  1
  C  1070  1  0.25996600  0.57241100  0.89839100  1
  C  1073  1  0.20570000  0.61080900  0.94372300  1
  C  1075  1  0.29656900  0.56172400  0.89166200  1
  C  1077  1  0.31715700  0.54695800  0.88324700  1
  C  1078  1  0.33728800  0.56241000  0.87154700  1
  C  1084  1  0.18530600  0.61903200  0.95885100  1
  C  1085  1  0.16612700  0.63293700  0.94404400  1
  C  1093  1  0.76791800  0.42891900  0.90008000  1
  C  1094  1  0.77635800  0.41226900  0.91756100  1
  C  1095  1  0.76039400  0.39843000  0.93152700  1
  C  1096  1  0.73495500  0.40015400  0.92899600  1
  C  1097  1  0.72652200  0.41763500  0.91234700  1
  C  1098  1  0.74248000  0.43155200  0.89845500  1
  C  1101  1  0.79694400  0.39212700  0.94261700  1
  C  1103  1  0.70592900  0.44265800  0.89218300  1
  C  1105  1  0.68537400  0.45741700  0.88369400  1
  C  1106  1  0.66624300  0.44213900  0.87023100  1
  C  1112  1  0.81748100  0.38375000  0.95746400  1
  C  1113  1  0.83641300  0.36980300  0.94238000  1
  C  1121  1  0.42893900  0.89991900  0.76774600  1
  C  1122  1  0.41233400  0.91738200  0.77630800  1
  C  1123  1  0.39845800  0.93143100  0.76044900  1
  C  1124  1  0.40003400  0.92894700  0.73499500  1
  C  1125  1  0.41749600  0.91233800  0.72643300  1
  C  1126  1  0.43143900  0.89835100  0.74229000  1
  C  1129  1  0.39224100  0.94232000  0.79707300  1
  C  1131  1  0.44246100  0.89227200  0.70568100  1
  C  1133  1  0.45716300  0.88388100  0.68504400  1
  C  1134  1  0.44188500  0.87022000  0.66605500  1
  C  1140  1  0.38381700  0.95698400  0.81772200  1
  C  1141  1  0.37025200  0.94165200  0.83673700  1
  C  1149  1  0.57448700  0.90019800  0.23482000  1
  C  1150  1  0.59107800  0.91775900  0.22642900  1
  C  1151  1  0.60498500  0.93160600  0.24243600  1
  C  1152  1  0.60339200  0.92887500  0.26786200  1
  C  1153  1  0.58596500  0.91215000  0.27624900  1
  C  1154  1  0.57199100  0.89835300  0.26025800  1
  C  1157  1  0.61104300  0.94305700  0.20595900  1
  C  1159  1  0.56099600  0.89189000  0.29681200  1
  C  1161  1  0.54617800  0.88346500  0.31735400  1
  C  1162  1  0.56150300  0.87087100  0.33703500  1
  C  1168  1  0.61925500  0.95813800  0.18552700  1
  C  1169  1  0.63326000  0.94331400  0.16643200  1
  C  1177  1  0.57426800  0.10317300  0.76806300  1
  C  1178  1  0.59086000  0.08570200  0.77663300  1
  C  1179  1  0.60482200  0.07172400  0.76078400  1
  C  1180  1  0.60334800  0.07428800  0.73532900  1
  C  1181  1  0.58589300  0.09089600  0.72675900  1
  C  1182  1  0.57186600  0.10481800  0.74260200  1
  C  1185  1  0.61091000  0.06072600  0.79739700  1
  C  1187  1  0.56097100  0.11097700  0.70596500  1
  C  1189  1  0.54630800  0.11935900  0.68529800  1
  C  1190  1  0.56165000  0.13284000  0.66622900  1
  C  1196  1  0.61928000  0.04600300  0.81802800  1
  C  1197  1  0.63291800  0.06126000  0.83704800  1
  C  1205  1  0.42911300  0.10281300  0.23492300  1
  C  1206  1  0.41237200  0.08530400  0.22672200  1
  C  1207  1  0.39863300  0.07147800  0.24288900  1
  C  1208  1  0.40055000  0.07419100  0.26829400  1
  C  1209  1  0.41808800  0.09089800  0.27648800  1
  C  1210  1  0.43190800  0.10465000  0.26032700  1
  C  1213  1  0.39206200  0.06009900  0.20648400  1
  C  1215  1  0.44328300  0.11119100  0.29674100  1
  C  1217  1  0.45817300  0.11984700  0.31713100  1
  C  1218  1  0.44302600  0.13352100  0.33621800  1
  C  1224  1  0.38350000  0.04511400  0.18612400  1
  C  1225  1  0.36937000  0.06007400  0.16722700  1
  C  1233  1  0.90062900  0.23444000  0.57456000  1
  C  1234  1  0.91830700  0.22606000  0.59103200  1
  C  1235  1  0.93204800  0.24207100  0.60503600  1
  C  1236  1  0.92903600  0.26748000  0.60372500  1
  C  1237  1  0.91221000  0.27586900  0.58639800  1
  C  1238  1  0.89847800  0.25988100  0.57235300  1
  C  1241  1  0.94377600  0.20564400  0.61083100  1
  C  1243  1  0.89175100  0.29646900  0.56163000  1
  C  1245  1  0.88329400  0.31705200  0.54687900  1
  C  1246  1  0.87137100  0.33704900  0.56233000  1
  C  1252  1  0.95889300  0.18525200  0.61907500  1
  C  1253  1  0.94407800  0.16609400  0.63300300  1
  C  1261  1  0.89998400  0.76783500  0.42913300  1
  C  1262  1  0.91742900  0.77616500  0.41239000  1
  C  1263  1  0.93138600  0.76011000  0.39864800  1
  C  1264  1  0.92888400  0.73468300  0.40057800  1
  C  1265  1  0.91225300  0.72636300  0.41813100  1
  C  1266  1  0.89837500  0.74241900  0.43194800  1
  C  1269  1  0.94244700  0.79661500  0.39206500  1
  C  1271  1  0.89211800  0.70595400  0.44333200  1
  C  1273  1  0.88359300  0.68550600  0.45821700  1
  C  1274  1  0.86976900  0.66649800  0.44310900  1
  C  1280  1  0.95726900  0.81710700  0.38353300  1
  C  1281  1  0.94211400  0.83605200  0.36967600  1
  C  1289  1  0.10251500  0.23467900  0.42901200  1
  C  1290  1  0.08494500  0.22654300  0.41230300  1
  C  1291  1  0.07120700  0.24276400  0.39854100  1
  C  1292  1  0.07413500  0.26815100  0.40033100  1
  C  1293  1  0.09089900  0.27628900  0.41784300  1
  C  1294  1  0.10458100  0.26007900  0.43167800  1
  C  1297  1  0.05963800  0.20641300  0.39202000  1
  C  1299  1  0.11130000  0.29647500  0.44300000  1
  C  1301  1  0.12003400  0.31685400  0.45786000  1
  C  1302  1  0.13377500  0.33587200  0.44268700  1
  C  1308  1  0.04464500  0.18610800  0.38334300  1
  C  1309  1  0.05962800  0.16719500  0.36926000  1
  C  1317  1  0.10339900  0.76783300  0.57437900  1
  C  1318  1  0.08593200  0.77635500  0.59100200  1
  C  1319  1  0.07191300  0.76045900  0.60487100  1
  C  1320  1  0.07437200  0.73500900  0.60320500  1
  C  1321  1  0.09100600  0.72649500  0.58575000  1
  C  1322  1  0.10495200  0.74238500  0.57180200  1
  C  1325  1  0.06089700  0.79705100  0.61105700  1
  C  1327  1  0.11109200  0.70578900  0.56075500  1
  C  1329  1  0.11947000  0.68518300  0.54600400  1
  C  1330  1  0.13278100  0.66595500  0.56129100  1
  C  1336  1  0.04605500  0.81763900  0.61932000  1
  C  1337  1  0.06114200  0.83664100  0.63317100  1
  C  1345  1  0.55479900  0.76576200  0.08581800  1
  C  1346  1  0.57113300  0.77668400  0.06937800  1
  C  1347  1  0.58589300  0.76253800  0.05448100  1
  C  1348  1  0.58561400  0.73699000  0.05495600  1
  C  1349  1  0.56925300  0.72606700  0.07136600  1
  C  1350  1  0.55438100  0.74021400  0.08615100  1
  C  1353  1  0.59174200  0.80003500  0.04719200  1
  C  1355  1  0.54714500  0.70271300  0.09205100  1
  C  1357  1  0.53574500  0.68056000  0.10160700  1
  C  1358  1  0.55407100  0.66431300  0.11506600  1
  C  1364  1  0.60124500  0.82218600  0.03574200  1
  C  1365  1  0.61471600  0.83847800  0.05401900  1
  C  1373  1  0.44846600  0.23717400  0.08563600  1
  C  1374  1  0.43206900  0.22619500  0.06929900  1
  C  1375  1  0.41723700  0.24029300  0.05442800  1
  C  1376  1  0.41749700  0.26584300  0.05483600  1
  C  1377  1  0.43392000  0.27682100  0.07114900  1
  C  1378  1  0.44887000  0.26272200  0.08590200  1
  C  1381  1  0.41142200  0.20277300  0.04722300  1
  C  1383  1  0.45608100  0.30024000  0.09170900  1
  C  1385  1  0.46750900  0.32242100  0.10116600  1
  C  1386  1  0.44923900  0.33866800  0.11469800  1
  C  1392  1  0.40197000  0.18059000  0.03579300  1
  C  1393  1  0.38854000  0.16428400  0.05408700  1
  C  1401  1  0.44808600  0.76602100  0.91714900  1
  C  1402  1  0.43175400  0.77689800  0.93361800  1
  C  1403  1  0.41702500  0.76271000  0.94850600  1
  C  1404  1  0.41732700  0.73716200  0.94798700  1
  C  1405  1  0.43368100  0.72628500  0.93153900  1
  C  1406  1  0.44853300  0.74047300  0.91677200  1
  C  1409  1  0.41118300  0.80018700  0.95590400  1
  C  1411  1  0.45582900  0.70299400  0.91082500  1
  C  1413  1  0.46727600  0.68087100  0.90125000  1
  C  1414  1  0.44899100  0.66461600  0.88774600  1
  C  1420  1  0.40171100  0.82230200  0.96744700  1
  C  1421  1  0.38816200  0.83863000  0.94926100  1
  C  1429  1  0.55496000  0.23704900  0.91748500  1
  C  1430  1  0.57136100  0.22610500  0.93384200  1
  C  1431  1  0.58616600  0.24023500  0.94871100  1
  C  1432  1  0.58587300  0.26578300  0.94828200  1
  C  1433  1  0.56944900  0.27672700  0.93194900  1
  C  1434  1  0.55452400  0.26259700  0.91719900  1
  C  1437  1  0.59200600  0.20273100  0.95597100  1
  C  1439  1  0.54726100  0.30010100  0.91136600  1
  C  1441  1  0.53580100  0.32226000  0.90189400  1
  C  1442  1  0.55405000  0.33852700  0.88835800  1
  C  1448  1  0.60146200  0.18057200  0.96744700  1
  C  1449  1  0.61494800  0.16426200  0.94919800  1
  C  1457  1  0.08590100  0.55472500  0.76572800  1
  C  1458  1  0.06943300  0.57102900  0.77665200  1
  C  1459  1  0.05453000  0.58578400  0.76250700  1
  C  1460  1  0.05502600  0.58552900  0.73695900  1
  C  1461  1  0.07146600  0.56920100  0.72603500  1
  C  1462  1  0.08625600  0.55433200  0.74017900  1
  C  1465  1  0.04719500  0.59158500  0.80000200  1
  C  1467  1  0.09219200  0.54713600  0.70267700  1
  C  1469  1  0.10177300  0.53576100  0.68052000  1
  C  1470  1  0.11522900  0.55410900  0.66429700  1
  C  1476  1  0.03570300  0.60104600  0.82215000  1
  C  1477  1  0.05393400  0.61455500  0.83846000  1
  C  1485  1  0.08559000  0.44833600  0.23697300  1
  C  1486  1  0.06929400  0.43190100  0.22599100  1
  C  1487  1  0.05443300  0.41705000  0.24008300  1
  C  1488  1  0.05480700  0.41733500  0.26563300  1
  C  1489  1  0.07107500  0.43380000  0.27661500  1
  C  1490  1  0.08582200  0.44876100  0.26252100  1
  C  1493  1  0.04730500  0.41117400  0.20255700  1
  C  1495  1  0.09158100  0.45600300  0.30004100  1
  C  1497  1  0.10101100  0.46744400  0.32222800  1
  C  1498  1  0.11454400  0.44918700  0.33848800  1
  C  1504  1  0.03595100  0.40165500  0.18036400  1
  C  1505  1  0.05432500  0.38828000  0.16410200  1
  C  1513  1  0.91716100  0.44819400  0.76574800  1
  C  1514  1  0.93363800  0.43188800  0.77665500  1
  C  1515  1  0.94854400  0.41715000  0.76249300  1
  C  1516  1  0.94804100  0.41742300  0.73694600  1
  C  1517  1  0.93159200  0.43375500  0.72603900  1
  C  1518  1  0.91680300  0.44861100  0.74019900  1
  C  1521  1  0.95591300  0.41134400  0.79998000  1
  C  1523  1  0.91087000  0.45585200  0.70270600  1
  C  1525  1  0.90129700  0.46726000  0.68056300  1
  C  1526  1  0.88782600  0.44893900  0.66432100  1
  C  1532  1  0.96743800  0.40189600  0.82211600  1
  C  1533  1  0.94923800  0.38836100  0.83844400  1
  C  1541  1  0.91762800  0.55502900  0.23677400  1
  C  1542  1  0.93395800  0.57146700  0.22584400  1
  C  1543  1  0.94880100  0.58628600  0.23998700  1
  C  1544  1  0.94837100  0.58597200  0.26553700  1
  C  1545  1  0.93205900  0.56951400  0.27646500  1
  C  1546  1  0.91733700  0.55457500  0.26232000  1
  C  1549  1  0.95604800  0.59217100  0.20248700  1
  C  1551  1  0.91150000  0.54728200  0.29981900  1
  C  1553  1  0.90202600  0.53580500  0.32196900  1
  C  1554  1  0.88846300  0.55403700  0.33823300  1
  C  1560  1  0.96749900  0.60167400  0.18033600  1
  C  1561  1  0.94922000  0.61514500  0.16404800  1
  C  1569  1  0.76558500  0.08598300  0.55467600  1
  C  1570  1  0.77651800  0.06952000  0.57097900  1
  C  1571  1  0.76237800  0.05462600  0.58575000  1
  C  1572  1  0.73683200  0.05512600  0.58551200  1
  C  1573  1  0.72589700  0.07155700  0.56918100  1
  C  1574  1  0.74003500  0.08634000  0.55429800  1
  C  1577  1  0.79987700  0.04729400  0.59153700  1
  C  1579  1  0.70252900  0.09227400  0.54712000  1
  C  1581  1  0.68036400  0.10184800  0.53575400  1
  C  1582  1  0.66415000  0.11530800  0.55410600  1
  C  1588  1  0.82203100  0.03580900  0.60099500  1
  C  1589  1  0.83834800  0.05405000  0.61448400  1
  C  1597  1  0.23718300  0.08550800  0.44838600  1
  C  1598  1  0.22617200  0.06922800  0.43195500  1
  C  1599  1  0.24023700  0.05435300  0.41709400  1
  C  1600  1  0.26578900  0.05469200  0.41736900  1
  C  1601  1  0.27679800  0.07094100  0.43383400  1
  C  1602  1  0.26273100  0.08570600  0.44880300  1
  C  1605  1  0.20269800  0.04729200  0.41121900  1
  C  1607  1  0.30026000  0.09142500  0.45602100  1
  C  1609  1  0.32246700  0.10083700  0.46744100  1
  C  1610  1  0.33872700  0.11434500  0.44916100  1
  C  1616  1  0.18048400  0.03599000  0.40168700  1
  C  1617  1  0.16424000  0.05441300  0.38836100  1
  C  1625  1  0.76576900  0.91720700  0.44830100  1
  C  1626  1  0.77668600  0.93368700  0.43200600  1
  C  1627  1  0.76253100  0.94859300  0.41726000  1
  C  1628  1  0.73698400  0.94808800  0.41751700  1
  C  1629  1  0.72606700  0.93163400  0.43383600  1
  C  1630  1  0.74022100  0.91684300  0.44870000  1
  C  1633  1  0.80002200  0.95596700  0.41148000  1
  C  1635  1  0.70272300  0.91089900  0.45590900  1
  C  1637  1  0.68057200  0.90131300  0.46729200  1
  C  1638  1  0.66434800  0.88785100  0.44895100  1
  C  1644  1  0.82216100  0.96749900  0.40204600  1
  C  1645  1  0.83849100  0.94931000  0.38850200  1
  C  1653  1  0.23672700  0.91759000  0.55506200  1
  C  1654  1  0.22582300  0.93393500  0.57150000  1
  C  1655  1  0.23998900  0.94875800  0.58631600  1
  C  1656  1  0.26553700  0.94828900  0.58600500  1
  C  1657  1  0.27643900  0.93195900  0.56954800  1
  C  1658  1  0.26227300  0.91726100  0.55460900  1
  C  1661  1  0.20250100  0.95607000  0.59219600  1
  C  1663  1  0.29976200  0.91137000  0.54731500  1
  C  1665  1  0.32190000  0.90186900  0.53583400  1
  C  1666  1  0.33814800  0.88828600  0.55406600  1
  C  1672  1  0.18037000  0.96756400  0.60169700  1
  C  1673  1  0.16406800  0.94932300  0.61520300  1
  C  1681  1  0.76596700  0.55484400  0.91744200  1
  C  1682  1  0.77691600  0.57118100  0.93385900  1
  C  1683  1  0.76279300  0.58596700  0.94875100  1
  C  1684  1  0.73724500  0.58571000  0.94829800  1
  C  1685  1  0.72629400  0.56934200  0.93191200  1
  C  1686  1  0.74041800  0.55444300  0.91713100  1
  C  1689  1  0.80029900  0.59178000  0.95602100  1
  C  1691  1  0.70290900  0.54722500  0.91127000  1
  C  1693  1  0.68073900  0.53581700  0.90175700  1
  C  1694  1  0.66449600  0.55412200  0.88826900  1
  C  1700  1  0.82246200  0.60125000  0.96747600  1
  C  1701  1  0.83875200  0.61474300  0.94921400  1
  C  1709  1  0.23680400  0.44797700  0.91754300  1
  C  1710  1  0.22589100  0.43147600  0.93382100  1
  C  1711  1  0.24004900  0.41663400  0.94863100  1
  C  1712  1  0.26559700  0.41698200  0.94821300  1
  C  1713  1  0.27650600  0.43350000  0.93195000  1
  C  1714  1  0.26235100  0.44845900  0.91726300  1
  C  1717  1  0.20255000  0.41066900  0.95582900  1
  C  1719  1  0.29984200  0.45581300  0.91146000  1
  C  1721  1  0.32198700  0.46732500  0.90201600  1
  C  1722  1  0.33828000  0.44912500  0.88844500  1
  C  1728  1  0.18040300  0.40107400  0.96720800  1
  C  1729  1  0.16414600  0.38767700  0.94884700  1
  C  1737  1  0.76587400  0.44836300  0.08576500  1
  C  1738  1  0.77681500  0.43201700  0.06935000  1
  C  1739  1  0.76268100  0.41722400  0.05447100  1
  C  1740  1  0.73713400  0.41748300  0.05494100  1
  C  1741  1  0.72619200  0.43386000  0.07132300  1
  C  1742  1  0.74032600  0.44876500  0.08608900  1
  C  1745  1  0.80018300  0.41140000  0.04718800  1
  C  1747  1  0.70282000  0.45599400  0.09196100  1
  C  1749  1  0.68065700  0.46741400  0.10147500  1
  C  1750  1  0.66441800  0.44912000  0.11498700  1
  C  1756  1  0.82234000  0.40191400  0.03573700  1
  C  1757  1  0.83863600  0.38844100  0.05401100  1
  C  1765  1  0.23669000  0.55508200  0.08532200  1
  C  1766  1  0.22574500  0.57155300  0.06903900  1
  C  1767  1  0.23986900  0.58639100  0.05419600  1
  C  1768  1  0.26541900  0.58605400  0.05457500  1
  C  1769  1  0.27636300  0.56955800  0.07083700  1
  C  1770  1  0.26223700  0.55460700  0.08556400  1
  C  1773  1  0.20235600  0.59234500  0.04707000  1
  C  1775  1  0.29974100  0.54730800  0.09134800  1
  C  1777  1  0.32190700  0.53585200  0.10080900  1
  C  1778  1  0.33816800  0.55410600  0.11434800  1
  C  1784  1  0.18018100  0.60194200  0.03574600  1
  C  1785  1  0.16395200  0.61530600  0.05415500  1
  C  1793  1  0.55510200  0.08559900  0.23691100  1
  C  1794  1  0.57145500  0.06918300  0.22598500  1
  C  1795  1  0.58622200  0.05429000  0.24012800  1
  C  1796  1  0.58592300  0.05474000  0.26567600  1
  C  1797  1  0.56953600  0.07112200  0.27660200  1
  C  1798  1  0.55465600  0.08590400  0.26245900  1
  C  1801  1  0.59209900  0.04703900  0.20262800  1
  C  1803  1  0.54739700  0.09177500  0.29995800  1
  C  1805  1  0.53599100  0.10131600  0.32211500  1
  C  1806  1  0.55431200  0.11476800  0.33837300  1
  C  1812  1  0.60162900  0.03562000  0.18047200  1
  C  1813  1  0.61508500  0.05392700  0.16420300  1
  C  1821  1  0.44830900  0.08574700  0.76587800  1
  C  1822  1  0.43191200  0.06938500  0.77682200  1
  C  1823  1  0.41710300  0.05452200  0.76269000  1
  C  1824  1  0.41738200  0.05496500  0.73714200  1
  C  1825  1  0.43380400  0.07130200  0.72620000  1
  C  1826  1  0.44873600  0.08604300  0.74033200  1
  C  1829  1  0.41127500  0.04724500  0.80019200  1
  C  1831  1  0.45599000  0.09188700  0.70282800  1
  C  1833  1  0.46745200  0.10136200  0.68066800  1
  C  1834  1  0.44920500  0.11491500  0.66441300  1
  C  1840  1  0.40182900  0.03575800  0.82234900  1
  C  1841  1  0.38834500  0.05399700  0.83867200  1
  C  1849  1  0.44818500  0.91730100  0.23708500  1
  C  1850  1  0.43180000  0.93370600  0.22619400  1
  C  1851  1  0.41703600  0.94857300  0.24037100  1
  C  1852  1  0.41735600  0.94809200  0.26591700  1
  C  1853  1  0.43376200  0.93170400  0.27680900  1
  C  1854  1  0.44864500  0.91695700  0.26263300  1
  C  1857  1  0.41113000  0.95588000  0.20288500  1
  C  1859  1  0.45597400  0.91107700  0.30011500  1
  C  1861  1  0.46745000  0.90155400  0.32224600  1
  C  1862  1  0.44919700  0.88802700  0.33851900  1
  C  1868  1  0.40158800  0.96734000  0.18075600  1
  C  1869  1  0.38808800  0.94907100  0.16448100  1
  C  1877  1  0.55476700  0.91756900  0.76585300  1
  C  1878  1  0.57114500  0.93391600  0.77684200  1
  C  1879  1  0.58596900  0.94880500  0.76275100  1
  C  1880  1  0.58571000  0.94840900  0.73720300  1
  C  1881  1  0.56930600  0.93208400  0.72621600  1
  C  1882  1  0.55436800  0.91731200  0.74030400  1
  C  1885  1  0.59177300  0.95600300  0.80027400  1
  C  1887  1  0.54717900  0.91150600  0.70278200  1
  C  1889  1  0.53577000  0.90204300  0.68059200  1
  C  1890  1  0.55406800  0.88855200  0.66433900  1
  C  1896  1  0.60121400  0.96743600  0.82246200  1
  C  1897  1  0.61467200  0.94915100  0.83875300  1
  C  1905  1  0.08588500  0.76567200  0.44839500  1
  C  1906  1  0.06944900  0.77658600  0.43205300  1
  C  1907  1  0.05457000  0.76243300  0.41728000  1
  C  1908  1  0.05506400  0.73688600  0.41755200  1
  C  1909  1  0.07147200  0.72597000  0.43392000  1
  C  1910  1  0.08623500  0.74012300  0.44880600  1
  C  1913  1  0.04724500  0.79992400  0.41144500  1
  C  1915  1  0.09213800  0.70262800  0.45605700  1
  C  1917  1  0.10167600  0.68048000  0.46748800  1
  C  1918  1  0.11520400  0.66424600  0.44920300  1
  C  1924  1  0.03576200  0.82206500  0.40195700  1
  C  1925  1  0.05400600  0.83836800  0.38845300  1
  C  1933  1  0.08549500  0.23662100  0.55516100  1
  C  1934  1  0.06918000  0.22568300  0.57160300  1
  C  1935  1  0.05431400  0.23981300  0.58641400  1
  C  1936  1  0.05470000  0.26536100  0.58607600  1
  C  1937  1  0.07099300  0.27630000  0.56960600  1
  C  1938  1  0.08574300  0.26217000  0.55468300  1
  C  1941  1  0.04715700  0.20230200  0.59234700  1
  C  1943  1  0.09154200  0.29967000  0.54738400  1
  C  1945  1  0.10102200  0.32183500  0.53593900  1
  C  1946  1  0.11451000  0.33811400  0.55421300  1
  C  1952  1  0.03579800  0.18013000  0.60191100  1
  C  1953  1  0.05417000  0.16387800  0.61529900  1
  C  1961  1  0.91739700  0.76590500  0.55493500  1
  C  1962  1  0.93384600  0.77685300  0.57123900  1
  C  1963  1  0.94875600  0.76273000  0.58601000  1
  C  1964  1  0.94829100  0.73718100  0.58576400  1
  C  1965  1  0.93187400  0.72623200  0.56942700  1
  C  1966  1  0.91707600  0.74035500  0.55454400  1
  C  1969  1  0.95605400  0.80023400  0.59179300  1
  C  1971  1  0.91118200  0.70284600  0.54735900  1
  C  1973  1  0.90163500  0.68067200  0.53598600  1
  C  1974  1  0.88819900  0.66443500  0.55433400  1
  C  1980  1  0.96753200  0.82239600  0.60123800  1
  C  1981  1  0.94929400  0.83870300  0.61474100  1
  C  1989  1  0.91740400  0.23691500  0.44796600  1
  C  1990  1  0.93371200  0.22604200  0.43147000  1
  C  1991  1  0.94852600  0.24023300  0.41666700  1
  C  1992  1  0.94807700  0.26578100  0.41704300  1
  C  1993  1  0.93177700  0.27665300  0.43354800  1
  C  1994  1  0.91709100  0.26246100  0.44847700  1
  C  1997  1  0.95579700  0.20275300  0.41068500  1
  C  1999  1  0.91125400  0.29993600  0.45588500  1
  C  2001  1  0.90178900  0.32205200  0.46743500  1
  C  2002  1  0.88820100  0.33836400  0.44926400  1
  C  2008  1  0.96724000  0.18063200  0.40110100  1
  C  2009  1  0.94894300  0.16435700  0.38764100  1
  N  679  1  0.38619900  0.22883900  0.94737300  1
  N  682  1  0.44711200  0.27389000  0.88613800  1
  N  699  1  0.44257100  0.21882200  0.88847900  1
  N  700  1  0.38821800  0.28389400  0.94248700  1
  N  707  1  0.61699200  0.77355600  0.94748500  1
  N  710  1  0.55553200  0.72965400  0.88596800  1
  N  727  1  0.56063000  0.78457900  0.88875600  1
  N  728  1  0.61413500  0.71865000  0.94245600  1
  N  735  1  0.61711500  0.22892000  0.05601500  1
  N  738  1  0.55622600  0.27422300  0.11708400  1
  N  755  1  0.56085900  0.21912200  0.11504000  1
  N  756  1  0.61509600  0.28400700  0.06067900  1
  N  763  1  0.38614900  0.77347300  0.05603900  1
  N  766  1  0.44761300  0.72908500  0.11719900  1
  N  783  1  0.44232700  0.78408000  0.11499800  1
  N  784  1  0.38907800  0.71851800  0.06057600  1
  N  791  1  0.94788700  0.38599900  0.22866100  1
  N  794  1  0.88614900  0.44660900  0.27343000  1
  N  811  1  0.88909800  0.44241000  0.21838700  1
  N  812  1  0.94251800  0.38777300  0.28365700  1
  N  819  1  0.94707100  0.61688800  0.77358100  1
  N  822  1  0.88595600  0.55537500  0.72919800  1
  N  839  1  0.88819000  0.56060200  0.78417700  1
  N  840  1  0.94248500  0.61400100  0.71861200  1
  N  847  1  0.05591100  0.61714900  0.22879000  1
  N  850  1  0.11714700  0.55636700  0.27400800  1
  N  867  1  0.11485500  0.56082400  0.21890700  1
  N  868  1  0.06074700  0.61523900  0.28385500  1
  N  875  1  0.05613800  0.38612300  0.77342400  1
  N  878  1  0.11728300  0.44757900  0.72900400  1
  N  895  1  0.11514700  0.44224900  0.78400200  1
  N  896  1  0.06062600  0.38907300  0.71846400  1
  N  903  1  0.22879300  0.94810800  0.38599500  1
  N  906  1  0.27332400  0.88597700  0.44637900  1
  N  923  1  0.21830900  0.88934100  0.44239800  1
  N  924  1  0.28374400  0.94242300  0.38765300  1
  N  931  1  0.77345100  0.94721700  0.61694400  1
  N  934  1  0.72917400  0.88605300  0.55540200  1
  N  951  1  0.78414100  0.88829600  0.56071600  1
  N  952  1  0.71849100  0.94263000  0.61397000  1
  N  959  1  0.22898000  0.05607400  0.61704800  1
  N  962  1  0.27439700  0.11708600  0.55618600  1
  N  979  1  0.21928300  0.11509200  0.56076800  1
  N  980  1  0.28407200  0.06067400  0.61507100  1
  N  987  1  0.77354300  0.05644700  0.38616500  1
  N  990  1  0.72875600  0.11733200  0.44761000  1
  N  1007  1  0.78378500  0.11552300  0.44228700  1
  N  1008  1  0.71853800  0.06068800  0.38904400  1
  N  1015  1  0.22923700  0.38604400  0.05502900  1
  N  1018  1  0.27346100  0.44684000  0.11697700  1
  N  1035  1  0.21848100  0.44248600  0.11372100  1
  N  1036  1  0.28415700  0.38812000  0.06054600  1
  N  1043  1  0.77398300  0.61705900  0.05605500  1
  N  1046  1  0.72896800  0.55604800  0.11720600  1
  N  1063  1  0.78403800  0.56082100  0.11505200  1
  N  1064  1  0.71894900  0.61480600  0.06071900  1
  N  1071  1  0.22881300  0.61714200  0.94801000  1
  N  1074  1  0.27342500  0.55684000  0.88586000  1
  N  1091  1  0.21840500  0.56069900  0.88927400  1
  N  1092  1  0.28375900  0.61559800  0.94228000  1
  N  1099  1  0.77381500  0.38615200  0.94732200  1
  N  1102  1  0.72904900  0.44728000  0.88610000  1
  N  1119  1  0.78408900  0.44240300  0.88836900  1
  N  1120  1  0.71880100  0.38854400  0.94257700  1
  N  1127  1  0.38615200  0.94710700  0.77398800  1
  N  1130  1  0.44716400  0.88610200  0.72875800  1
  N  1147  1  0.44240700  0.88808500  0.78384400  1
  N  1148  1  0.38835700  0.94257000  0.71891600  1
  N  1155  1  0.61714200  0.94756000  0.22909400  1
  N  1158  1  0.55630400  0.88592100  0.27367300  1
  N  1175  1  0.56081000  0.88872600  0.21865200  1
  N  1176  1  0.61504500  0.94235600  0.28406100  1
  N  1183  1  0.61708900  0.05602100  0.77432200  1
  N  1186  1  0.55617500  0.11708100  0.72904200  1
  N  1203  1  0.56070800  0.11493400  0.78414100  1
  N  1204  1  0.61513900  0.06078100  0.71923300  1
  N  1211  1  0.38624700  0.05558200  0.22969100  1
  N  1214  1  0.44775300  0.11709000  0.27354300  1
  N  1231  1  0.44262200  0.11428200  0.21861400  1
  N  1232  1  0.38914300  0.06061300  0.28458100  1
  N  1239  1  0.94807200  0.22876100  0.61713500  1
  N  1242  1  0.88594800  0.27332200  0.55676500  1
  N  1259  1  0.88934300  0.21831500  0.56069000  1
  N  1260  1  0.94236200  0.28371000  0.61552700  1
  N  1267  1  0.94715800  0.77344500  0.38624700  1
  N  1270  1  0.88604600  0.72910500  0.44779600  1
  N  1287  1  0.88828900  0.78408300  0.44253900  1
  N  1288  1  0.94256800  0.71848600  0.38916500  1
  N  1295  1  0.05528200  0.22963000  0.38612000  1
  N  1298  1  0.11705700  0.27325300  0.44752800  1
  N  1315  1  0.11383300  0.21836000  0.44262600  1
  N  1316  1  0.06065500  0.28449900  0.38889200  1
  N  1323  1  0.05613200  0.77395000  0.61708900  1
  N  1326  1  0.11725500  0.72888100  0.55609400  1
  N  1343  1  0.11515000  0.78395500  0.56086200  1
  N  1344  1  0.06074000  0.71890700  0.61483500  1
  N  1351  1  0.59862000  0.77762600  0.04065700  1
  N  1354  1  0.54059700  0.72512200  0.09891900  1
  N  1371  1  0.53926200  0.77726200  0.10000000  1
  N  1372  1  0.59977500  0.72548300  0.03940900  1
  N  1379  1  0.40450300  0.22516200  0.04065800  1
  N  1382  1  0.46267400  0.27785100  0.09859800  1
  N  1399  1  0.46401900  0.22572700  0.09984000  1
  N  1400  1  0.40328100  0.27729200  0.03929600  1
  N  1407  1  0.40432100  0.77775800  0.96239400  1
  N  1410  1  0.46234400  0.72542100  0.90398900  1
  N  1427  1  0.46365200  0.77756200  0.90303100  1
  N  1428  1  0.40321400  0.72561500  0.96354900  1
  N  1435  1  0.59889700  0.22513300  0.96251500  1
  N  1438  1  0.54070000  0.27769900  0.90449000  1
  N  1455  1  0.53940900  0.22556700  0.90330600  1
  N  1456  1  0.60005900  0.27726100  0.96383000  1
  N  1463  1  0.04067300  0.59847700  0.77759300  1
  N  1466  1  0.09905000  0.54057500  0.72508600  1
  N  1483  1  0.10008600  0.53919000  0.77722500  1
  N  1484  1  0.03947100  0.59968400  0.72545600  1
  N  1491  1  0.04071900  0.40426500  0.22494300  1
  N  1494  1  0.09848600  0.46259100  0.27765600  1
  N  1511  1  0.09979600  0.46388900  0.22552700  1
  N  1512  1  0.03928700  0.40309200  0.27708000  1
  N  1519  1  0.96242300  0.40446600  0.77756400  1
  N  1522  1  0.90401400  0.46239000  0.72512200  1
  N  1539  1  0.90300400  0.46374600  0.77726300  1
  N  1540  1  0.96360700  0.40329100  0.72542700  1
  N  1547  1  0.96258200  0.59905400  0.22489600  1
  N  1550  1  0.90464100  0.54072500  0.27741000  1
  N  1567  1  0.90348400  0.53946000  0.22527800  1
  N  1568  1  0.96390200  0.60016400  0.27703100  1
  N  1575  1  0.77747200  0.04077500  0.59844200  1
  N  1578  1  0.72493400  0.09912800  0.54054400  1
  N  1595  1  0.77707200  0.10017600  0.53914100  1
  N  1596  1  0.72533600  0.03958200  0.59968200  1
  N  1603  1  0.22507300  0.04067400  0.40430200  1
  N  1606  1  0.27788800  0.09835600  0.46262100  1
  N  1623  1  0.22576500  0.09973800  0.46393800  1
  N  1624  1  0.27721200  0.03917400  0.40310500  1
  N  1631  1  0.77760900  0.96247700  0.40458800  1
  N  1634  1  0.72513500  0.90404700  0.46246200  1
  N  1651  1  0.77727600  0.90305300  0.46386000  1
  N  1652  1  0.72547500  0.96365200  0.40337600  1
  N  1659  1  0.22491900  0.96256900  0.59908000  1
  N  1662  1  0.27734400  0.90454500  0.54075600  1
  N  1679  1  0.22520900  0.90347300  0.53947800  1
  N  1680  1  0.27705700  0.96381700  0.60018200  1
  N  1687  1  0.77789900  0.59868500  0.96256200  1
  N  1690  1  0.72530900  0.54065500  0.90439300  1
  N  1707  1  0.77743700  0.53928200  0.90326700  1
  N  1708  1  0.72576700  0.59992000  0.96382200  1
  N  1715  1  0.22496400  0.40379800  0.96235800  1
  N  1718  1  0.27742900  0.46235900  0.90460600  1
  N  1735  1  0.22529600  0.46357900  0.90344000  1
  N  1736  1  0.27711600  0.40279700  0.96373900  1
  N  1743  1  0.77777900  0.40449500  0.04066000  1
  N  1746  1  0.72522400  0.46256400  0.09882600  1
  N  1763  1  0.77735400  0.46391900  0.09994000  1
  N  1764  1  0.72564400  0.40328400  0.03941600  1
  N  1771  1  0.22475600  0.59922100  0.04049600  1
  N  1774  1  0.27734100  0.54074700  0.09823200  1
  N  1791  1  0.22520700  0.53950700  0.09947500  1
  N  1792  1  0.27690600  0.60028000  0.03906500  1
  N  1799  1  0.59897300  0.04049400  0.22503700  1
  N  1802  1  0.54085600  0.09865200  0.27754900  1
  N  1819  1  0.53954700  0.09976100  0.22541200  1
  N  1820  1  0.60012100  0.03922300  0.27718300  1
  N  1827  1  0.40437600  0.04071100  0.77779000  1
  N  1830  1  0.46255600  0.09875600  0.72522900  1
  N  1847  1  0.46385600  0.09993000  0.77736100  1
  N  1848  1  0.40319900  0.03941700  0.72566000  1
  N  1855  1  0.40427300  0.96239200  0.22530800  1
  N  1858  1  0.46249300  0.90422600  0.27769400  1
  N  1875  1  0.46376700  0.90318900  0.22556000  1
  N  1876  1  0.40321900  0.96363900  0.27745800  1
  N  1883  1  0.59868800  0.96258200  0.77789000  1
  N  1886  1  0.54058400  0.90460300  0.72516600  1
  N  1903  1  0.53922600  0.90334600  0.77729200  1
  N  1904  1  0.59992700  0.96395400  0.72576700  1
  N  1911  1  0.04073300  0.77751200  0.40455900  1
  N  1914  1  0.09899000  0.72504100  0.46260900  1
  N  1931  1  0.10005000  0.77717500  0.46394500  1
  N  1932  1  0.03952300  0.72537400  0.40338900  1
  N  1939  1  0.04058100  0.22470400  0.59921400  1
  N  1942  1  0.09843400  0.27726800  0.54083900  1
  N  1959  1  0.09965600  0.22512900  0.53960100  1
  N  1960  1  0.03917100  0.27685400  0.60027600  1
  N  1967  1  0.96259300  0.77783600  0.59869900  1
  N  1970  1  0.90430400  0.72524400  0.54078700  1
  N  1987  1  0.90320700  0.77737900  0.53938700  1
  N  1988  1  0.96382400  0.72570200  0.59996500  1
  N  1995  1  0.96230300  0.22518200  0.40384500  1
  N  1998  1  0.90441600  0.27750700  0.46239300  1
  N  2015  1  0.90332500  0.22537000  0.46356300  1
  N  2016  1  0.96363200  0.27733400  0.40292200  1
  O  17  1  0.33768300  0.36382500  0.96381500  1
  O  18  1  0.36423600  0.33777000  0.03901600  1
  O  45  1  0.66524900  0.63891200  0.96405000  1
  O  46  1  0.63912000  0.66522800  0.03933400  1
  O  73  1  0.66528200  0.36402200  0.03932800  1
  O  74  1  0.63893200  0.33785100  0.96412300  1
  O  101  1  0.33770600  0.63890100  0.03880500  1
  O  102  1  0.36382700  0.66540900  0.96357100  1
  O  129  1  0.96367200  0.33764700  0.36365300  1
  O  130  1  0.03895300  0.36427200  0.33775000  1
  O  157  1  0.96407600  0.66517900  0.63893900  1
  O  158  1  0.03936900  0.63906400  0.66523300  1
  O  185  1  0.03948700  0.66523100  0.36386800  1
  O  186  1  0.96420800  0.63887400  0.33774600  1
  O  213  1  0.03888400  0.33767200  0.63884800  1
  O  214  1  0.96365400  0.36383600  0.66527100  1
  O  241  1  0.36381800  0.96362100  0.33768300  1
  O  242  1  0.33789500  0.03886300  0.36430800  1
  O  269  1  0.63877100  0.96433100  0.66516600  1
  O  270  1  0.66520800  0.03956600  0.63920900  1
  O  297  1  0.36405700  0.03921900  0.66524400  1
  O  298  1  0.33768100  0.96401600  0.63904000  1
  O  325  1  0.63895300  0.03901400  0.33781500  1
  O  326  1  0.66526600  0.96374800  0.36400800  1
  O  353  1  0.83779700  0.86409700  0.46401700  1
  O  354  1  0.86418900  0.83785500  0.53920100  1
  O  381  1  0.16514500  0.13858700  0.46434100  1
  O  382  1  0.13924500  0.16504600  0.53958700  1
  O  409  1  0.16513800  0.86399400  0.53945400  1
  O  410  1  0.13869000  0.83787200  0.46423800  1
  O  437  1  0.83787000  0.13870100  0.53879000  1
  O  438  1  0.86388500  0.16527800  0.46358300  1
  O  465  1  0.46368400  0.83787700  0.86381500  1
  O  466  1  0.53889100  0.86446100  0.83785900  1
  O  493  1  0.46435000  0.16515300  0.13870600  1
  O  494  1  0.53952700  0.13909500  0.16516600  1
  O  521  1  0.53924800  0.16516300  0.86417300  1
  O  522  1  0.46408600  0.13886300  0.83790100  1
  O  549  1  0.53906000  0.83783000  0.13883700  1
  O  550  1  0.46387600  0.86404300  0.16525100  1
  O  577  1  0.86407000  0.46387100  0.83780700  1
  O  578  1  0.83788300  0.53904000  0.86424400  1
  O  605  1  0.13876300  0.46419100  0.16502000  1
  O  606  1  0.16511600  0.53944400  0.13899600  1
  O  633  1  0.86408600  0.53939500  0.16511800  1
  O  634  1  0.83796600  0.46420600  0.13870400  1
  O  661  1  0.13878100  0.53890000  0.83790400  1
  O  662  1  0.16519000  0.46365900  0.86401200  1
  O  680  1  0.40883300  0.20297400  0.92436700  1
  O  684  1  0.42398000  0.29973500  0.90867100  1
  O  708  1  0.59470700  0.79984800  0.92461500  1
  O  712  1  0.57830200  0.70338300  0.90838300  1
  O  736  1  0.59449400  0.20315500  0.07914800  1
  O  740  1  0.57933900  0.29997800  0.09443600  1
  O  764  1  0.40838400  0.79957700  0.07916600  1
  O  768  1  0.42488900  0.70298900  0.09454400  1
  O  792  1  0.92507600  0.40869900  0.20268200  1
  O  796  1  0.90857500  0.42345900  0.29935500  1
  O  820  1  0.92399900  0.59459300  0.79968500  1
  O  824  1  0.90855100  0.57815300  0.70309500  1
  O  848  1  0.07896200  0.59448800  0.20298800  1
  O  852  1  0.09455500  0.57951500  0.29978400  1
  O  876  1  0.07930100  0.40833900  0.79951100  1
  O  880  1  0.09459100  0.42487800  0.70291800  1
  O  904  1  0.20272200  0.92542200  0.40871500  1
  O  908  1  0.29931700  0.90835900  0.42326500  1
  O  932  1  0.79959300  0.92413500  0.59470200  1
  O  936  1  0.70303000  0.90866000  0.57812400  1
  O  960  1  0.20325800  0.07922800  0.59440100  1
  O  964  1  0.30010800  0.09441400  0.57932500  1
  O  988  1  0.79948600  0.07971100  0.40844400  1
  O  992  1  0.70280600  0.09453600  0.42486400  1
  O  1016  1  0.20305300  0.40863000  0.07772400  1
  O  1020  1  0.29958700  0.42381800  0.09465000  1
  O  1044  1  0.79986300  0.59458800  0.07920000  1
  O  1048  1  0.70311700  0.57902000  0.09452100  1
  O  1072  1  0.20277100  0.59435400  0.92535700  1
  O  1076  1  0.29938200  0.57999100  0.90824000  1
  O  1100  1  0.79978700  0.40857600  0.92423300  1
  O  1104  1  0.70309900  0.42435700  0.90872300  1
  O  1128  1  0.40872100  0.92394700  0.79977600  1
  O  1132  1  0.42410700  0.90877200  0.70296900  1
  O  1156  1  0.59461100  0.92466700  0.20304100  1
  O  1160  1  0.57927900  0.90844400  0.29966300  1
  O  1184  1  0.59440000  0.07907300  0.80009600  1
  O  1188  1  0.57935500  0.09450800  0.70328200  1
  O  1212  1  0.40851800  0.07843700  0.20337600  1
  O  1216  1  0.42499300  0.09468600  0.29983100  1
  O  1240  1  0.92541300  0.20270200  0.59437300  1
  O  1244  1  0.90831400  0.29930300  0.57990400  1
  O  1268  1  0.92409300  0.79956700  0.40852900  1
  O  1272  1  0.90863300  0.70298700  0.42502700  1
  O  1296  1  0.07793700  0.20323100  0.40850300  1
  O  1300  1  0.09484800  0.29962700  0.42467000  1
  O  1324  1  0.07930500  0.79980600  0.59462100  1
  O  1328  1  0.09454500  0.70305000  0.57906200  1
  O  1352  1  0.57438200  0.80069400  0.06492700  1
  O  1356  1  0.56484500  0.70205600  0.07465600  1
  O  1380  1  0.42883400  0.20217300  0.06490900  1
  O  1384  1  0.43832200  0.30084300  0.07436900  1
  O  1408  1  0.42851600  0.80089400  0.93814400  1
  O  1412  1  0.43812900  0.70228400  0.92821700  1
  O  1436  1  0.57461000  0.20209000  0.93826900  1
  O  1440  1  0.56501200  0.30074000  0.92871200  1
  O  1464  1  0.06495400  0.57425200  0.80066100  1
  O  1468  1  0.07478000  0.56481800  0.70202200  1
  O  1492  1  0.06495100  0.42862600  0.20196500  1
  O  1496  1  0.07426500  0.43822300  0.30063700  1
  O  1520  1  0.93814400  0.42866900  0.80065900  1
  O  1524  1  0.92827900  0.43816700  0.70203100  1
  O  1548  1  0.93837900  0.57474200  0.20183300  1
  O  1552  1  0.92882000  0.56505700  0.30047400  1
  O  1576  1  0.80052700  0.06504500  0.57419600  1
  O  1580  1  0.70188200  0.07486800  0.56481100  1
  O  1604  1  0.20213900  0.06492700  0.42868200  1
  O  1608  1  0.30082700  0.07410600  0.43824300  1
  O  1632  1  0.80069000  0.93819400  0.42880000  1
  O  1636  1  0.70205600  0.92831100  0.43822600  1
  O  1660  1  0.20181700  0.93839700  0.57477300  1
  O  1664  1  0.30044500  0.92869000  0.56508800  1
  O  1688  1  0.80093300  0.57440900  0.93829400  1
  O  1692  1  0.70227700  0.56495200  0.92863900  1
  O  1716  1  0.20188200  0.42815200  0.93821400  1
  O  1720  1  0.30051200  0.43800400  0.92874400  1
  O  1744  1  0.80082600  0.42877800  0.06490600  1
  O  1748  1  0.70217800  0.43826100  0.07459800  1
  O  1772  1  0.20172600  0.57486700  0.06469000  1
  O  1776  1  0.30037600  0.56509500  0.07404100  1
  O  1800  1  0.57471500  0.06475100  0.20197400  1
  O  1804  1  0.56511500  0.07439900  0.30061300  1
  O  1828  1  0.42866800  0.06494900  0.80083500  1
  O  1832  1  0.43823700  0.07454300  0.70218500  1
  O  1856  1  0.42851700  0.93817300  0.20219200  1
  O  1860  1  0.43823200  0.92842700  0.30081100  1
  O  1884  1  0.57437700  0.93830100  0.80086700  1
  O  1888  1  0.56491700  0.92886400  0.70219000  1
  O  1912  1  0.06497800  0.80059400  0.42880500  1
  O  1916  1  0.07476500  0.70195900  0.43833500  1
  O  1940  1  0.06480800  0.20166700  0.57490200  1
  O  1944  1  0.07420700  0.30031100  0.56514200  1
  O  1968  1  0.93830100  0.80086700  0.57444900  1
  O  1972  1  0.92858100  0.70221400  0.56505500  1
  O  1996  1  0.93815300  0.20204100  0.42813500  1
  O  2000  1  0.92855000  0.30065000  0.43808900  1
