# generated using pymatgen
data_H13C16N2O
_symmetry_space_group_name_H-M   'P 1'
_cell_length_a   27.51150000
_cell_length_b   57.97270000
_cell_length_c   98.99700000
_cell_angle_alpha   90.00000000
_cell_angle_beta   90.00000000
_cell_angle_gamma   90.00000000
_symmetry_Int_Tables_number   1
_chemical_formula_structural   H13C16N2O
_chemical_formula_sum   'H832 C1024 N128 O64'
_cell_volume   157891.89292114
_cell_formula_units_Z   64
loop_
 _symmetry_equiv_pos_site_id
 _symmetry_equiv_pos_as_xyz
  1  'x, y, z'
loop_
 _atom_site_type_symbol
 _atom_site_label
 _atom_site_symmetry_multiplicity
 _atom_site_fract_x
 _atom_site_fract_y
 _atom_site_fract_z
 _atom_site_occupancy
  H  7  1  0.25732100  0.25679200  0.34225200  1
  H  16  1  0.17646800  0.28728900  0.30504900  1
  H  17  1  0.33171300  0.33070200  0.34989400  1
  H  18  1  0.10773000  0.20943500  0.29536300  1
  H  19  1  0.24883300  0.30491300  0.31027100  1
  H  20  1  0.23094700  0.23109500  0.32755400  1
  H  31  1  0.25740000  0.51952900  0.43531900  1
  H  40  1  0.17682800  0.48882000  0.47253000  1
  H  41  1  0.33199200  0.44564400  0.42761600  1
  H  42  1  0.10793200  0.56654600  0.48240000  1
  H  43  1  0.24921000  0.47130800  0.46725500  1
  H  44  1  0.23094400  0.54513800  0.45006100  1
  H  55  1  0.52614100  0.51971400  0.34278400  1
  H  64  1  0.59799100  0.49006400  0.30461800  1
  H  65  1  0.38626400  0.46953000  0.34022200  1
  H  66  1  0.67054900  0.56721000  0.29494300  1
  H  67  1  0.51835100  0.47579300  0.30877700  1
  H  68  1  0.54687700  0.54663500  0.32736500  1
  H  79  1  0.52618100  0.25662800  0.43461400  1
  H  88  1  0.59833600  0.28605700  0.47277300  1
  H  89  1  0.38648200  0.30691000  0.43730300  1
  H  90  1  0.67072000  0.20878300  0.48227500  1
  H  91  1  0.51870700  0.30042400  0.46868200  1
  H  92  1  0.54682300  0.22960600  0.44999400  1
  H  103  1  0.77038800  0.77041100  0.68518900  1
  H  112  1  0.85119000  0.73998500  0.72241600  1
  H  113  1  0.69608400  0.69645700  0.67759100  1
  H  114  1  0.91976600  0.81786600  0.73210800  1
  H  115  1  0.77879900  0.72235900  0.71720800  1
  H  116  1  0.79665000  0.79614600  0.69989500  1
  H  127  1  0.77100600  0.50732500  0.59236200  1
  H  136  1  0.85095400  0.53716900  0.55454300  1
  H  137  1  0.69671300  0.58139100  0.59971200  1
  H  138  1  0.91198700  0.46310600  0.54117200  1
  H  139  1  0.78004600  0.55525800  0.56029100  1
  H  140  1  0.79857200  0.48159800  0.57803900  1
  H  151  1  0.50184200  0.50736500  0.68474800  1
  H  160  1  0.42999200  0.53716700  0.72288700  1
  H  161  1  0.64150300  0.55771300  0.68719400  1
  H  162  1  0.35718600  0.46007900  0.73259700  1
  H  163  1  0.50959500  0.55141800  0.71869500  1
  H  164  1  0.48097400  0.48051900  0.70018100  1
  H  175  1  0.50161600  0.76980400  0.59277700  1
  H  184  1  0.42966800  0.74027800  0.55461200  1
  H  185  1  0.64187800  0.71989100  0.59006100  1
  H  186  1  0.35667900  0.81746100  0.54518600  1
  H  187  1  0.50953300  0.72604900  0.55870100  1
  H  188  1  0.48092700  0.79678400  0.57738900  1
  H  199  1  0.75749500  0.25789900  0.84216200  1
  H  208  1  0.67669600  0.28855100  0.80497400  1
  H  209  1  0.83243100  0.33165800  0.84985100  1
  H  210  1  0.60748100  0.21076700  0.79532800  1
  H  211  1  0.74911300  0.30612500  0.81023600  1
  H  212  1  0.73097200  0.23228900  0.82746100  1
  H  223  1  0.75764400  0.51964600  0.93535900  1
  H  232  1  0.67664100  0.48891300  0.97252600  1
  H  233  1  0.83194000  0.44563600  0.92767900  1
  H  234  1  0.60793600  0.56666500  0.98240600  1
  H  235  1  0.74880800  0.47132200  0.96722900  1
  H  236  1  0.73084100  0.54520900  0.95005300  1
  H  247  1  0.02704900  0.52056400  0.84298600  1
  H  256  1  0.09784200  0.49161400  0.80424700  1
  H  257  1  0.88719700  0.47038900  0.84025300  1
  H  258  1  0.16284200  0.56504000  0.79095000  1
  H  259  1  0.01919100  0.47694700  0.80884500  1
  H  260  1  0.04837700  0.54758500  0.82786300  1
  H  271  1  0.02628300  0.25680900  0.93457400  1
  H  280  1  0.09823400  0.28613000  0.97277400  1
  H  281  1  0.88639800  0.30697400  0.93727700  1
  H  282  1  0.17059500  0.20884000  0.98224900  1
  H  283  1  0.01844900  0.30043300  0.96871100  1
  H  284  1  0.04675000  0.22971700  0.94995900  1
  H  295  1  0.27027400  0.76930400  0.18529100  1
  H  304  1  0.35099200  0.73869400  0.22249600  1
  H  305  1  0.19536100  0.69551200  0.17763800  1
  H  306  1  0.42002100  0.81650200  0.23217500  1
  H  307  1  0.27851300  0.72113800  0.21725200  1
  H  308  1  0.29665300  0.79494700  0.20001200  1
  H  319  1  0.27080100  0.50715300  0.09235400  1
  H  328  1  0.35086900  0.53707700  0.05456600  1
  H  329  1  0.19648400  0.58120000  0.09974200  1
  H  330  1  0.41207200  0.46305300  0.04118900  1
  H  331  1  0.28000200  0.55516100  0.06032600  1
  H  332  1  0.29854800  0.48146800  0.07804100  1
  H  343  1  0.00071000  0.50666600  0.18450500  1
  H  352  1  0.92989200  0.53567100  0.22323400  1
  H  353  1  0.14048700  0.55690000  0.18721700  1
  H  354  1  0.86474500  0.46228000  0.23653200  1
  H  355  1  0.00850300  0.55033300  0.21862600  1
  H  356  1  0.97926800  0.47967600  0.19962300  1
  H  367  1  0.00146600  0.76962300  0.09284100  1
  H  376  1  0.92963400  0.74017800  0.05464100  1
  H  377  1  0.14170700  0.71969400  0.09013600  1
  H  378  1  0.85675500  0.81738700  0.04522200  1
  H  379  1  0.00951400  0.72595400  0.05873000  1
  H  380  1  0.98086400  0.79664600  0.07745600  1
  H  391  1  0.75810900  0.75594900  0.34188300  1
  H  400  1  0.67751000  0.78703800  0.30471600  1
  H  401  1  0.83093700  0.83037000  0.34995800  1
  H  402  1  0.62884000  0.71080200  0.28946600  1
  H  403  1  0.74933800  0.80468200  0.31022300  1
  H  404  1  0.73197500  0.73034400  0.32697200  1
  H  415  1  0.75844700  0.02042900  0.43569800  1
  H  424  1  0.67710300  0.98885700  0.47233500  1
  H  425  1  0.83162000  0.94620400  0.42744500  1
  H  426  1  0.61779000  0.06858600  0.48376500  1
  H  427  1  0.75024300  0.97159900  0.46731100  1
  H  428  1  0.73351200  0.04598200  0.45095900  1
  H  439  1  0.02479300  0.02069300  0.34238500  1
  H  448  1  0.09734600  0.99008200  0.30478000  1
  H  449  1  0.88572900  0.96995900  0.34039400  1
  H  450  1  0.16090800  0.06924200  0.29359200  1
  H  451  1  0.01703100  0.97607700  0.30869500  1
  H  452  1  0.04424600  0.04753000  0.32646200  1
  H  463  1  0.02539600  0.75553700  0.43503500  1
  H  472  1  0.09684300  0.78588400  0.47312600  1
  H  473  1  0.88678300  0.80656800  0.43691800  1
  H  474  1  0.14992800  0.71021600  0.48828000  1
  H  475  1  0.01758300  0.80018000  0.46871500  1
  H  476  1  0.04565200  0.72873600  0.45071600  1
  H  487  1  0.26963700  0.27124700  0.68558300  1
  H  496  1  0.35009800  0.24019900  0.72277400  1
  H  497  1  0.19680600  0.19681500  0.67753400  1
  H  498  1  0.39867400  0.31644400  0.73803600  1
  H  499  1  0.27821200  0.22257200  0.71728000  1
  H  500  1  0.29561900  0.29688300  0.70051200  1
  H  511  1  0.26966100  0.00616200  0.59196800  1
  H  520  1  0.35015700  0.03708700  0.55477000  1
  H  521  1  0.19670200  0.08052100  0.59998100  1
  H  522  1  0.39919700  0.96078500  0.53970900  1
  H  523  1  0.27815700  0.05474700  0.56022500  1
  H  524  1  0.29548700  0.98047600  0.57705900  1
  H  535  1  0.00296400  0.00645700  0.68513700  1
  H  544  1  0.93040100  0.03717700  0.72272200  1
  H  545  1  0.14186300  0.05731100  0.68703900  1
  H  546  1  0.86673700  0.95804600  0.73393800  1
  H  547  1  0.01065900  0.05119300  0.71877400  1
  H  548  1  0.98342300  0.97968600  0.70106300  1
  H  559  1  0.00232400  0.27082800  0.59243000  1
  H  568  1  0.93107000  0.24038700  0.55431600  1
  H  569  1  0.14132500  0.22004800  0.59052500  1
  H  570  1  0.87754300  0.31603500  0.53922500  1
  H  571  1  0.01034600  0.22615300  0.55876800  1
  H  572  1  0.98184900  0.29756300  0.57677500  1
  H  583  1  0.25822000  0.75714100  0.84182300  1
  H  592  1  0.17771600  0.78838900  0.80465700  1
  H  593  1  0.33151900  0.83142800  0.84995300  1
  H  594  1  0.12865700  0.71218500  0.78942900  1
  H  595  1  0.24952400  0.80598800  0.81022100  1
  H  596  1  0.23182600  0.73163600  0.82692900  1
  H  607  1  0.25865800  0.02061700  0.93571200  1
  H  616  1  0.17724600  0.98894700  0.97232200  1
  H  617  1  0.33198500  0.94643700  0.92742400  1
  H  618  1  0.11772600  0.06863600  0.98376300  1
  H  619  1  0.25033000  0.97169900  0.96727700  1
  H  620  1  0.23351600  0.04611800  0.95096000  1
  H  631  1  0.52562800  0.02161400  0.84257300  1
  H  640  1  0.59715800  0.99163400  0.80443400  1
  H  641  1  0.38661300  0.97087500  0.84044300  1
  H  642  1  0.65042000  0.06744300  0.78955600  1
  H  643  1  0.51768200  0.97731400  0.80874000  1
  H  644  1  0.54560500  0.04859800  0.82694100  1
  H  655  1  0.52557000  0.75572300  0.93498400  1
  H  664  1  0.59691500  0.78597500  0.97311300  1
  H  665  1  0.38698800  0.80677100  0.93686700  1
  H  666  1  0.64984200  0.71027200  0.98824900  1
  H  667  1  0.51765000  0.80028000  0.96870300  1
  H  668  1  0.54572500  0.72887400  0.95066300  1
  H  679  1  0.76947200  0.27005800  0.18562800  1
  H  688  1  0.84991800  0.23890000  0.22281900  1
  H  689  1  0.69626600  0.19572500  0.17755000  1
  H  690  1  0.89885400  0.31513300  0.23802800  1
  H  691  1  0.77809000  0.22129400  0.21727400  1
  H  692  1  0.79574800  0.29561300  0.20052300  1
  H  703  1  0.76942800  0.00602400  0.09192600  1
  H  712  1  0.85022700  0.03697800  0.05476000  1
  H  713  1  0.69665900  0.08044100  0.09994800  1
  H  714  1  0.89921000  0.96066100  0.03970900  1
  H  715  1  0.77839200  0.05469300  0.06023900  1
  H  716  1  0.79554800  0.98037900  0.07705900  1
  H  727  1  0.50228900  0.00545800  0.18498000  1
  H  736  1  0.43076900  0.03560100  0.22309300  1
  H  737  1  0.64111800  0.05634100  0.18698800  1
  H  738  1  0.37736300  0.95985000  0.23803200  1
  H  739  1  0.51020900  0.04990900  0.21874500  1
  H  740  1  0.48218100  0.97856100  0.20062400  1
  H  751  1  0.50219100  0.27062700  0.09244600  1
  H  760  1  0.43109700  0.24029800  0.05429200  1
  H  761  1  0.64129300  0.21991000  0.09053000  1
  H  762  1  0.37761300  0.31597000  0.03923400  1
  H  763  1  0.51049300  0.22610500  0.05872000  1
  H  764  1  0.48187500  0.29743000  0.07678800  1
  H  774  1  0.35123300  0.37131600  0.33811000  1
  H  775  1  0.39349800  0.40630000  0.34054000  1
  H  778  1  0.36531300  0.34927700  0.29243800  1
  H  779  1  0.42527700  0.35870000  0.28970100  1
  H  780  1  0.37499300  0.37618200  0.28497100  1
  H  782  1  0.46651800  0.42243900  0.29813800  1
  H  783  1  0.42081000  0.41134500  0.28769200  1
  H  784  1  0.47174900  0.39414800  0.29221600  1
  H  786  1  0.46968400  0.42501400  0.33259000  1
  H  788  1  0.38055400  0.33156800  0.31819300  1
  H  794  1  0.35154400  0.40492300  0.43938700  1
  H  795  1  0.39385400  0.36996000  0.43698200  1
  H  798  1  0.36592000  0.42716000  0.48501800  1
  H  799  1  0.42592100  0.41776100  0.48772900  1
  H  800  1  0.37569800  0.40029900  0.49253500  1
  H  802  1  0.46708500  0.35396200  0.47937000  1
  H  803  1  0.42150400  0.36512000  0.48983600  1
  H  804  1  0.47240700  0.38228500  0.48524000  1
  H  806  1  0.47013500  0.35132600  0.44493500  1
  H  808  1  0.38095400  0.44470400  0.45921800  1
  H  814  1  0.67672500  0.65588000  0.68938000  1
  H  815  1  0.63453500  0.62087700  0.68693500  1
  H  818  1  0.66210900  0.67799200  0.73502800  1
  H  819  1  0.60213800  0.66854600  0.73772200  1
  H  820  1  0.65240400  0.65109500  0.74250300  1
  H  822  1  0.56112200  0.60477100  0.72928800  1
  H  823  1  0.60668500  0.61591100  0.73976600  1
  H  824  1  0.55575400  0.63307200  0.73518700  1
  H  826  1  0.55821800  0.60218000  0.69484600  1
  H  828  1  0.64713000  0.69565000  0.70926600  1
  H  834  1  0.67848800  0.62204100  0.58783900  1
  H  835  1  0.63601800  0.65695400  0.59027300  1
  H  838  1  0.66260400  0.59944100  0.54231000  1
  H  839  1  0.60244000  0.60872500  0.53974500  1
  H  840  1  0.65236100  0.62622800  0.53475400  1
  H  842  1  0.56117700  0.67253600  0.54805300  1
  H  843  1  0.60640900  0.66134100  0.53748600  1
  H  844  1  0.55577600  0.64415300  0.54228000  1
  H  846  1  0.55905800  0.67526100  0.58246900  1
  H  848  1  0.64834400  0.58206900  0.56808600  1
  H  854  1  0.85187700  0.37238700  0.83807400  1
  H  855  1  0.89423800  0.40734500  0.84050000  1
  H  858  1  0.86581300  0.35035300  0.79239800  1
  H  859  1  0.92577000  0.35977100  0.78964500  1
  H  860  1  0.87547900  0.37726200  0.78493200  1
  H  862  1  0.96706200  0.42351000  0.79808200  1
  H  863  1  0.92134300  0.41240500  0.78764400  1
  H  864  1  0.97230700  0.39521700  0.79215800  1
  H  866  1  0.97051200  0.42596300  0.83254500  1
  H  868  1  0.88102200  0.33262600  0.81812600  1
  H  874  1  0.85073600  0.40479600  0.93948600  1
  H  875  1  0.89308900  0.36984100  0.93708600  1
  H  878  1  0.86562400  0.42719800  0.98507700  1
  H  879  1  0.92567600  0.41783600  0.98774500  1
  H  880  1  0.87554400  0.40037000  0.99261600  1
  H  882  1  0.96683700  0.35401500  0.97942300  1
  H  883  1  0.92140500  0.36521900  0.98992200  1
  H  884  1  0.97224200  0.38236800  0.98524500  1
  H  886  1  0.96973700  0.35140500  0.94500700  1
  H  888  1  0.88048700  0.44465900  0.95931900  1
  H  894  1  0.17593100  0.65485300  0.18942000  1
  H  895  1  0.13359300  0.61988300  0.18699100  1
  H  898  1  0.16167300  0.67695200  0.23508400  1
  H  899  1  0.10171300  0.66752300  0.23781800  1
  H  900  1  0.15200000  0.65004900  0.24255400  1
  H  902  1  0.06051300  0.60377100  0.22938100  1
  H  903  1  0.10615600  0.61490000  0.23983500  1
  H  904  1  0.05519700  0.63207000  0.23529200  1
  H  906  1  0.05719200  0.60131300  0.19492400  1
  H  908  1  0.14665600  0.69465800  0.20936700  1
  H  914  1  0.17832700  0.62190000  0.08786600  1
  H  915  1  0.13584100  0.65680800  0.09029600  1
  H  918  1  0.16263300  0.59933700  0.04232400  1
  H  919  1  0.10248200  0.60862600  0.03974100  1
  H  920  1  0.15242800  0.62613300  0.03477300  1
  H  922  1  0.06119400  0.67243100  0.04805700  1
  H  923  1  0.10646200  0.66123900  0.03750100  1
  H  924  1  0.05580000  0.64405300  0.04227400  1
  H  926  1  0.05887500  0.67510100  0.08246800  1
  H  928  1  0.14827400  0.58194100  0.06808200  1
  H  934  1  0.85090700  0.87131700  0.33839200  1
  H  935  1  0.89275500  0.90642300  0.34078600  1
  H  938  1  0.86467200  0.84935000  0.29270900  1
  H  939  1  0.92452000  0.85889800  0.28992400  1
  H  940  1  0.87402800  0.87628000  0.28524000  1
  H  942  1  0.96529600  0.92270200  0.29833100  1
  H  943  1  0.91954400  0.91154100  0.28792500  1
  H  944  1  0.97065300  0.89442500  0.29240600  1
  H  946  1  0.96838500  0.92545800  0.33283600  1
  H  948  1  0.88044400  0.83164700  0.31849700  1
  H  954  1  0.85244500  0.90516600  0.43894200  1
  H  955  1  0.89431100  0.87007700  0.43655500  1
  H  958  1  0.86546500  0.92697100  0.48466500  1
  H  959  1  0.92524700  0.91738200  0.48751000  1
  H  960  1  0.87464600  0.90002400  0.49213400  1
  H  962  1  0.96596400  0.85356100  0.47909500  1
  H  963  1  0.92007800  0.86471900  0.48945800  1
  H  964  1  0.97130400  0.88181700  0.48505800  1
  H  966  1  0.96965000  0.85093200  0.44458900  1
  H  968  1  0.88156300  0.94468600  0.45879900  1
  H  974  1  0.17671700  0.15596800  0.68906900  1
  H  975  1  0.13489700  0.12084800  0.68666200  1
  H  978  1  0.16284700  0.17789200  0.73476300  1
  H  979  1  0.10301200  0.16832700  0.73754500  1
  H  980  1  0.15352300  0.15095500  0.74222500  1
  H  982  1  0.06230200  0.10452200  0.72910700  1
  H  983  1  0.10804300  0.11567800  0.73952100  1
  H  984  1  0.05692100  0.13279000  0.73504400  1
  H  986  1  0.05927500  0.10178500  0.69459800  1
  H  988  1  0.14713300  0.19561300  0.70896800  1
  H  994  1  0.17643500  0.12142000  0.58846100  1
  H  995  1  0.13450300  0.15648300  0.59087700  1
  H  998  1  0.16267100  0.09949500  0.54277500  1
  H  999  1  0.10280600  0.10903200  0.54000600  1
  H  1000  1  0.15326500  0.12641600  0.53529700  1
  H  1002  1  0.06204000  0.17284700  0.54842200  1
  H  1003  1  0.10777400  0.16169400  0.53800500  1
  H  1004  1  0.05668000  0.14457100  0.54249000  1
  H  1006  1  0.05890100  0.17552400  0.58293000  1
  H  1008  1  0.14695200  0.08183400  0.56864900  1
  H  1014  1  0.35141200  0.87249700  0.83836700  1
  H  1015  1  0.39338900  0.90757200  0.84074700  1
  H  1018  1  0.36510200  0.85047000  0.79269100  1
  H  1019  1  0.42496500  0.85998600  0.78989800  1
  H  1020  1  0.37449800  0.87738600  0.78521200  1
  H  1022  1  0.46586000  0.92379000  0.79828200  1
  H  1023  1  0.42011200  0.91261400  0.78788000  1
  H  1024  1  0.47121400  0.89550100  0.79237000  1
  H  1026  1  0.46920100  0.92646200  0.83278200  1
  H  1028  1  0.38079400  0.83277800  0.81845200  1
  H  1034  1  0.35272700  0.90533300  0.93891400  1
  H  1035  1  0.39460300  0.87024400  0.93653600  1
  H  1038  1  0.36545500  0.92709400  0.98465100  1
  H  1039  1  0.42521200  0.91749400  0.98752300  1
  H  1040  1  0.37457500  0.90013800  0.99211500  1
  H  1042  1  0.46595500  0.85367600  0.97910700  1
  H  1043  1  0.42001400  0.86483100  0.98945000  1
  H  1044  1  0.47128000  0.88192600  0.98508300  1
  H  1046  1  0.46989500  0.85109700  0.94460200  1
  H  1048  1  0.38171000  0.94483500  0.95880400  1
  H  1054  1  0.67652200  0.15470100  0.18913200  1
  H  1055  1  0.63461900  0.11961000  0.18673200  1
  H  1058  1  0.66230900  0.17678700  0.23478700  1
  H  1059  1  0.60243600  0.16724700  0.23753500  1
  H  1060  1  0.65288000  0.14987500  0.24227100  1
  H  1062  1  0.56175100  0.10341400  0.22914800  1
  H  1063  1  0.60736500  0.11462600  0.23958200  1
  H  1064  1  0.55627700  0.13171100  0.23504200  1
  H  1066  1  0.55870200  0.10072100  0.19465400  1
  H  1068  1  0.64686800  0.19443500  0.20901400  1
  H  1074  1  0.67686000  0.12144300  0.08838000  1
  H  1075  1  0.63488400  0.15649800  0.09078300  1
  H  1078  1  0.66289400  0.09940700  0.04271700  1
  H  1079  1  0.60300300  0.10892400  0.03996100  1
  H  1080  1  0.65342200  0.12631000  0.03522200  1
  H  1082  1  0.56222700  0.17275600  0.04834400  1
  H  1083  1  0.60788500  0.16156800  0.03791700  1
  H  1084  1  0.55681500  0.14446100  0.04244200  1
  H  1086  1  0.55904000  0.17539600  0.08283700  1
  H  1088  1  0.64722500  0.08180000  0.06855500  1
  H  1094  1  0.02807600  0.25077300  0.23996200  1
  H  1095  1  0.09298200  0.25393900  0.25541900  1
  H  1098  1  0.88311900  0.26113000  0.26484700  1
  H  1099  1  0.90527700  0.27879500  0.27772100  1
  H  1100  1  0.90172600  0.24843300  0.28004600  1
  H  1102  1  0.02098700  0.26522000  0.29891400  1
  H  1103  1  0.96817400  0.24950900  0.29578500  1
  H  1104  1  0.96914100  0.28000300  0.29385700  1
  H  1106  1  0.10872600  0.23957800  0.27890300  1
  H  1108  1  0.92333900  0.23357900  0.24378600  1
  H  1114  1  0.02820500  0.52434700  0.53771400  1
  H  1115  1  0.09323500  0.52137100  0.52227300  1
  H  1118  1  0.88339200  0.51485600  0.51263700  1
  H  1119  1  0.90562200  0.49774000  0.49953200  1
  H  1120  1  0.90208600  0.52818500  0.49762400  1
  H  1122  1  0.02144600  0.51188800  0.47859100  1
  H  1123  1  0.96862200  0.52745700  0.48190800  1
  H  1124  1  0.96958800  0.49690100  0.48344800  1
  H  1126  1  0.10921300  0.53634100  0.49882800  1
  H  1128  1  0.91994400  0.54141000  0.53293200  1
  H  1134  1  0.75060300  0.52416200  0.23974100  1
  H  1135  1  0.68501600  0.52175400  0.25504500  1
  H  1138  1  0.89434700  0.51385800  0.26517300  1
  H  1139  1  0.87121500  0.49697900  0.27826200  1
  H  1140  1  0.87555500  0.52741400  0.28010800  1
  H  1142  1  0.75511800  0.51197600  0.29888800  1
  H  1143  1  0.80849900  0.52719300  0.29567800  1
  H  1144  1  0.80672200  0.49664300  0.29418800  1
  H  1146  1  0.66897200  0.53704600  0.27848900  1
  H  1148  1  0.85909300  0.54060100  0.24473600  1
  H  1154  1  0.75083600  0.25095600  0.53752700  1
  H  1155  1  0.68534000  0.25355400  0.52223000  1
  H  1158  1  0.89462300  0.26214900  0.51225300  1
  H  1159  1  0.87153500  0.27952300  0.49937100  1
  H  1160  1  0.87586000  0.24916000  0.49715200  1
  H  1162  1  0.75544900  0.26504900  0.47854000  1
  H  1163  1  0.80884500  0.24971400  0.48157100  1
  H  1164  1  0.80705300  0.28021100  0.48341300  1
  H  1166  1  0.66949500  0.23887600  0.49875200  1
  H  1168  1  0.85570500  0.23436200  0.53347900  1
  H  1174  1  0.99950700  0.77651200  0.78751100  1
  H  1175  1  0.93460700  0.77334200  0.77205100  1
  H  1178  1  0.14448500  0.76624900  0.76262200  1
  H  1179  1  0.12235900  0.74860300  0.74973700  1
  H  1180  1  0.12585900  0.77897000  0.74743200  1
  H  1182  1  0.00663100  0.76217500  0.72855000  1
  H  1183  1  0.05942200  0.77789400  0.73169200  1
  H  1184  1  0.05849600  0.74739500  0.73359800  1
  H  1186  1  0.91883900  0.78772300  0.74856600  1
  H  1188  1  0.10423700  0.79374600  0.78369500  1
  H  1194  1  0.27722500  0.50309900  0.78776800  1
  H  1195  1  0.34282900  0.50550000  0.77247700  1
  H  1198  1  0.13354200  0.51353000  0.76232900  1
  H  1199  1  0.15671000  0.53042200  0.74924900  1
  H  1200  1  0.15234200  0.49999200  0.74739000  1
  H  1202  1  0.27283500  0.51542900  0.72863200  1
  H  1203  1  0.21942700  0.50021800  0.73182500  1
  H  1204  1  0.22123700  0.53076600  0.73333500  1
  H  1206  1  0.35884900  0.49024800  0.74903700  1
  H  1208  1  0.16899800  0.48666900  0.78280900  1
  H  1214  1  0.27691300  0.77504600  0.48987800  1
  H  1215  1  0.34242000  0.77244300  0.50518500  1
  H  1218  1  0.13301400  0.76462400  0.51522200  1
  H  1219  1  0.15590400  0.74733000  0.52816800  1
  H  1220  1  0.15199000  0.77772800  0.53026800  1
  H  1222  1  0.27223000  0.76172100  0.54892600  1
  H  1223  1  0.21903300  0.77717600  0.54583500  1
  H  1224  1  0.22040300  0.74665300  0.54412800  1
  H  1226  1  0.35830000  0.78741900  0.52866700  1
  H  1228  1  0.17192900  0.79191300  0.49390900  1
  H  1234  1  0.52818300  0.25236500  0.73988900  1
  H  1235  1  0.59306500  0.25551900  0.75535300  1
  H  1238  1  0.38312000  0.26196300  0.76483600  1
  H  1239  1  0.40504600  0.27947500  0.77781000  1
  H  1240  1  0.40193100  0.24906400  0.77995800  1
  H  1242  1  0.52100100  0.26592000  0.79891000  1
  H  1243  1  0.46837900  0.25011600  0.79569300  1
  H  1244  1  0.46895000  0.28064300  0.79394600  1
  H  1246  1  0.60879000  0.24086200  0.77883700  1
  H  1248  1  0.42359400  0.23486200  0.74366000  1
  H  1254  1  0.52803800  0.52439500  0.03772300  1
  H  1255  1  0.59308000  0.52147000  0.02227300  1
  H  1258  1  0.38324400  0.51480100  0.01264700  1
  H  1259  1  0.40555100  0.49769600  0.99955100  1
  H  1260  1  0.40186200  0.52813700  0.99763300  1
  H  1262  1  0.52128100  0.51196200  0.97859700  1
  H  1263  1  0.46838600  0.52747400  0.98191500  1
  H  1264  1  0.46950200  0.49692000  0.98345900  1
  H  1266  1  0.60908400  0.53643900  0.99882900  1
  H  1268  1  0.41943200  0.54131900  0.03290100  1
  H  1274  1  0.25081400  0.25094400  0.03751000  1
  H  1275  1  0.18530200  0.25356900  0.02222000  1
  H  1278  1  0.39458500  0.26212900  0.01223300  1
  H  1279  1  0.37150300  0.27951400  0.99935300  1
  H  1280  1  0.37578900  0.24915200  0.99712700  1
  H  1282  1  0.25537500  0.26508500  0.97852800  1
  H  1283  1  0.30875700  0.24973500  0.98155100  1
  H  1284  1  0.30700300  0.28023200  0.98340100  1
  H  1286  1  0.16942300  0.23891600  0.99873500  1
  H  1288  1  0.35565000  0.23431900  0.03344600  1
  H  1294  1  0.49945000  0.77480600  0.28760500  1
  H  1295  1  0.43456100  0.77165000  0.27213500  1
  H  1298  1  0.64453500  0.76540900  0.26264200  1
  H  1299  1  0.62264900  0.74791400  0.24965500  1
  H  1300  1  0.62568500  0.77833200  0.24753200  1
  H  1302  1  0.50666100  0.76145500  0.22856700  1
  H  1303  1  0.55924000  0.77728300  0.23179900  1
  H  1304  1  0.55875600  0.74675200  0.23351700  1
  H  1306  1  0.41876400  0.78637600  0.24865600  1
  H  1308  1  0.60420600  0.79237800  0.28380500  1
  H  1314  1  0.77701100  0.77503400  0.98989600  1
  H  1315  1  0.84248500  0.77241700  0.00520600  1
  H  1318  1  0.63307400  0.76460000  0.01521800  1
  H  1319  1  0.65591900  0.74733800  0.02818600  1
  H  1320  1  0.65203400  0.77774400  0.03025500  1
  H  1322  1  0.77223800  0.76172900  0.04894200  1
  H  1323  1  0.71904200  0.77717800  0.04583500  1
  H  1324  1  0.72041600  0.74665200  0.04414600  1
  H  1326  1  0.85831500  0.78736600  0.02869500  1
  H  1328  1  0.67218200  0.79194500  0.99391100  1
  H  1334  1  0.52779100  0.02325000  0.53805800  1
  H  1335  1  0.59344300  0.01991500  0.52285400  1
  H  1338  1  0.38384400  0.01649900  0.51231900  1
  H  1339  1  0.40564900  0.99923100  0.49922100  1
  H  1340  1  0.40421700  0.02974100  0.49745400  1
  H  1342  1  0.52345100  0.01208500  0.47882600  1
  H  1343  1  0.47164700  0.02851000  0.48201000  1
  H  1344  1  0.47026600  0.99793400  0.48337900  1
  H  1346  1  0.61132700  0.03553600  0.49973300  1
  H  1348  1  0.42256200  0.04210800  0.53349900  1
  H  1354  1  0.25092000  0.02307400  0.23943600  1
  H  1355  1  0.18467800  0.02031900  0.25447500  1
  H  1358  1  0.39377400  0.01537400  0.26554200  1
  H  1359  1  0.37100900  0.99838400  0.27863800  1
  H  1360  1  0.37329500  0.02889700  0.28031200  1
  H  1362  1  0.25286300  0.01216600  0.29867800  1
  H  1363  1  0.30531000  0.02820000  0.29559700  1
  H  1364  1  0.30577600  0.99761300  0.29430100  1
  H  1366  1  0.16679700  0.03624100  0.27759400  1
  H  1368  1  0.35614700  0.04130900  0.24417700  1
  H  1374  1  0.77690500  0.00420900  0.78809800  1
  H  1375  1  0.84313200  0.00697900  0.77304700  1
  H  1378  1  0.63401200  0.01194200  0.76201000  1
  H  1379  1  0.65677300  0.02897700  0.74893400  1
  H  1380  1  0.65445800  0.99847000  0.74722200  1
  H  1382  1  0.77486600  0.01523900  0.72886100  1
  H  1383  1  0.72243300  0.99918800  0.73193000  1
  H  1384  1  0.72195300  0.02977100  0.73326100  1
  H  1386  1  0.86100500  0.99107000  0.74992900  1
  H  1388  1  0.67151300  0.98600400  0.78333200  1
  H  1394  1  0.02790000  0.02320900  0.03805200  1
  H  1395  1  0.09353800  0.01993800  0.02284800  1
  H  1398  1  0.88394800  0.01635100  0.01232400  1
  H  1399  1  0.90579000  0.99913100  0.99920900  1
  H  1400  1  0.90426700  0.02964400  0.99746800  1
  H  1402  1  0.02354900  0.01210400  0.97881800  1
  H  1403  1  0.97168600  0.02847800  0.98201700  1
  H  1404  1  0.97041700  0.99789900  0.98336500  1
  H  1406  1  0.11130600  0.03558400  0.99972800  1
  H  1408  1  0.92282200  0.04202100  0.03354500  1
  H  1414  1  0.07934300  0.16898300  0.31706300  1
  H  1415  1  0.05071600  0.13122700  0.32149900  1
  H  1418  1  0.25132600  0.16491600  0.31616200  1
  H  1419  1  0.25737100  0.13621600  0.31086600  1
  H  1420  1  0.26002300  0.14344000  0.32829700  1
  H  1422  1  0.19070400  0.08505600  0.32948400  1
  H  1423  1  0.23138800  0.10653300  0.33412700  1
  H  1424  1  0.22831200  0.09730100  0.31703200  1
  H  1426  1  0.07415300  0.09050600  0.33188100  1
  H  1428  1  0.17464200  0.18378700  0.30311600  1
  H  1434  1  0.07924300  0.60701500  0.46054500  1
  H  1435  1  0.05050800  0.64478600  0.45617500  1
  H  1438  1  0.25119800  0.61124800  0.46169700  1
  H  1439  1  0.25695000  0.63984400  0.46721300  1
  H  1440  1  0.26007400  0.63298800  0.44973700  1
  H  1442  1  0.19045900  0.69130800  0.44882600  1
  H  1443  1  0.23137700  0.66998600  0.44407500  1
  H  1444  1  0.22781800  0.67880600  0.46123900  1
  H  1446  1  0.07574500  0.68585100  0.44558300  1
  H  1448  1  0.17451900  0.59228900  0.47461100  1
  H  1454  1  0.70007900  0.60814000  0.31676200  1
  H  1455  1  0.72873200  0.64588400  0.32129300  1
  H  1458  1  0.52807400  0.61224900  0.31579800  1
  H  1459  1  0.52212000  0.64093800  0.31047200  1
  H  1460  1  0.51932900  0.63375700  0.32790700  1
  H  1462  1  0.58867800  0.69213500  0.32906500  1
  H  1463  1  0.54791300  0.67069200  0.33372300  1
  H  1464  1  0.55121400  0.67982000  0.31661100  1
  H  1466  1  0.70341600  0.68683200  0.33209000  1
  H  1468  1  0.60485700  0.59345500  0.30272900  1
  H  1474  1  0.69997700  0.16780300  0.46074700  1
  H  1475  1  0.72850700  0.13006300  0.45622500  1
  H  1478  1  0.52796500  0.16398600  0.46119400  1
  H  1479  1  0.52158600  0.13523400  0.46636100  1
  H  1480  1  0.51946700  0.14266600  0.44895400  1
  H  1482  1  0.58846000  0.08420200  0.44767700  1
  H  1483  1  0.54805500  0.10579500  0.44303300  1
  H  1484  1  0.55057400  0.09635200  0.46009600  1
  H  1486  1  0.70502600  0.08947500  0.44555700  1
  H  1488  1  0.60480600  0.18260200  0.47451700  1
  H  1494  1  0.94814300  0.85826600  0.71041500  1
  H  1495  1  0.97681800  0.89602200  0.70600200  1
  H  1498  1  0.77616400  0.86237900  0.71130500  1
  H  1499  1  0.77014800  0.89107000  0.71662100  1
  H  1500  1  0.76749400  0.88388200  0.69918500  1
  H  1502  1  0.83689100  0.94224900  0.69803800  1
  H  1503  1  0.79618100  0.92079200  0.69337800  1
  H  1504  1  0.79925900  0.92999000  0.71047900  1
  H  1506  1  0.95340600  0.93676500  0.69562700  1
  H  1508  1  0.85279700  0.84348000  0.72434600  1
  H  1514  1  0.94789600  0.41903400  0.56689700  1
  H  1515  1  0.97664000  0.38131200  0.57139600  1
  H  1518  1  0.77597100  0.41477300  0.56567200  1
  H  1519  1  0.77025700  0.38613400  0.56022200  1
  H  1520  1  0.76698600  0.39311300  0.57767900  1
  H  1522  1  0.83670900  0.33479900  0.57875900  1
  H  1523  1  0.79570800  0.35613200  0.58345400  1
  H  1524  1  0.79939400  0.34722200  0.56630800  1
  H  1526  1  0.95114200  0.34023300  0.58205500  1
  H  1528  1  0.85376400  0.43364200  0.55265800  1
  H  1534  1  0.32754400  0.41910100  0.71082000  1
  H  1535  1  0.29885000  0.38137100  0.70626600  1
  H  1538  1  0.49954800  0.41496600  0.71173400  1
  H  1539  1  0.50550900  0.38626300  0.71703100  1
  H  1540  1  0.50823900  0.39349100  0.69960100  1
  H  1542  1  0.43885000  0.33512000  0.69841700  1
  H  1543  1  0.47961100  0.35656800  0.69376500  1
  H  1544  1  0.47636500  0.34740200  0.71087100  1
  H  1546  1  0.32410800  0.34044700  0.69542400  1
  H  1548  1  0.42273300  0.43376800  0.72483000  1
  H  1554  1  0.32751100  0.85828200  0.56691800  1
  H  1555  1  0.29884200  0.89601200  0.57145800  1
  H  1558  1  0.49950800  0.86238400  0.56602000  1
  H  1559  1  0.50547300  0.89107700  0.56069900  1
  H  1560  1  0.50825000  0.88388900  0.57813400  1
  H  1562  1  0.43885300  0.94225600  0.57931000  1
  H  1563  1  0.47962200  0.92081300  0.58396700  1
  H  1564  1  0.47635800  0.92996000  0.56685800  1
  H  1566  1  0.32410500  0.93696500  0.58227600  1
  H  1568  1  0.42267500  0.84365900  0.55289800  1
  H  1574  1  0.57919100  0.17043200  0.81718700  1
  H  1575  1  0.55045400  0.13267800  0.82161800  1
  H  1578  1  0.75114500  0.16614800  0.81591600  1
  H  1579  1  0.75683700  0.13751800  0.81045800  1
  H  1580  1  0.76005800  0.14447900  0.82791800  1
  H  1582  1  0.69041000  0.08617500  0.82896800  1
  H  1583  1  0.73138200  0.10751500  0.83365100  1
  H  1584  1  0.72770000  0.09859100  0.81650700  1
  H  1586  1  0.57558900  0.09161900  0.83216000  1
  H  1588  1  0.67446100  0.18510600  0.80303700  1
  H  1594  1  0.57923800  0.60711400  0.96050100  1
  H  1595  1  0.55052000  0.64488300  0.95612000  1
  H  1598  1  0.75119200  0.61134300  0.96169100  1
  H  1599  1  0.75692800  0.63993900  0.96720900  1
  H  1600  1  0.76010100  0.63308400  0.94973400  1
  H  1602  1  0.69049400  0.69140500  0.94880800  1
  H  1603  1  0.73142600  0.67008300  0.94406500  1
  H  1604  1  0.72781600  0.67890100  0.96122900  1
  H  1606  1  0.57581100  0.68595100  0.94552900  1
  H  1608  1  0.67452200  0.59239600  0.97459200  1
  H  1614  1  0.19973900  0.60971100  0.81655500  1
  H  1615  1  0.22836300  0.64740000  0.82124200  1
  H  1618  1  0.02775500  0.61379300  0.81556800  1
  H  1619  1  0.02177100  0.64254100  0.81035200  1
  H  1620  1  0.01891000  0.63516600  0.82775900  1
  H  1622  1  0.08828900  0.69356500  0.82912800  1
  H  1623  1  0.04748900  0.67208400  0.83371900  1
  H  1624  1  0.05083700  0.68135700  0.81663400  1
  H  1626  1  0.20278800  0.68831900  0.83215500  1
  H  1628  1  0.10597500  0.59508500  0.80237000  1
  H  1634  1  0.19983600  0.16790100  0.96070900  1
  H  1635  1  0.22838900  0.13016100  0.95620000  1
  H  1638  1  0.02782600  0.16405500  0.96117300  1
  H  1639  1  0.02147600  0.13530800  0.96635300  1
  H  1640  1  0.01933200  0.14271800  0.94894300  1
  H  1642  1  0.08836900  0.08426600  0.94768300  1
  H  1643  1  0.04794100  0.10584700  0.94303400  1
  H  1644  1  0.05048700  0.09642400  0.96010000  1
  H  1646  1  0.20492000  0.08955700  0.94555000  1
  H  1648  1  0.10462300  0.18268600  0.97448300  1
  H  1654  1  0.44830800  0.85677900  0.21032700  1
  H  1655  1  0.47712100  0.89453200  0.20591600  1
  H  1658  1  0.27635400  0.86114500  0.21160700  1
  H  1659  1  0.27071200  0.88976900  0.21708100  1
  H  1660  1  0.26749500  0.88283800  0.19961700  1
  H  1662  1  0.33725500  0.94111700  0.19861200  1
  H  1663  1  0.29623800  0.91980600  0.19391400  1
  H  1664  1  0.29994100  0.92869100  0.21106300  1
  H  1666  1  0.45200800  0.93562300  0.19539400  1
  H  1668  1  0.35291900  0.84212100  0.22446600  1
  H  1674  1  0.44798400  0.41893400  0.06689600  1
  H  1675  1  0.47672100  0.38121200  0.07139800  1
  H  1678  1  0.27605800  0.41468200  0.06567500  1
  H  1679  1  0.27033500  0.38604200  0.06023100  1
  H  1680  1  0.26707400  0.39303000  0.07768700  1
  H  1682  1  0.33678200  0.33471100  0.07877100  1
  H  1683  1  0.29578900  0.35604700  0.08346500  1
  H  1684  1  0.29946400  0.34713100  0.06632000  1
  H  1686  1  0.45124100  0.34014100  0.08205900  1
  H  1688  1  0.35388800  0.43355200  0.05265800  1
  H  1694  1  0.82778600  0.41757900  0.21093600  1
  H  1695  1  0.79915800  0.37989400  0.20624000  1
  H  1698  1  0.99976900  0.41349500  0.21191700  1
  H  1699  1  0.00575100  0.38474300  0.21712300  1
  H  1700  1  0.00860800  0.39213500  0.19971800  1
  H  1702  1  0.93922700  0.33373800  0.19833100  1
  H  1703  1  0.98002400  0.35522400  0.19374700  1
  H  1704  1  0.97668400  0.34593200  0.21082900  1
  H  1706  1  0.82470000  0.33899100  0.19531400  1
  H  1708  1  0.92151400  0.43220500  0.22511900  1
  H  1714  1  0.82756800  0.85817100  0.06698100  1
  H  1715  1  0.79889200  0.89590800  0.07150100  1
  H  1718  1  0.99956100  0.86229100  0.06605000  1
  H  1719  1  0.00549700  0.89097700  0.06071400  1
  H  1720  1  0.00831800  0.88381500  0.07815100  1
  H  1722  1  0.93889900  0.94217100  0.07931700  1
  H  1723  1  0.97969000  0.92073900  0.08397300  1
  H  1724  1  0.97638200  0.92986900  0.06686100  1
  H  1726  1  0.82409300  0.93687600  0.08227500  1
  H  1728  1  0.92277500  0.84355200  0.05295200  1
  H  1734  1  0.42113700  0.23183000  0.39668800  1
  H  1735  1  0.36589500  0.23209000  0.37841200  1
  H  1738  1  0.46433400  0.31004100  0.40363700  1
  H  1739  1  0.40450000  0.32082000  0.40506600  1
  H  1740  1  0.43751200  0.32285600  0.38969300  1
  H  1742  1  0.31208800  0.30956600  0.37468500  1
  H  1743  1  0.37026000  0.32238600  0.37406900  1
  H  1744  1  0.33651200  0.32112700  0.38934400  1
  H  1746  1  0.30287400  0.25236900  0.36546100  1
  H  1748  1  0.48548100  0.25452500  0.40977800  1
  H  1754  1  0.42063500  0.54467900  0.38070900  1
  H  1755  1  0.36553500  0.54436700  0.39901800  1
  H  1758  1  0.46476300  0.46655800  0.37390200  1
  H  1759  1  0.40504600  0.45562500  0.37247900  1
  H  1760  1  0.43805700  0.45372700  0.38785800  1
  H  1762  1  0.31254500  0.46678900  0.40286100  1
  H  1763  1  0.37086700  0.45411900  0.40351600  1
  H  1764  1  0.33714000  0.45520200  0.38823400  1
  H  1766  1  0.30286100  0.52400400  0.41205100  1
  H  1768  1  0.48513200  0.52209900  0.36761000  1
  H  1774  1  0.60646300  0.79497800  0.63064200  1
  H  1775  1  0.66161100  0.79489000  0.64894000  1
  H  1778  1  0.56390700  0.71666300  0.62379400  1
  H  1779  1  0.62384500  0.70600300  0.62237700  1
  H  1780  1  0.59083400  0.70393800  0.63775000  1
  H  1782  1  0.71602900  0.71752900  0.65279100  1
  H  1783  1  0.65795800  0.70460100  0.65339800  1
  H  1784  1  0.69178100  0.70587400  0.63813600  1
  H  1786  1  0.72473100  0.77477900  0.66194700  1
  H  1788  1  0.54238100  0.77211900  0.61755300  1
  H  1794  1  0.60938600  0.48218600  0.64717200  1
  H  1795  1  0.66445700  0.48267600  0.62885800  1
  H  1798  1  0.56087500  0.55986900  0.65320800  1
  H  1799  1  0.61999600  0.57150700  0.65466300  1
  H  1800  1  0.58724200  0.57276300  0.63921800  1
  H  1802  1  0.71339300  0.56075000  0.62439800  1
  H  1803  1  0.65432700  0.57259000  0.62341400  1
  H  1804  1  0.68755300  0.57254700  0.63879300  1
  H  1806  1  0.72617000  0.50340400  0.61568800  1
  H  1808  1  0.54372200  0.50436300  0.66010100  1
  H  1814  1  0.92073600  0.23227700  0.89656600  1
  H  1815  1  0.86558400  0.23279200  0.87827000  1
  H  1818  1  0.96512100  0.31030800  0.90362100  1
  H  1819  1  0.90544400  0.32128100  0.90504900  1
  H  1820  1  0.93854000  0.32327500  0.88968800  1
  H  1822  1  0.81298500  0.31046300  0.87462600  1
  H  1823  1  0.87137800  0.32306100  0.87400300  1
  H  1824  1  0.83763300  0.32192100  0.88928100  1
  H  1826  1  0.80292300  0.25333300  0.86532900  1
  H  1828  1  0.98540400  0.25472000  0.90970500  1
  H  1834  1  0.91922800  0.54539000  0.88061300  1
  H  1835  1  0.86411600  0.54470300  0.89891500  1
  H  1838  1  0.96744000  0.46773100  0.87423200  1
  H  1839  1  0.90826500  0.45618200  0.87270800  1
  H  1840  1  0.94096800  0.45467800  0.88815300  1
  H  1842  1  0.81488200  0.46662300  0.90302500  1
  H  1843  1  0.87388600  0.45469500  0.90393600  1
  H  1844  1  0.84062400  0.45500700  0.88856300  1
  H  1846  1  0.80239600  0.52384200  0.91201500  1
  H  1848  1  0.98489500  0.52335300  0.86762300  1
  H  1854  1  0.10685500  0.79453500  0.13077300  1
  H  1855  1  0.16194600  0.79420000  0.14908500  1
  H  1858  1  0.06306200  0.71639600  0.12385100  1
  H  1859  1  0.12283200  0.70553200  0.12242300  1
  H  1860  1  0.08978900  0.70353000  0.13779300  1
  H  1862  1  0.21517000  0.71664400  0.15285500  1
  H  1863  1  0.15688400  0.70393500  0.15347900  1
  H  1864  1  0.19066400  0.70508900  0.13820700  1
  H  1866  1  0.22470400  0.77383300  0.16208800  1
  H  1868  1  0.04244000  0.77193300  0.11764700  1
  H  1874  1  0.10903100  0.48170800  0.14703500  1
  H  1875  1  0.16429300  0.48234300  0.12876800  1
  H  1878  1  0.05997200  0.55930300  0.15313700  1
  H  1879  1  0.11902100  0.57099800  0.15466100  1
  H  1880  1  0.08641700  0.57230200  0.13919200  1
  H  1882  1  0.21271100  0.56050500  0.12442300  1
  H  1883  1  0.15356000  0.57224400  0.12339700  1
  H  1884  1  0.18662700  0.57223300  0.13880300  1
  H  1886  1  0.22598100  0.50320800  0.11566700  1
  H  1888  1  0.04304700  0.50373700  0.15992100  1
  H  1894  1  0.91865700  0.73067700  0.39707800  1
  H  1895  1  0.86377800  0.73123800  0.37872200  1
  H  1898  1  0.96682200  0.80837700  0.40330800  1
  H  1899  1  0.90766900  0.81999300  0.40470700  1
  H  1900  1  0.94062200  0.82127600  0.38929800  1
  H  1902  1  0.81448600  0.80927400  0.37442000  1
  H  1903  1  0.87346100  0.82124700  0.37355700  1
  H  1904  1  0.83999900  0.82094500  0.38889600  1
  H  1906  1  0.80212700  0.75199600  0.36552500  1
  H  1908  1  0.98406600  0.75273200  0.41010400  1
  H  1914  1  0.92067400  0.04549500  0.38072100  1
  H  1915  1  0.86593300  0.04520700  0.39911200  1
  H  1918  1  0.96396500  0.96730700  0.37374300  1
  H  1919  1  0.90414700  0.95646600  0.37240700  1
  H  1920  1  0.93744200  0.95451700  0.38773600  1
  H  1922  1  0.81215200  0.96774900  0.40286500  1
  H  1923  1  0.87031300  0.95489800  0.40339300  1
  H  1924  1  0.83630900  0.95621900  0.38816500  1
  H  1926  1  0.80329000  0.02491800  0.41221100  1
  H  1928  1  0.98466600  0.02289600  0.36748200  1
  H  1934  1  0.10867100  0.29608300  0.63031800  1
  H  1935  1  0.16352900  0.29574400  0.64868200  1
  H  1938  1  0.06156700  0.21821700  0.62417100  1
  H  1939  1  0.12088200  0.20678000  0.62277400  1
  H  1940  1  0.08796600  0.20544000  0.63818800  1
  H  1942  1  0.21391700  0.21787500  0.65305800  1
  H  1943  1  0.15513600  0.20569000  0.65388800  1
  H  1944  1  0.18868300  0.20612300  0.63856600  1
  H  1946  1  0.22540700  0.27521200  0.66192100  1
  H  1948  1  0.04362100  0.27380000  0.61730000  1
  H  1954  1  0.10815400  0.98138800  0.64707100  1
  H  1955  1  0.16300100  0.98166200  0.62870400  1
  H  1958  1  0.06267900  0.05941200  0.65352200  1
  H  1959  1  0.12219400  0.07062400  0.65485300  1
  H  1960  1  0.08904100  0.07214500  0.63948400  1
  H  1962  1  0.21478100  0.05936700  0.62452000  1
  H  1963  1  0.15625500  0.07183100  0.62382100  1
  H  1964  1  0.19003700  0.07105100  0.63909900  1
  H  1966  1  0.22523800  0.00207200  0.61552700  1
  H  1968  1  0.04351200  0.00387300  0.66015900  1
  H  1974  1  0.41828000  0.73116300  0.89694900  1
  H  1975  1  0.36346200  0.73199300  0.87858100  1
  H  1978  1  0.46773200  0.80865300  0.90326900  1
  H  1979  1  0.40876000  0.82047300  0.90470200  1
  H  1980  1  0.44168900  0.82171800  0.88928700  1
  H  1982  1  0.31537000  0.81021400  0.87440700  1
  H  1983  1  0.37455700  0.82194700  0.87349600  1
  H  1984  1  0.34123800  0.82178200  0.88886000  1
  H  1986  1  0.30218900  0.75301500  0.86540100  1
  H  1988  1  0.48402000  0.75293900  0.91002100  1
  H  1994  1  0.42068600  0.04612900  0.88084400  1
  H  1995  1  0.36576700  0.04562900  0.89919300  1
  H  1998  1  0.46514100  0.96809200  0.87383200  1
  H  1999  1  0.40548200  0.95707500  0.87245300  1
  H  2000  1  0.43868600  0.95518100  0.88779900  1
  H  2002  1  0.31310700  0.96798900  0.90286600  1
  H  2003  1  0.37146000  0.95533800  0.90343900  1
  H  2004  1  0.33759000  0.95655100  0.88818500  1
  H  2006  1  0.30330200  0.02510700  0.91223100  1
  H  2008  1  0.48515400  0.02375800  0.86764500  1
  H  2014  1  0.60916400  0.29558100  0.13040900  1
  H  2015  1  0.66392700  0.29495800  0.14879200  1
  H  2018  1  0.56057400  0.21794700  0.12418500  1
  H  2019  1  0.61968300  0.20627800  0.12276300  1
  H  2020  1  0.58676300  0.20499000  0.13817900  1
  H  2022  1  0.71287000  0.21687100  0.15308200  1
  H  2023  1  0.65382200  0.20497900  0.15396700  1
  H  2024  1  0.68724100  0.20520700  0.13862100  1
  H  2026  1  0.72537400  0.27413400  0.16202300  1
  H  2028  1  0.54373300  0.27359600  0.11734400  1
  H  2034  1  0.60897200  0.98066900  0.14704000  1
  H  2035  1  0.66385800  0.98127600  0.12868500  1
  H  2038  1  0.56075200  0.05834800  0.15332600  1
  H  2039  1  0.61989800  0.06997200  0.15473400  1
  H  2040  1  0.58694100  0.07128500  0.13932500  1
  H  2042  1  0.71307400  0.05933300  0.12443300  1
  H  2043  1  0.65408400  0.07128700  0.12356800  1
  H  2044  1  0.68752800  0.07098400  0.13891000  1
  H  2046  1  0.72547600  0.00207900  0.11550600  1
  H  2048  1  0.54351900  0.00272900  0.16008000  1
  C  1  1  0.24682300  0.27747600  0.32460800  1
  C  2  1  0.26828000  0.27134300  0.33734800  1
  C  3  1  0.30413800  0.28480700  0.34401600  1
  C  4  1  0.31813200  0.30587300  0.33802500  1
  C  5  1  0.29839900  0.31337900  0.32555500  1
  C  6  1  0.26274400  0.29918400  0.31922000  1
  C  9  1  0.21068000  0.26243200  0.31774700  1
  C  10  1  0.20709100  0.23840700  0.32093200  1
  C  11  1  0.17147800  0.22349300  0.31542000  1
  C  12  1  0.13773500  0.23270100  0.30609100  1
  C  13  1  0.14115300  0.25581400  0.30144000  1
  C  14  1  0.17670800  0.27027900  0.30770400  1
  C  25  1  0.24703300  0.49877800  0.45294300  1
  C  26  1  0.26842400  0.50496900  0.44020300  1
  C  27  1  0.30430500  0.49155200  0.43350900  1
  C  28  1  0.31838700  0.47047800  0.43947700  1
  C  29  1  0.29872600  0.46292700  0.45194700  1
  C  30  1  0.26305300  0.47707100  0.45830600  1
  C  33  1  0.21087400  0.51375200  0.45984500  1
  C  34  1  0.20717800  0.53778300  0.45669300  1
  C  35  1  0.17156400  0.55264000  0.46225200  1
  C  36  1  0.13794500  0.54338400  0.47159500  1
  C  37  1  0.14148100  0.52025900  0.47621500  1
  C  38  1  0.17701200  0.50584000  0.46990000  1
  C  49  1  0.52886700  0.50079600  0.32427200  1
  C  50  1  0.51132900  0.50627300  0.33755400  1
  C  51  1  0.47360600  0.49385300  0.34411600  1
  C  52  1  0.45357800  0.47460600  0.33739500  1
  C  53  1  0.47160000  0.46696500  0.32475300  1
  C  54  1  0.50779900  0.48063800  0.31825400  1
  C  57  1  0.56560400  0.51531500  0.31737000  1
  C  58  1  0.57031900  0.53922800  0.32064400  1
  C  59  1  0.60644200  0.55378500  0.31507900  1
  C  60  1  0.63963100  0.54426000  0.30569900  1
  C  61  1  0.63518600  0.52118300  0.30102200  1
  C  62  1  0.59887800  0.50708700  0.30726600  1
  C  73  1  0.52904800  0.27546600  0.45315200  1
  C  74  1  0.51144500  0.27006200  0.43986700  1
  C  75  1  0.47374100  0.28253700  0.43333900  1
  C  76  1  0.45379600  0.30177000  0.44009000  1
  C  77  1  0.47191600  0.30935600  0.45273400  1
  C  78  1  0.50809000  0.29562400  0.45920200  1
  C  81  1  0.56576000  0.26087600  0.46001200  1
  C  82  1  0.57035100  0.23696900  0.45670900  1
  C  83  1  0.60646000  0.22235300  0.46223200  1
  C  84  1  0.63978800  0.23183000  0.47159400  1
  C  85  1  0.63547300  0.25489800  0.47629800  1
  C  86  1  0.59915000  0.26904200  0.47010200  1
  C  97  1  0.78083800  0.74976500  0.70285100  1
  C  98  1  0.75942100  0.75586800  0.69010100  1
  C  99  1  0.72360000  0.74238100  0.68343200  1
  C  100  1  0.70959900  0.72132600  0.68943600  1
  C  101  1  0.72929200  0.71385300  0.70191700  1
  C  102  1  0.76491400  0.72806500  0.70825100  1
  C  105  1  0.81695000  0.76482400  0.70971300  1
  C  106  1  0.82050100  0.78884900  0.70652500  1
  C  107  1  0.85607600  0.80377900  0.71204200  1
  C  108  1  0.88982200  0.79458800  0.72137600  1
  C  109  1  0.88644100  0.77147400  0.72602700  1
  C  110  1  0.85092200  0.75699300  0.71975900  1
  C  121  1  0.78189600  0.52788500  0.57467800  1
  C  122  1  0.76023900  0.52185800  0.58741500  1
  C  123  1  0.72429800  0.53536900  0.59402000  1
  C  124  1  0.71043800  0.55640500  0.58797100  1
  C  125  1  0.73037500  0.56383500  0.57551000  1
  C  126  1  0.76606600  0.54957800  0.56923900  1
  C  129  1  0.81781900  0.51270500  0.56780200  1
  C  130  1  0.82163600  0.48872200  0.57114200  1
  C  131  1  0.85546100  0.47339500  0.56514200  1
  C  132  1  0.88757200  0.48215600  0.55525800  1
  C  133  1  0.88560500  0.50546600  0.55113100  1
  C  134  1  0.85088500  0.52028800  0.55744900  1
  C  145  1  0.49907200  0.52636200  0.70323200  1
  C  146  1  0.51662800  0.52083300  0.68995700  1
  C  147  1  0.55428200  0.53325600  0.68336800  1
  C  148  1  0.57423300  0.55256000  0.69005000  1
  C  149  1  0.55626600  0.56022100  0.70269600  1
  C  150  1  0.52012500  0.54654700  0.70922100  1
  C  153  1  0.46232000  0.51187200  0.71015100  1
  C  154  1  0.45754700  0.48795600  0.70689500  1
  C  155  1  0.42138100  0.47343200  0.71246500  1
  C  156  1  0.38820200  0.48299300  0.72183700  1
  C  157  1  0.39271600  0.50607300  0.72650200  1
  C  158  1  0.42906500  0.52013800  0.72025000  1
  C  169  1  0.49895200  0.75097100  0.57423500  1
  C  170  1  0.51650100  0.75641100  0.58752000  1
  C  171  1  0.55435400  0.74403500  0.59404400  1
  C  172  1  0.57450200  0.72485300  0.58728800  1
  C  173  1  0.55644800  0.71722200  0.57464500  1
  C  174  1  0.52011400  0.73086700  0.56818000  1
  C  177  1  0.46210900  0.76549000  0.56737900  1
  C  178  1  0.45739800  0.78938700  0.57068800  1
  C  179  1  0.42114800  0.80394200  0.56519000  1
  C  180  1  0.38782700  0.79443800  0.55583900  1
  C  181  1  0.39229100  0.77138900  0.55111500  1
  C  182  1  0.42873800  0.75728600  0.55729300  1
  C  193  1  0.74704500  0.27864300  0.82453800  1
  C  194  1  0.76852300  0.27244400  0.83726500  1
  C  195  1  0.80450800  0.28583100  0.84393300  1
  C  196  1  0.81860400  0.30689600  0.83795700  1
  C  197  1  0.79882700  0.31447400  0.82550600  1
  C  198  1  0.76305300  0.30034800  0.81917000  1
  C  201  1  0.71079800  0.26366000  0.81767400  1
  C  202  1  0.70711200  0.23963900  0.82085300  1
  C  203  1  0.67138900  0.22477800  0.81535600  1
  C  204  1  0.63765400  0.23401400  0.80603900  1
  C  205  1  0.64119800  0.25711400  0.80137700  1
  C  206  1  0.67684500  0.27154300  0.80763500  1
  C  217  1  0.74691000  0.49883800  0.95294500  1
  C  218  1  0.76849800  0.50504800  0.94023200  1
  C  219  1  0.80439900  0.49161400  0.93355300  1
  C  220  1  0.81829100  0.47050400  0.93951300  1
  C  221  1  0.79843800  0.46293500  0.95195500  1
  C  222  1  0.76276600  0.47709900  0.95829800  1
  C  225  1  0.71074700  0.51383000  0.95984100  1
  C  226  1  0.70707600  0.53785900  0.95668700  1
  C  227  1  0.67149100  0.55273100  0.96224700  1
  C  228  1  0.63786900  0.54349200  0.97159600  1
  C  229  1  0.64136200  0.52036400  0.97621400  1
  C  230  1  0.67686300  0.50593300  0.96989600  1
  C  241  1  0.02982300  0.50182400  0.82440900  1
  C  242  1  0.01225800  0.50717900  0.83770700  1
  C  243  1  0.97451700  0.49471600  0.84423200  1
  C  244  1  0.95452600  0.47550800  0.83746900  1
  C  245  1  0.97254700  0.46796200  0.82480700  1
  C  246  1  0.00871400  0.48170800  0.81834100  1
  C  249  1  0.06636500  0.51648500  0.81750700  1
  C  250  1  0.07120400  0.54036800  0.82091600  1
  C  251  1  0.10564800  0.55535800  0.81490700  1
  C  252  1  0.13738600  0.54626800  0.80502200  1
  C  253  1  0.13443000  0.52297600  0.80086600  1
  C  254  1  0.09887100  0.50851500  0.80713300  1
  C  265  1  0.02896600  0.27556100  0.95314300  1
  C  266  1  0.01146500  0.27020700  0.93984100  1
  C  267  1  0.97377200  0.28269300  0.93331200  1
  C  268  1  0.95371500  0.30187500  0.94008800  1
  C  269  1  0.97171800  0.30940800  0.95275500  1
  C  270  1  0.00790300  0.29567400  0.95921800  1
  C  273  1  0.06567800  0.26096600  0.95999900  1
  C  274  1  0.07026900  0.23706300  0.95668300  1
  C  275  1  0.10636200  0.22243900  0.96220700  1
  C  276  1  0.13968200  0.23190200  0.97157500  1
  C  277  1  0.13537700  0.25496500  0.97628800  1
  C  278  1  0.09905400  0.26911800  0.97009600  1
  C  289  1  0.28064600  0.74859100  0.20292900  1
  C  290  1  0.25922000  0.75476600  0.19019300  1
  C  291  1  0.22326400  0.74136500  0.18352200  1
  C  292  1  0.20914400  0.72031200  0.18950800  1
  C  293  1  0.22886300  0.71276000  0.20197100  1
  C  294  1  0.26461400  0.72689600  0.20830900  1
  C  297  1  0.31686100  0.76358200  0.20979900  1
  C  298  1  0.32050900  0.78760400  0.20662300  1
  C  299  1  0.35619200  0.80247800  0.21213200  1
  C  300  1  0.38992500  0.79324900  0.22145100  1
  C  301  1  0.38642400  0.77014400  0.22610700  1
  C  302  1  0.35081400  0.75570400  0.21984100  1
  C  313  1  0.28179100  0.52775400  0.07469200  1
  C  314  1  0.26006700  0.52169900  0.08741500  1
  C  315  1  0.22409400  0.53519300  0.09401900  1
  C  316  1  0.21026900  0.55624600  0.08798100  1
  C  317  1  0.23026500  0.56370200  0.07553300  1
  C  318  1  0.26598500  0.54945900  0.06926400  1
  C  321  1  0.31775300  0.51259300  0.06781500  1
  C  322  1  0.32160800  0.48860900  0.07114900  1
  C  323  1  0.35547800  0.47330100  0.06515100  1
  C  324  1  0.38759500  0.48208200  0.05527600  1
  C  325  1  0.38558800  0.50539500  0.05115100  1
  C  326  1  0.35082600  0.52019700  0.05746800  1
  C  337  1  0.99788600  0.52543900  0.20307100  1
  C  338  1  0.01547700  0.52006600  0.18977700  1
  C  339  1  0.05320900  0.53252800  0.18324800  1
  C  340  1  0.07316800  0.55175500  0.19000200  1
  C  341  1  0.05514200  0.55930800  0.20266200  1
  C  342  1  0.01898400  0.54556400  0.20913200  1
  C  345  1  0.96133000  0.51078700  0.20997500  1
  C  346  1  0.95645200  0.48690500  0.20656800  1
  C  347  1  0.92197900  0.47193100  0.21257700  1
  C  348  1  0.89025100  0.48103500  0.22245900  1
  C  349  1  0.89325300  0.50432500  0.22661600  1
  C  350  1  0.92883800  0.51877000  0.22034900  1
  C  361  1  0.99887100  0.75083600  0.07428200  1
  C  362  1  0.01637000  0.75624200  0.08757800  1
  C  363  1  0.05418100  0.74383800  0.09410600  1
  C  364  1  0.07434400  0.72467200  0.08733900  1
  C  365  1  0.05635400  0.71707900  0.07468100  1
  C  366  1  0.02005500  0.73074600  0.06821700  1
  C  369  1  0.96205700  0.76536900  0.06742500  1
  C  370  1  0.95735300  0.78926300  0.07074300  1
  C  371  1  0.92114000  0.80383400  0.06523800  1
  C  372  1  0.88784400  0.79434500  0.05587500  1
  C  373  1  0.89229300  0.77130100  0.05114500  1
  C  374  1  0.92871100  0.75718400  0.05732700  1
  C  385  1  0.74731000  0.77702100  0.32442000  1
  C  386  1  0.76871200  0.77071300  0.33713800  1
  C  387  1  0.80417700  0.78423500  0.34394700  1
  C  388  1  0.81789500  0.80546700  0.33809600  1
  C  389  1  0.79831400  0.81311100  0.32563800  1
  C  390  1  0.76302000  0.79888000  0.31918100  1
  C  393  1  0.71193200  0.76191600  0.31729400  1
  C  394  1  0.70897000  0.73769900  0.32014800  1
  C  395  1  0.67574000  0.72259600  0.31368100  1
  C  396  1  0.64480000  0.73154600  0.30362100  1
  C  397  1  0.64513500  0.75518700  0.30024200  1
  C  398  1  0.67854200  0.76993900  0.30712900  1
  C  409  1  0.74807300  0.99929100  0.45314800  1
  C  410  1  0.76930100  0.00568200  0.44042800  1
  C  411  1  0.80476600  0.99222900  0.43357900  1
  C  412  1  0.81867300  0.97099700  0.43939500  1
  C  413  1  0.79926700  0.96329200  0.45186500  1
  C  414  1  0.76392100  0.97744500  0.45835900  1
  C  417  1  0.71234700  0.01425100  0.46022200  1
  C  418  1  0.70954800  0.03847100  0.45746900  1
  C  419  1  0.67433300  0.05320900  0.46335300  1
  C  420  1  0.64148200  0.04391400  0.47285300  1
  C  421  1  0.64358600  0.02043000  0.47685100  1
  C  422  1  0.67810600  0.00603800  0.47010200  1
  C  433  1  0.02755000  0.00134400  0.32404000  1
  C  434  1  0.01015700  0.00704000  0.33730000  1
  C  435  1  0.97282000  0.99456200  0.34400200  1
  C  436  1  0.95293000  0.97513000  0.33742300  1
  C  437  1  0.97072200  0.96733700  0.32478700  1
  C  438  1  0.00662700  0.98102100  0.31816800  1
  C  441  1  0.06392700  0.01583100  0.31698200  1
  C  442  1  0.06785800  0.03994300  0.31986400  1
  C  443  1  0.10363000  0.05436000  0.31397500  1
  C  444  1  0.13605500  0.04476800  0.30445300  1
  C  445  1  0.13292600  0.02132500  0.30038700  1
  C  446  1  0.09753300  0.00727100  0.30705100  1
  C  457  1  0.02824900  0.77490800  0.45337300  1
  C  458  1  0.01086600  0.76922100  0.44010800  1
  C  459  1  0.97366300  0.78175100  0.43338000  1
  C  460  1  0.95391500  0.80124800  0.43992700  1
  C  461  1  0.97162800  0.80900900  0.45257700  1
  C  462  1  0.00734400  0.79525900  0.45922500  1
  C  465  1  0.06427400  0.76032500  0.46052000  1
  C  466  1  0.06837400  0.73620400  0.45759000  1
  C  467  1  0.10224800  0.72145000  0.46406900  1
  C  468  1  0.13279400  0.73074400  0.47412500  1
  C  469  1  0.13134600  0.75437900  0.47754100  1
  C  470  1  0.09702900  0.76876000  0.47071300  1
  C  481  1  0.28032200  0.25020800  0.70306500  1
  C  482  1  0.25899300  0.25649500  0.69033500  1
  C  483  1  0.22355700  0.24296300  0.68352100  1
  C  484  1  0.20979200  0.22174600  0.68938100  1
  C  485  1  0.22930300  0.21412300  0.70185200  1
  C  486  1  0.26457400  0.22835900  0.70831300  1
  C  489  1  0.31567400  0.26532000  0.71019500  1
  C  490  1  0.31861800  0.28953600  0.70734100  1
  C  491  1  0.35182300  0.30464500  0.71381400  1
  C  492  1  0.38275300  0.29570000  0.72387700  1
  C  493  1  0.38243700  0.27205700  0.72725500  1
  C  494  1  0.34905800  0.25730000  0.72036200  1
  C  505  1  0.28026400  0.02714400  0.57445800  1
  C  506  1  0.25895900  0.02088600  0.58719400  1
  C  507  1  0.22349700  0.03441600  0.59399200  1
  C  508  1  0.20968200  0.05561300  0.58811700  1
  C  509  1  0.22917900  0.06321800  0.57564000  1
  C  510  1  0.26448900  0.04897500  0.56919200  1
  C  513  1  0.31566300  0.01201300  0.56736300  1
  C  514  1  0.31859000  0.98780700  0.57025200  1
  C  515  1  0.35191900  0.97268400  0.56384400  1
  C  516  1  0.38301100  0.98159900  0.55381100  1
  C  517  1  0.38266200  0.00522000  0.55038600  1
  C  518  1  0.34913000  0.01999700  0.55720800  1
  C  529  1  0.00015400  0.02587600  0.70345600  1
  C  530  1  0.01756800  0.02013500  0.69020500  1
  C  531  1  0.05486400  0.03260900  0.68348500  1
  C  532  1  0.07469000  0.05208800  0.69003100  1
  C  533  1  0.05691600  0.05990600  0.70266500  1
  C  534  1  0.02105400  0.04622600  0.70930400  1
  C  537  1  0.96378400  0.01140400  0.71052900  1
  C  538  1  0.95982200  0.98728900  0.70765700  1
  C  539  1  0.92402900  0.97289100  0.71354900  1
  C  540  1  0.89162500  0.98250200  0.72307100  1
  C  541  1  0.89479400  0.00594600  0.72713000  1
  C  542  1  0.93019400  0.01998500  0.72045800  1
  C  553  1  0.99956100  0.25143400  0.57409700  1
  C  554  1  0.01694000  0.25716600  0.58735500  1
  C  555  1  0.05427700  0.24471900  0.59407900  1
  C  556  1  0.07413900  0.22524200  0.58753800  1
  C  557  1  0.05642600  0.21742500  0.57489800  1
  C  558  1  0.02058800  0.23110700  0.56825200  1
  C  561  1  0.96343800  0.26596100  0.56695200  1
  C  562  1  0.95917500  0.29006800  0.56990000  1
  C  563  1  0.92520700  0.30478000  0.56343200  1
  C  564  1  0.89475400  0.29547900  0.55335900  1
  C  565  1  0.89637200  0.27185700  0.54992100  1
  C  566  1  0.93076100  0.25750600  0.55674400  1
  C  577  1  0.24743900  0.77827900  0.82438400  1
  C  578  1  0.26887600  0.77190500  0.83708500  1
  C  579  1  0.30446400  0.78535100  0.84389600  1
  C  580  1  0.31825700  0.80659000  0.83806400  1
  C  581  1  0.29863100  0.81430300  0.82562500  1
  C  582  1  0.26322900  0.80013700  0.81916500  1
  C  585  1  0.21196800  0.76323400  0.81725000  1
  C  586  1  0.20886300  0.73902600  0.82010900  1
  C  587  1  0.17555000  0.72396900  0.81364500  1
  C  588  1  0.14468800  0.73293700  0.80357500  1
  C  589  1  0.14516700  0.75657400  0.80018700  1
  C  590  1  0.17863900  0.77129100  0.80707700  1
  C  601  1  0.24820400  0.99943100  0.95314000  1
  C  602  1  0.26949300  0.00586000  0.94043300  1
  C  603  1  0.30501900  0.99243600  0.93358800  1
  C  604  1  0.31891800  0.97119000  0.93939200  1
  C  605  1  0.29944200  0.96344500  0.95184400  1
  C  606  1  0.26404600  0.97757400  0.95833600  1
  C  609  1  0.21242900  0.01436600  0.96021300  1
  C  610  1  0.20956500  0.03858600  0.95746600  1
  C  611  1  0.17431100  0.05330000  0.96335100  1
  C  612  1  0.14148000  0.04398200  0.97284800  1
  C  613  1  0.14364400  0.02049600  0.97684200  1
  C  614  1  0.17820400  0.00612900  0.97009000  1
  C  625  1  0.52836900  0.00243900  0.82416400  1
  C  626  1  0.51102700  0.00800200  0.83744800  1
  C  627  1  0.47371200  0.99546000  0.84411900  1
  C  628  1  0.45382200  0.97607700  0.83749300  1
  C  629  1  0.47157800  0.96838900  0.82483200  1
  C  630  1  0.50740700  0.98215700  0.81824000  1
  C  633  1  0.56443400  0.01708700  0.81708000  1
  C  634  1  0.56844300  0.04119000  0.82007500  1
  C  635  1  0.60238500  0.05600200  0.81367000  1
  C  636  1  0.63312100  0.04678900  0.80363500  1
  C  637  1  0.63172900  0.02318300  0.80015000  1
  C  638  1  0.59730700  0.00874100  0.80689100  1
  C  649  1  0.52835800  0.77504400  0.95334200  1
  C  650  1  0.51102700  0.76939500  0.94006700  1
  C  651  1  0.47386800  0.78195500  0.93333600  1
  C  652  1  0.45410500  0.80143600  0.93989400  1
  C  653  1  0.47176300  0.80915900  0.95255800  1
  C  654  1  0.50744300  0.79538500  0.95920500  1
  C  657  1  0.56435000  0.76044300  0.96048900  1
  C  658  1  0.56843200  0.73632300  0.95754700  1
  C  659  1  0.60226200  0.72155000  0.96403000  1
  C  660  1  0.63278700  0.73082200  0.97409900  1
  C  661  1  0.63136600  0.75445500  0.97752400  1
  C  662  1  0.59708900  0.76885400  0.97069400  1
  C  673  1  0.78019800  0.24896700  0.20308800  1
  C  674  1  0.75880400  0.25530600  0.19037500  1
  C  675  1  0.72325500  0.24183300  0.18356700  1
  C  676  1  0.70945300  0.22060900  0.18941400  1
  C  677  1  0.72903800  0.21293100  0.20186600  1
  C  678  1  0.76440900  0.22712100  0.20832200  1
  C  681  1  0.81564200  0.26403500  0.21021800  1
  C  682  1  0.81871300  0.28824100  0.20735000  1
  C  683  1  0.85199700  0.30331400  0.21381300  1
  C  684  1  0.88286500  0.29436500  0.22388700  1
  C  685  1  0.88242100  0.27073100  0.22728200  1
  C  686  1  0.84897300  0.25599600  0.22039500  1
  C  697  1  0.78030400  0.02705100  0.07444800  1
  C  698  1  0.75884700  0.02077400  0.08716200  1
  C  699  1  0.72336400  0.03431000  0.09395000  1
  C  700  1  0.70968200  0.05553600  0.08808500  1
  C  701  1  0.72932500  0.06315800  0.07562800  1
  C  702  1  0.76464100  0.04890700  0.06919200  1
  C  705  1  0.81571100  0.01191500  0.06735800  1
  C  706  1  0.81864000  0.98770800  0.07025000  1
  C  707  1  0.85196500  0.97258200  0.06384300  1
  C  708  1  0.88305000  0.98148800  0.05380600  1
  C  709  1  0.88270800  0.00511000  0.05037800  1
  C  710  1  0.84918800  0.01989000  0.05720200  1
  C  721  1  0.49950800  0.02472200  0.20335800  1
  C  722  1  0.51686800  0.01910000  0.19008400  1
  C  723  1  0.55412200  0.03163500  0.18338300  1
  C  724  1  0.57394600  0.05107500  0.18996700  1
  C  725  1  0.55624100  0.05879300  0.20262900  1
  C  726  1  0.52046300  0.04503200  0.20924900  1
  C  729  1  0.46343600  0.01010500  0.21046300  1
  C  730  1  0.45936800  0.98599900  0.20748700  1
  C  731  1  0.42540100  0.97121800  0.21390400  1
  C  732  1  0.39470100  0.98046500  0.22393700  1
  C  733  1  0.39614800  0.00407800  0.22740500  1
  C  734  1  0.43058800  0.01848900  0.22064700  1
  C  745  1  0.49957300  0.25131000  0.07408400  1
  C  746  1  0.51686800  0.25699300  0.08735900  1
  C  747  1  0.55417600  0.24452400  0.09408200  1
  C  748  1  0.57411300  0.22508700  0.08751900  1
  C  749  1  0.55649900  0.21732300  0.07485800  1
  C  750  1  0.52067000  0.23101700  0.06821700  1
  C  753  1  0.46346100  0.26585100  0.06694300  1
  C  754  1  0.45920500  0.28995200  0.06990400  1
  C  755  1  0.42525900  0.30467800  0.06344000  1
  C  756  1  0.39480300  0.29539400  0.05336100  1
  C  757  1  0.39640600  0.27177600  0.04991200  1
  C  758  1  0.43078800  0.25741300  0.05672900  1
  C  769  1  0.41988700  0.40885800  0.32039500  1
  C  770  1  0.39258900  0.39905000  0.33109000  1
  C  771  1  0.36680700  0.37828300  0.32963700  1
  C  772  1  0.36593800  0.36610700  0.31729200  1
  C  773  1  0.39084100  0.37622500  0.30604700  1
  C  776  1  0.41790900  0.39745400  0.30757900  1
  C  777  1  0.38895800  0.36436500  0.29262000  1
  C  781  1  0.44580000  0.40694900  0.29585300  1
  C  785  1  0.45067800  0.42735600  0.32411300  1
  C  787  1  0.35286300  0.34262000  0.31800900  1
  C  789  1  0.42029700  0.36745900  0.45712400  1
  C  790  1  0.39288700  0.37720700  0.44643200  1
  C  791  1  0.36707600  0.39797000  0.44787200  1
  C  792  1  0.36626200  0.41017100  0.46021300  1
  C  793  1  0.39132400  0.40013300  0.47144800  1
  C  796  1  0.41840400  0.37890800  0.46992800  1
  C  797  1  0.38957200  0.41207300  0.48485100  1
  C  801  1  0.44641000  0.36947100  0.48164600  1
  C  805  1  0.45112800  0.34897600  0.45341100  1
  C  807  1  0.35324800  0.43365600  0.45942500  1
  C  809  1  0.60794600  0.61834100  0.70706000  1
  C  810  1  0.63533500  0.62814100  0.69638100  1
  C  811  1  0.66107300  0.64891900  0.69784500  1
  C  812  1  0.66179300  0.66111700  0.71018400  1
  C  813  1  0.63678500  0.65100800  0.72141400  1
  C  816  1  0.60977100  0.62976600  0.71987200  1
  C  817  1  0.63849700  0.66289300  0.73483600  1
  C  821  1  0.58177600  0.62027800  0.73158000  1
  C  825  1  0.57719900  0.59983600  0.70332700  1
  C  827  1  0.67483900  0.68460700  0.70946500  1
  C  829  1  0.60882200  0.65926100  0.57020200  1
  C  830  1  0.63671600  0.64964400  0.58083900  1
  C  831  1  0.66262200  0.62890800  0.57937800  1
  C  832  1  0.66304300  0.61659900  0.56707300  1
  C  833  1  0.63750900  0.62652300  0.55588400  1
  C  836  1  0.61033800  0.64771900  0.55742400  1
  C  837  1  0.63885000  0.61448900  0.54250500  1
  C  841  1  0.58184100  0.65702800  0.54576100  1
  C  845  1  0.57786400  0.67766700  0.57396400  1
  C  847  1  0.67606700  0.59310900  0.56789400  1
  C  849  1  0.92057600  0.40990900  0.82035100  1
  C  850  1  0.89327800  0.40010600  0.83104900  1
  C  851  1  0.86743800  0.37935500  0.82959800  1
  C  852  1  0.86651100  0.36718200  0.81725100  1
  C  853  1  0.89140300  0.37729500  0.80600300  1
  C  856  1  0.91851500  0.39851400  0.80753300  1
  C  857  1  0.88946200  0.36543900  0.79257600  1
  C  861  1  0.94635800  0.40801300  0.79580100  1
  C  865  1  0.95148700  0.42836400  0.82407700  1
  C  867  1  0.85336800  0.34369800  0.81796700  1
  C  869  1  0.91979500  0.36743300  0.95720400  1
  C  870  1  0.89220600  0.37711900  0.94652800  1
  C  871  1  0.86637300  0.39787700  0.94796600  1
  C  872  1  0.86572300  0.41013100  0.96028900  1
  C  873  1  0.89092700  0.40014000  0.97151600  1
  C  876  1  0.91803200  0.37892200  0.96999500  1
  C  877  1  0.88930900  0.41212300  0.98490600  1
  C  881  1  0.94619800  0.36953600  0.98169900  1
  C  885  1  0.95073100  0.34900100  0.95347800  1
  C  887  1  0.85276100  0.43362100  0.95948300  1
  C  889  1  0.10710600  0.61735800  0.20712800  1
  C  890  1  0.13448100  0.62714200  0.19643800  1
  C  891  1  0.16030900  0.64789800  0.19789000  1
  C  892  1  0.16107000  0.66009200  0.21022700  1
  C  893  1  0.13617200  0.64999400  0.22147700  1
  C  896  1  0.10908400  0.62876900  0.21994200  1
  C  897  1  0.13803800  0.66186200  0.23490200  1
  C  901  1  0.08118200  0.61927600  0.23166600  1
  C  905  1  0.07620300  0.59890600  0.20339400  1
  C  907  1  0.17428300  0.68356900  0.20952500  1
  C  909  1  0.10873200  0.65912900  0.07021700  1
  C  910  1  0.13658300  0.64950600  0.08086000  1
  C  911  1  0.16249900  0.62877400  0.07940200  1
  C  912  1  0.16296800  0.61647300  0.06709300  1
  C  913  1  0.13748100  0.62640900  0.05589800  1
  C  916  1  0.11030200  0.64760200  0.05743600  1
  C  917  1  0.13888000  0.61438600  0.04251700  1
  C  921  1  0.08185600  0.65692300  0.04576600  1
  C  925  1  0.07773700  0.67752400  0.07397500  1
  C  927  1  0.17599100  0.59298400  0.06791100  1
  C  929  1  0.91894400  0.90907300  0.32062700  1
  C  930  1  0.89186100  0.89917200  0.33133700  1
  C  931  1  0.86630800  0.87832900  0.32990700  1
  C  932  1  0.86542100  0.86614800  0.31756300  1
  C  933  1  0.89009800  0.87634400  0.30630200  1
  C  936  1  0.91695600  0.89764500  0.30781400  1
  C  937  1  0.88818200  0.86448600  0.29287500  1
  C  941  1  0.94465300  0.90718200  0.29606600  1
  C  945  1  0.94952000  0.92769000  0.32432600  1
  C  947  1  0.85260800  0.84261600  0.31828900  1
  C  949  1  0.92003500  0.86730200  0.45675500  1
  C  950  1  0.89314800  0.87725300  0.44602100  1
  C  951  1  0.86758700  0.89809500  0.44744800  1
  C  952  1  0.86645000  0.91019600  0.45982000  1
  C  953  1  0.89099600  0.89997900  0.47108900  1
  C  956  1  0.91784600  0.87867800  0.46958100  1
  C  957  1  0.88893100  0.91181900  0.48452000  1
  C  961  1  0.94532900  0.86908500  0.48135300  1
  C  965  1  0.95062900  0.84868100  0.45307000  1
  C  967  1  0.85370600  0.93372900  0.45906300  1
  C  969  1  0.10867000  0.11818300  0.70681900  1
  C  970  1  0.13576400  0.12809700  0.69611200  1
  C  971  1  0.16130000  0.14894300  0.69754900  1
  C  972  1  0.16208300  0.16110200  0.70989700  1
  C  973  1  0.13745800  0.15090400  0.72116200  1
  C  976  1  0.11062800  0.12959900  0.71963600  1
  C  977  1  0.13935700  0.16275100  0.73459300  1
  C  981  1  0.08293400  0.12004100  0.73138000  1
  C  985  1  0.07812700  0.09955700  0.70311000  1
  C  987  1  0.17494900  0.18463500  0.70918900  1
  C  989  1  0.10840600  0.15919300  0.57071000  1
  C  990  1  0.13552500  0.14928700  0.58141500  1
  C  991  1  0.16112800  0.12845800  0.57996900  1
  C  992  1  0.16207900  0.11632100  0.56760800  1
  C  993  1  0.13729400  0.12649800  0.55636600  1
  C  996  1  0.11040600  0.14778700  0.55789200  1
  C  997  1  0.13915500  0.11462900  0.54294200  1
  C  1001  1  0.08268200  0.15733000  0.54614900  1
  C  1005  1  0.07778100  0.17778900  0.57442500  1
  C  1007  1  0.17482400  0.09278100  0.56837400  1
  C  1009  1  0.41957000  0.91018600  0.82058500  1
  C  1010  1  0.39245500  0.90031700  0.83130000  1
  C  1011  1  0.36682500  0.87949200  0.82987800  1
  C  1012  1  0.36589800  0.86729600  0.81753900  1
  C  1013  1  0.39059700  0.87746500  0.80627300  1
  C  1016  1  0.41752400  0.89874900  0.80777700  1
  C  1017  1  0.38863800  0.86559400  0.79285000  1
  C  1021  1  0.44521800  0.90826700  0.79602300  1
  C  1025  1  0.45028500  0.92875500  0.82428600  1
  C  1027  1  0.35300500  0.84377300  0.81827200  1
  C  1029  1  0.42019200  0.86744800  0.95674800  1
  C  1030  1  0.39337800  0.87741200  0.94600400  1
  C  1031  1  0.36781000  0.89825400  0.94742500  1
  C  1032  1  0.36659600  0.91034100  0.95980000  1
  C  1033  1  0.39106600  0.90011200  0.97107800  1
  C  1036  1  0.41792000  0.87881000  0.96957700  1
  C  1037  1  0.38891800  0.91193800  0.98451200  1
  C  1041  1  0.44532000  0.86920200  0.98135900  1
  C  1045  1  0.45081200  0.84883300  0.95307200  1
  C  1047  1  0.35385500  0.93387600  0.95904600  1
  C  1049  1  0.60824100  0.11701000  0.20687500  1
  C  1050  1  0.63545100  0.12687700  0.19617800  1
  C  1051  1  0.66103300  0.14771200  0.19761200  1
  C  1052  1  0.66181100  0.15992300  0.20994700  1
  C  1053  1  0.63701100  0.14976000  0.22119600  1
  C  1056  1  0.61013800  0.12846400  0.21967900  1
  C  1057  1  0.63880300  0.16165000  0.23461500  1
  C  1061  1  0.58233500  0.11895100  0.23141600  1
  C  1065  1  0.57757700  0.09843100  0.20315800  1
  C  1067  1  0.67467500  0.18345000  0.20921400  1
  C  1069  1  0.60867700  0.15914700  0.07062600  1
  C  1070  1  0.63588000  0.14928200  0.08132600  1
  C  1071  1  0.66151000  0.12845900  0.07988800  1
  C  1072  1  0.66238900  0.11628600  0.06753800  1
  C  1073  1  0.63754500  0.12643200  0.05629600  1
  C  1076  1  0.61063600  0.14771600  0.05781500  1
  C  1077  1  0.63935900  0.11453500  0.04288000  1
  C  1081  1  0.58284400  0.15722800  0.04607600  1
  C  1085  1  0.57795900  0.17770300  0.07434300  1
  C  1087  1  0.67510800  0.09274400  0.06831900  1
  C  1089  1  0.05103600  0.25936000  0.27316700  1
  C  1090  1  0.05850100  0.25631700  0.25909800  1
  C  1091  1  0.01986600  0.25424700  0.24985400  1
  C  1092  1  0.97093000  0.25532700  0.25405600  1
  C  1093  1  0.96174800  0.25972200  0.26806000  1
  C  1096  1  0.00148100  0.26135400  0.27760400  1
  C  1097  1  0.91022400  0.26208400  0.27283800  1
  C  1101  1  0.98980500  0.26414200  0.29230400  1
  C  1105  1  0.09152500  0.25401300  0.28153100  1
  C  1107  1  0.93473000  0.24977600  0.24447500  1
  C  1109  1  0.05136800  0.51657600  0.50445000  1
  C  1110  1  0.05875900  0.51917600  0.51855300  1
  C  1111  1  0.02005500  0.52113000  0.52779000  1
  C  1112  1  0.97115100  0.52037800  0.52353300  1
  C  1113  1  0.96204600  0.51642300  0.50947900  1
  C  1116  1  0.00183300  0.51494400  0.49994900  1
  C  1117  1  0.91054400  0.51424900  0.50464500  1
  C  1121  1  0.99023400  0.51270200  0.48521100  1
  C  1125  1  0.09201300  0.52193200  0.49615500  1
  C  1127  1  0.93477700  0.52581000  0.53309000  1
  C  1129  1  0.72615500  0.51675200  0.27297300  1
  C  1130  1  0.71931500  0.51936900  0.25884800  1
  C  1131  1  0.75836000  0.52096600  0.24969100  1
  C  1132  1  0.80713300  0.51986900  0.25404500  1
  C  1133  1  0.81564500  0.51595000  0.26813300  1
  C  1136  1  0.77552000  0.51479900  0.27757700  1
  C  1137  1  0.86692200  0.51348200  0.27309900  1
  C  1141  1  0.78659200  0.51256000  0.29234600  1
  C  1145  1  0.68545600  0.52246500  0.28118500  1
  C  1147  1  0.84400100  0.52505900  0.24456600  1
  C  1149  1  0.72647900  0.25920800  0.50436600  1
  C  1150  1  0.71960200  0.25621700  0.51846300  1
  C  1151  1  0.75862200  0.25447700  0.52761400  1
  C  1152  1  0.80740100  0.25588100  0.52329600  1
  C  1153  1  0.81594300  0.26020500  0.50925300  1
  C  1156  1  0.77583600  0.26149600  0.49980600  1
  C  1157  1  0.86722400  0.26283900  0.50433000  1
  C  1161  1  0.78691900  0.26423100  0.48506800  1
  C  1165  1  0.68588500  0.25350700  0.49610400  1
  C  1167  1  0.84410300  0.25052500  0.53278800  1
  C  1169  1  0.97656400  0.76796200  0.75430100  1
  C  1170  1  0.96909400  0.77098600  0.76837200  1
  C  1171  1  0.00772200  0.77305700  0.77761800  1
  C  1172  1  0.05666100  0.77200200  0.77341600  1
  C  1173  1  0.06585400  0.76763200  0.75940900  1
  C  1176  1  0.02612700  0.76600000  0.74986300  1
  C  1177  1  0.11738300  0.76530000  0.75463000  1
  C  1181  1  0.03780900  0.76324700  0.73516200  1
  C  1185  1  0.93606400  0.77329500  0.74593900  1
  C  1187  1  0.09285400  0.77754900  0.78300000  1
  C  1189  1  0.30173800  0.51058200  0.75454800  1
  C  1190  1  0.30855600  0.50796500  0.76867400  1
  C  1191  1  0.26948700  0.50635900  0.77782300  1
  C  1192  1  0.22072400  0.50748600  0.77346300  1
  C  1193  1  0.21224400  0.51142500  0.75937600  1
  C  1196  1  0.25238800  0.51257100  0.74993800  1
  C  1197  1  0.16097700  0.51391300  0.75440500  1
  C  1201  1  0.24134500  0.51483900  0.73516900  1
  C  1205  1  0.34244700  0.50485000  0.74634100  1
  C  1207  1  0.18385000  0.50226600  0.78293400  1
  C  1209  1  0.30121900  0.76713000  0.52307200  1
  C  1210  1  0.30811300  0.76997800  0.50896600  1
  C  1211  1  0.26910600  0.77171000  0.49981000  1
  C  1212  1  0.22031600  0.77050800  0.50414000  1
  C  1213  1  0.21173200  0.76636400  0.51820100  1
  C  1216  1  0.25183700  0.76506200  0.52764700  1
  C  1217  1  0.16042500  0.76394300  0.52314300  1
  C  1221  1  0.24074600  0.76254900  0.54239800  1
  C  1225  1  0.34186800  0.77280000  0.53131700  1
  C  1227  1  0.18363400  0.77577100  0.49462300  1
  C  1229  1  0.55106800  0.26062300  0.77312300  1
  C  1230  1  0.55857100  0.25779900  0.75903900  1
  C  1231  1  0.51994000  0.25572000  0.74979300  1
  C  1232  1  0.47099600  0.25660200  0.75400600  1
  C  1233  1  0.46177100  0.26075200  0.76803300  1
  C  1236  1  0.50149600  0.26236800  0.77757800  1
  C  1237  1  0.41022500  0.26286500  0.77283000  1
  C  1241  1  0.48981400  0.26487000  0.79229600  1
  C  1245  1  0.59163000  0.25530800  0.78146200  1
  C  1247  1  0.43485500  0.25107200  0.74440400  1
  C  1249  1  0.55121400  0.51667800  0.00445100  1
  C  1250  1  0.55859600  0.51930800  0.01855200  1
  C  1251  1  0.51990000  0.52121800  0.02779400  1
  C  1252  1  0.47099600  0.52043500  0.02354000  1
  C  1253  1  0.46189500  0.51645000  0.00948800  1
  C  1256  1  0.50167800  0.51500300  0.99995500  1
  C  1257  1  0.41039600  0.51421600  0.00465800  1
  C  1261  1  0.49007200  0.51274300  0.98521800  1
  C  1265  1  0.59183700  0.52204600  0.99614900  1
  C  1267  1  0.43458600  0.52578900  0.03310300  1
  C  1269  1  0.22642600  0.25923200  0.00435400  1
  C  1270  1  0.21956200  0.25623100  0.01845100  1
  C  1271  1  0.25859300  0.25447500  0.02759900  1
  C  1272  1  0.30737100  0.25587200  0.02327900  1
  C  1273  1  0.31589800  0.26020500  0.00923500  1
  C  1276  1  0.27578400  0.26151300  0.99979100  1
  C  1277  1  0.36717800  0.26282900  0.00430800  1
  C  1281  1  0.28685500  0.26425500  0.98505400  1
  C  1285  1  0.18581500  0.25354900  0.99609200  1
  C  1287  1  0.34407900  0.25048700  0.03276600  1
  C  1289  1  0.47657600  0.76665400  0.25435800  1
  C  1290  1  0.46907700  0.76946200  0.26844200  1
  C  1291  1  0.50769700  0.77152700  0.27769300  1
  C  1292  1  0.55664400  0.77069200  0.27348000  1
  C  1293  1  0.56587700  0.76658200  0.25944900  1
  C  1296  1  0.52615900  0.76496000  0.24990200  1
  C  1297  1  0.61743000  0.76451000  0.25464900  1
  C  1301  1  0.53784800  0.76250700  0.23518200  1
  C  1305  1  0.43600400  0.77195800  0.24602000  1
  C  1307  1  0.59278900  0.77619000  0.28308700  1
  C  1309  1  0.80126600  0.76707900  0.02308700  1
  C  1310  1  0.80818300  0.76990200  0.00898000  1
  C  1311  1  0.76918100  0.77165300  0.99982300  1
  C  1312  1  0.72038000  0.77044200  0.00414400  1
  C  1313  1  0.71178300  0.76633200  0.01820700  1
  C  1316  1  0.75187600  0.76503100  0.02765900  1
  C  1317  1  0.66046600  0.76393600  0.02314500  1
  C  1321  1  0.74076000  0.76254400  0.04241000  1
  C  1325  1  0.84192200  0.77273300  0.03133500  1
  C  1327  1  0.68373700  0.77577900  0.99462900  1
  C  1329  1  0.55231100  0.01612900  0.50481700  1
  C  1330  1  0.55906100  0.01826800  0.51897100  1
  C  1331  1  0.51999800  0.02043900  0.52806800  1
  C  1332  1  0.47130200  0.02041000  0.52361200  1
  C  1333  1  0.46272700  0.01692300  0.50949200  1
  C  1336  1  0.50293200  0.01516800  0.50011100  1
  C  1337  1  0.41137400  0.01558700  0.50443800  1
  C  1341  1  0.49197300  0.01335000  0.48531700  1
  C  1345  1  0.59360700  0.02144200  0.49675500  1
  C  1347  1  0.43482200  0.02602700  0.53309800  1
  C  1349  1  0.22504000  0.01624600  0.27262000  1
  C  1350  1  0.21885500  0.01835800  0.25844300  1
  C  1351  1  0.25831000  0.02019100  0.24944100  1
  C  1352  1  0.30687900  0.01980200  0.25400700  1
  C  1353  1  0.31482300  0.01636100  0.26816100  1
  C  1356  1  0.27424300  0.01495700  0.27744300  1
  C  1357  1  0.36594900  0.01472600  0.27335600  1
  C  1361  1  0.28463800  0.01316300  0.29227000  1
  C  1365  1  0.18365900  0.02192400  0.28058500  1
  C  1367  1  0.34385400  0.02523600  0.24461100  1
  C  1369  1  0.80273800  0.01105700  0.75490800  1
  C  1370  1  0.80893900  0.00889800  0.76908200  1
  C  1371  1  0.76950500  0.00706700  0.77809000  1
  C  1372  1  0.72092800  0.00746900  0.77353300  1
  C  1373  1  0.71296100  0.01095000  0.75938300  1
  C  1376  1  0.75352600  0.01237200  0.75009500  1
  C  1377  1  0.66182600  0.01261500  0.75419500  1
  C  1381  1  0.74310100  0.01421400  0.73527200  1
  C  1385  1  0.84408400  0.00537000  0.74693400  1
  C  1387  1  0.68395100  0.00205500  0.78293000  1
  C  1389  1  0.05240800  0.01611200  0.00481300  1
  C  1390  1  0.05917000  0.01821400  0.01896900  1
  C  1391  1  0.02009700  0.02036000  0.02806700  1
  C  1392  1  0.97139900  0.02030100  0.02361300  1
  C  1393  1  0.96282400  0.01683300  0.00949200  1
  C  1396  1  0.00302900  0.01512500  0.00010700  1
  C  1397  1  0.91147400  0.01547700  0.00443900  1
  C  1401  1  0.99206600  0.01332700  0.98531200  1
  C  1405  1  0.09369000  0.02146000  0.99675200  1
  C  1407  1  0.93492600  0.02591700  0.03310200  1
  C  1409  1  0.11986600  0.11522300  0.32328400  1
  C  1410  1  0.08755200  0.13389400  0.32144900  1
  C  1411  1  0.10452000  0.15632200  0.31889000  1
  C  1412  1  0.15469900  0.16118700  0.31797800  1
  C  1413  1  0.18846200  0.14275100  0.31995900  1
  C  1416  1  0.17105600  0.11988900  0.32303800  1
  C  1417  1  0.24199800  0.14719000  0.31873600  1
  C  1421  1  0.20697400  0.10112400  0.32604900  1
  C  1425  1  0.09900600  0.09322500  0.32478100  1
  C  1427  1  0.16757700  0.18289300  0.31296300  1
  C  1429  1  0.11964100  0.66085600  0.45458900  1
  C  1430  1  0.08735000  0.64214600  0.45627300  1
  C  1431  1  0.10439600  0.61971800  0.45879100  1
  C  1432  1  0.15459500  0.61491000  0.45975900  1
  C  1433  1  0.18830600  0.63341000  0.45794100  1
  C  1436  1  0.17085200  0.65628500  0.45493800  1
  C  1437  1  0.24183500  0.62901500  0.45923500  1
  C  1441  1  0.20673100  0.67517100  0.45215000  1
  C  1445  1  0.09884100  0.68283500  0.45309000  1
  C  1447  1  0.16742000  0.59320700  0.46476600  1
  C  1449  1  0.65955800  0.66186700  0.32302400  1
  C  1450  1  0.69190100  0.64321500  0.32119900  1
  C  1451  1  0.67491500  0.62080800  0.31858400  1
  C  1452  1  0.62472900  0.61596800  0.31763800  1
  C  1453  1  0.59095700  0.63440100  0.31961200  1
  C  1456  1  0.60835700  0.65724400  0.32271600  1
  C  1457  1  0.53741600  0.62997600  0.31836000  1
  C  1461  1  0.57243400  0.67604400  0.32565600  1
  C  1465  1  0.68025800  0.68385700  0.32459400  1
  C  1467  1  0.61182500  0.59431100  0.31258300  1
  C  1469  1  0.65932100  0.11419200  0.45417100  1
  C  1470  1  0.69169300  0.13279200  0.45616600  1
  C  1471  1  0.67477700  0.15521200  0.45878100  1
  C  1472  1  0.62459400  0.16014200  0.45956500  1
  C  1473  1  0.59079000  0.14177300  0.45744300  1
  C  1476  1  0.60815000  0.11892600  0.45431200  1
  C  1477  1  0.53724900  0.14627700  0.45856900  1
  C  1481  1  0.57219800  0.10025200  0.45114300  1
  C  1485  1  0.68007300  0.09217800  0.45263300  1
  C  1487  1  0.61175200  0.18178900  0.46466100  1
  C  1489  1  0.90768700  0.91204700  0.70422100  1
  C  1490  1  0.93997900  0.89336600  0.70604700  1
  C  1491  1  0.92298200  0.87093800  0.70859200  1
  C  1492  1  0.87279200  0.86608900  0.70949400  1
  C  1493  1  0.83905000  0.88453600  0.70752600  1
  C  1496  1  0.85649000  0.90739800  0.70446100  1
  C  1497  1  0.78550900  0.88010800  0.70874400  1
  C  1501  1  0.82060000  0.92617800  0.70146100  1
  C  1505  1  0.92857600  0.93404000  0.70273400  1
  C  1507  1  0.85989600  0.84437900  0.71450200  1
  C  1509  1  0.90749100  0.36525500  0.57299000  1
  C  1510  1  0.93979700  0.38394800  0.57127800  1
  C  1511  1  0.92274200  0.40634100  0.56868100  1
  C  1512  1  0.87254200  0.41111600  0.56766400  1
  C  1513  1  0.83881700  0.39263800  0.56952300  1
  C  1516  1  0.85627600  0.36979700  0.57259800  1
  C  1517  1  0.78530200  0.39702000  0.56818300  1
  C  1521  1  0.82041400  0.35091200  0.57540100  1
  C  1525  1  0.92828600  0.34329100  0.57449900  1
  C  1527  1  0.85982300  0.43274900  0.56255600  1
  C  1529  1  0.36801000  0.36538400  0.70449900  1
  C  1530  1  0.33568500  0.38403400  0.70635200  1
  C  1531  1  0.35269500  0.40643300  0.70898000  1
  C  1532  1  0.40288700  0.41126300  0.70991500  1
  C  1533  1  0.43664300  0.39283300  0.70791700  1
  C  1536  1  0.41921400  0.36999800  0.70479800  1
  C  1537  1  0.49018800  0.39724600  0.70915700  1
  C  1541  1  0.45511600  0.35120200  0.70183400  1
  C  1545  1  0.34728900  0.34340100  0.70291600  1
  C  1547  1  0.41581900  0.43291100  0.71497400  1
  C  1549  1  0.36801000  0.91198600  0.57324000  1
  C  1550  1  0.33567300  0.89333600  0.57140300  1
  C  1551  1  0.35267500  0.87093400  0.56878100  1
  C  1552  1  0.40287200  0.86610400  0.56785300  1
  C  1553  1  0.43663200  0.88453400  0.56983300  1
  C  1556  1  0.41921100  0.90737000  0.57294500  1
  C  1557  1  0.49017000  0.88011300  0.56858500  1
  C  1561  1  0.45511900  0.92617100  0.57589800  1
  C  1565  1  0.34729400  0.93397400  0.57479100  1
  C  1567  1  0.41572500  0.84447200  0.56275500  1
  C  1569  1  0.61958500  0.11659600  0.82316800  1
  C  1570  1  0.58729700  0.13530500  0.82147500  1
  C  1571  1  0.60434100  0.15772100  0.81892000  1
  C  1572  1  0.65452700  0.16251800  0.81790300  1
  C  1573  1  0.68824400  0.14402200  0.81974400  1
  C  1576  1  0.67079700  0.12116200  0.82279100  1
  C  1577  1  0.74177400  0.14839800  0.81841900  1
  C  1581  1  0.70667600  0.10228600  0.82560000  1
  C  1585  1  0.59877900  0.09461800  0.82467600  1
  C  1587  1  0.66739100  0.18420900  0.81288300  1
  C  1589  1  0.61965800  0.66095400  0.95455100  1
  C  1590  1  0.58736200  0.64224400  0.95622800  1
  C  1591  1  0.60439900  0.61981400  0.95875200  1
  C  1592  1  0.65459600  0.61500700  0.95973300  1
  C  1593  1  0.68830900  0.63350700  0.95792200  1
  C  1596  1  0.67086600  0.65638200  0.95491400  1
  C  1597  1  0.74183600  0.62911200  0.95922800  1
  C  1601  1  0.70675600  0.67526800  0.95213400  1
  C  1605  1  0.59885900  0.68293400  0.95304500  1
  C  1607  1  0.66740200  0.59330400  0.96474800  1
  C  1609  1  0.15915300  0.66333700  0.82302600  1
  C  1610  1  0.19153300  0.64472400  0.82113800  1
  C  1611  1  0.17456000  0.62235500  0.81842600  1
  C  1612  1  0.12437600  0.61753600  0.81744500  1
  C  1613  1  0.09056800  0.63592200  0.81949200  1
  C  1616  1  0.10795600  0.65872800  0.82268700  1
  C  1617  1  0.03704700  0.63149700  0.81820400  1
  C  1621  1  0.07203100  0.67750400  0.82567400  1
  C  1625  1  0.17981800  0.68531200  0.82461900  1
  C  1627  1  0.11159900  0.59595100  0.81228700  1
  C  1629  1  0.15921300  0.11427500  0.95416100  1
  C  1630  1  0.19157200  0.13288300  0.95614300  1
  C  1631  1  0.17464400  0.15530400  0.95875100  1
  C  1632  1  0.12445900  0.16022600  0.95953600  1
  C  1633  1  0.09066500  0.14184900  0.95742600  1
  C  1636  1  0.10804000  0.11900100  0.95430300  1
  C  1637  1  0.03712200  0.14634400  0.95855400  1
  C  1641  1  0.07209900  0.10031700  0.95114300  1
  C  1645  1  0.17997800  0.09226300  0.95262700  1
  C  1647  1  0.11160400  0.18187500  0.96462900  1
  C  1649  1  0.40801900  0.91064800  0.20438800  1
  C  1650  1  0.44027100  0.89192200  0.20606400  1
  C  1651  1  0.42318700  0.86950800  0.20860400  1
  C  1652  1  0.37299000  0.86474400  0.20963400  1
  C  1653  1  0.33930000  0.88325000  0.20779600  1
  C  1656  1  0.35679700  0.90610600  0.20476400  1
  C  1657  1  0.28576200  0.87889500  0.20911500  1
  C  1661  1  0.32095500  0.92500500  0.20196800  1
  C  1665  1  0.42886500  0.93261700  0.20288900  1
  C  1667  1  0.36006500  0.84304200  0.21462400  1
  C  1669  1  0.40757200  0.36515800  0.07299700  1
  C  1670  1  0.43987800  0.38385000  0.07128100  1
  C  1671  1  0.42282700  0.40624500  0.06868100  1
  C  1672  1  0.37263000  0.41102100  0.06766500  1
  C  1673  1  0.33890100  0.39254700  0.06952900  1
  C  1676  1  0.35635600  0.36970500  0.07260500  1
  C  1677  1  0.28538700  0.39693000  0.06818900  1
  C  1681  1  0.32049100  0.35082400  0.07541200  1
  C  1685  1  0.42836300  0.34319400  0.07450800  1
  C  1687  1  0.35991400  0.43265600  0.06255700  1
  C  1689  1  0.86836500  0.36395800  0.20444700  1
  C  1690  1  0.83598600  0.38257200  0.20634300  1
  C  1691  1  0.85296100  0.40493700  0.20906100  1
  C  1692  1  0.90314700  0.40975700  0.21004000  1
  C  1693  1  0.93695500  0.39137200  0.20798700  1
  C  1696  1  0.91956200  0.36856800  0.20478600  1
  C  1697  1  0.99047400  0.39579500  0.20927500  1
  C  1701  1  0.95548500  0.34979600  0.20179200  1
  C  1705  1  0.84769400  0.34198300  0.20284600  1
  C  1707  1  0.91592700  0.43133800  0.21520100  1
  C  1709  1  0.86805300  0.91189200  0.07326300  1
  C  1710  1  0.83572100  0.89323500  0.07144300  1
  C  1711  1  0.85272800  0.87082900  0.06883300  1
  C  1712  1  0.90292500  0.86600100  0.06789900  1
  C  1713  1  0.93667800  0.88443900  0.06986300  1
  C  1716  1  0.91925700  0.90727900  0.07296500  1
  C  1717  1  0.99021600  0.88002300  0.06860700  1
  C  1721  1  0.95516500  0.92608600  0.07590600  1
  C  1725  1  0.84733800  0.93388300  0.07480400  1
  C  1727  1  0.91577800  0.84436500  0.06280600  1
  C  1729  1  0.35582600  0.26836400  0.37732100  1
  C  1730  1  0.37590100  0.24766100  0.38244500  1
  C  1731  1  0.40903700  0.24750300  0.39327700  1
  C  1732  1  0.42596100  0.26809900  0.39931000  1
  C  1733  1  0.40821500  0.28941900  0.39386900  1
  C  1736  1  0.37072200  0.28945900  0.38366800  1
  C  1737  1  0.42978400  0.31188700  0.39838400  1
  C  1741  1  0.34607100  0.31173100  0.38017200  1
  C  1745  1  0.32231300  0.26672200  0.36647100  1
  C  1747  1  0.45866000  0.26596800  0.41028700  1
  C  1749  1  0.35588900  0.50807400  0.40018200  1
  C  1750  1  0.37570900  0.52880100  0.39501100  1
  C  1751  1  0.40874200  0.52899200  0.38415300  1
  C  1752  1  0.42587300  0.50841200  0.37814500  1
  C  1753  1  0.40840100  0.48707800  0.38363400  1
  C  1756  1  0.37097300  0.48699100  0.39385400  1
  C  1757  1  0.43022400  0.46464500  0.37915200  1
  C  1761  1  0.34657100  0.46467600  0.39738800  1
  C  1765  1  0.32242100  0.50968800  0.41104900  1
  C  1767  1  0.45847100  0.51056800  0.36714200  1
  C  1769  1  0.67197100  0.75864000  0.65008600  1
  C  1770  1  0.65175000  0.77928600  0.64492500  1
  C  1771  1  0.61866900  0.77933900  0.63407900  1
  C  1772  1  0.60194500  0.75869000  0.62806600  1
  C  1773  1  0.61983600  0.73742500  0.63354500  1
  C  1776  1  0.65727900  0.73749600  0.64376000  1
  C  1777  1  0.59847000  0.71490100  0.62904900  1
  C  1781  1  0.68209400  0.71528000  0.64729300  1
  C  1785  1  0.70541900  0.76038600  0.66094600  1
  C  1787  1  0.56927900  0.76071300  0.61707200  1
  C  1789  1  0.67213800  0.51903800  0.62735000  1
  C  1790  1  0.65342200  0.49821900  0.63271300  1
  C  1791  1  0.62040300  0.49791700  0.64357500  1
  C  1792  1  0.60218200  0.51844100  0.64939700  1
  C  1793  1  0.61846200  0.53982800  0.64370400  1
  C  1796  1  0.65587900  0.54009600  0.63348100  1
  C  1797  1  0.59542800  0.56209100  0.64800400  1
  C  1801  1  0.67903700  0.56260600  0.62974000  1
  C  1805  1  0.70582600  0.51750400  0.61652500  1
  C  1807  1  0.56979500  0.51620700  0.66044200  1
  C  1809  1  0.85609800  0.26910400  0.87721300  1
  C  1810  1  0.87582000  0.24831400  0.88232400  1
  C  1811  1  0.90890500  0.24800300  0.89316700  1
  C  1812  1  0.92612300  0.26852000  0.89923000  1
  C  1813  1  0.90873000  0.28991800  0.89380700  1
  C  1816  1  0.87129100  0.29012300  0.88359100  1
  C  1817  1  0.93061900  0.31229200  0.89836100  1
  C  1821  1  0.84701800  0.31249500  0.88010600  1
  C  1825  1  0.82259200  0.26761100  0.86635200  1
  C  1827  1  0.95873100  0.26623900  0.91021900  1
  C  1829  1  0.85631900  0.50832700  0.90026100  1
  C  1830  1  0.87509700  0.52920100  0.89498800  1
  C  1831  1  0.90813800  0.52962000  0.88413400  1
  C  1832  1  0.92632600  0.50915900  0.87822800  1
  C  1833  1  0.90992600  0.48770900  0.88381500  1
  C  1836  1  0.87248700  0.48734000  0.89403100  1
  C  1837  1  0.93286200  0.46548100  0.87941700  1
  C  1841  1  0.84921300  0.46480300  0.89766400  1
  C  1845  1  0.82268600  0.50973800  0.91110500  1
  C  1847  1  0.95881500  0.51151900  0.86721400  1
  C  1849  1  0.17172100  0.75791000  0.15020300  1
  C  1850  1  0.15184600  0.77864300  0.14505300  1
  C  1851  1  0.11880100  0.77884400  0.13420000  1
  C  1852  1  0.10176300  0.75827100  0.12816500  1
  C  1853  1  0.11930400  0.73693000  0.13362700  1
  C  1856  1  0.15671500  0.73683800  0.14385200  1
  C  1857  1  0.09759500  0.71449500  0.12910500  1
  C  1861  1  0.18117200  0.71452600  0.14736900  1
  C  1865  1  0.20517400  0.75951100  0.16107200  1
  C  1867  1  0.06916700  0.76043700  0.11716300  1
  C  1869  1  0.17172000  0.51872200  0.12730200  1
  C  1870  1  0.15310800  0.49785700  0.13263100  1
  C  1871  1  0.11997800  0.49746700  0.14346500  1
  C  1872  1  0.10154400  0.51794400  0.14929200  1
  C  1873  1  0.11775500  0.53937500  0.14364200  1
  C  1876  1  0.15526100  0.53973400  0.13344400  1
  C  1877  1  0.09456600  0.56159000  0.14796300  1
  C  1881  1  0.17828300  0.56229200  0.12973800  1
  C  1885  1  0.20551800  0.51726900  0.11650000  1
  C  1887  1  0.06903500  0.51561900  0.16030400  1
  C  1889  1  0.85594900  0.76759900  0.37728800  1
  C  1890  1  0.87468300  0.74676700  0.38262800  1
  C  1891  1  0.90760700  0.74642400  0.39351100  1
  C  1892  1  0.92572300  0.76692200  0.39939400  1
  C  1893  1  0.90939200  0.78832800  0.39373300  1
  C  1896  1  0.87204400  0.78862500  0.38349000  1
  C  1897  1  0.93233800  0.81058900  0.39807100  1
  C  1901  1  0.84874400  0.81113400  0.37981200  1
  C  1905  1  0.82242100  0.76610000  0.36641800  1
  C  1907  1  0.95809900  0.76462600  0.41044500  1
  C  1909  1  0.85592700  0.00893400  0.40022200  1
  C  1910  1  0.87586400  0.02964200  0.39506000  1
  C  1911  1  0.90868700  0.02981500  0.38415100  1
  C  1912  1  0.92551200  0.00923200  0.37807800  1
  C  1913  1  0.90793000  0.98791000  0.38356100  1
  C  1916  1  0.87067000  0.98785700  0.39382900  1
  C  1917  1  0.92951400  0.96544800  0.37904200  1
  C  1921  1  0.84604000  0.96558200  0.39733400  1
  C  1925  1  0.82269300  0.01056600  0.41114800  1
  C  1927  1  0.95796800  0.01138200  0.36703600  1
  C  1929  1  0.17187500  0.25941200  0.65014500  1
  C  1930  1  0.15285200  0.28017200  0.64478700  1
  C  1931  1  0.11993800  0.28038200  0.63390000  1
  C  1932  1  0.10211900  0.25981200  0.62803400  1
  C  1933  1  0.11873800  0.23847100  0.63371600  1
  C  1936  1  0.15608900  0.23831900  0.64396000  1
  C  1937  1  0.09609300  0.21612600  0.62940400  1
  C  1941  1  0.17972800  0.21589700  0.64764800  1
  C  1945  1  0.20534600  0.26103300  0.66102300  1
  C  1947  1  0.06972400  0.26197000  0.61697800  1
  C  1949  1  0.17204500  0.01797200  0.62736600  1
  C  1950  1  0.15261600  0.99724200  0.63264900  1
  C  1951  1  0.11973200  0.99707300  0.64354200  1
  C  1952  1  0.10233000  0.01766600  0.64947500  1
  C  1953  1  0.11935600  0.03898900  0.64386500  1
  C  1956  1  0.15668400  0.03907700  0.63361600  1
  C  1957  1  0.09714300  0.06139400  0.64824300  1
  C  1961  1  0.18073100  0.06143300  0.62998700  1
  C  1965  1  0.20543900  0.01632300  0.61647700  1
  C  1967  1  0.06993600  0.01553800  0.66053000  1
  C  1969  1  0.35622200  0.76838800  0.87719100  1
  C  1970  1  0.37460700  0.74746800  0.88250900  1
  C  1971  1  0.40749900  0.74696200  0.89339900  1
  C  1972  1  0.42592800  0.76737200  0.89931200  1
  C  1973  1  0.40996000  0.78885800  0.89367500  1
  C  1976  1  0.37264100  0.78933000  0.88342400  1
  C  1977  1  0.43326300  0.81101600  0.89804400  1
  C  1981  1  0.34971700  0.81193600  0.87976900  1
  C  1985  1  0.32268300  0.76704900  0.86631500  1
  C  1987  1  0.45823400  0.76492200  0.91036800  1
  C  1989  1  0.35629800  0.00932000  0.90027800  1
  C  1990  1  0.37597000  0.03010300  0.89514000  1
  C  1991  1  0.40889900  0.03040400  0.88425700  1
  C  1992  1  0.42608800  0.00988600  0.87818800  1
  C  1993  1  0.40875700  0.98849700  0.88364000  1
  C  1996  1  0.37140500  0.98830200  0.89388300  1
  C  1997  1  0.43067500  0.96611400  0.87911100  1
  C  2001  1  0.34708600  0.96594100  0.89736300  1
  C  2005  1  0.32294900  0.01082800  0.91118100  1
  C  2007  1  0.45861600  0.01216500  0.86717300  1
  C  2009  1  0.67157100  0.25858700  0.15022900  1
  C  2010  1  0.65296800  0.27944200  0.14488100  1
  C  2011  1  0.62010900  0.27982300  0.13398200  1
  C  2012  1  0.60193100  0.25934600  0.12809000  1
  C  2013  1  0.61811300  0.23792200  0.13376000  1
  C  2016  1  0.65540700  0.23758100  0.14401900  1
  C  2017  1  0.59506800  0.21569000  0.12941300  1
  C  2021  1  0.67858200  0.21504800  0.14770100  1
  C  2025  1  0.70505100  0.26004300  0.16111400  1
  C  2027  1  0.56963500  0.26166800  0.11702200  1
  C  2029  1  0.67164700  0.01764300  0.12727800  1
  C  2030  1  0.65292000  0.99679500  0.13259700  1
  C  2031  1  0.62001100  0.99642400  0.14348300  1
  C  2032  1  0.60188400  0.01690900  0.14937600  1
  C  2033  1  0.61819700  0.03833200  0.14373500  1
  C  2036  1  0.65554100  0.03865700  0.13349100  1
  C  2037  1  0.59523500  0.06058000  0.14808900  1
  C  2041  1  0.67881100  0.06117700  0.12982200  1
  C  2045  1  0.70517100  0.01617800  0.11640900  1
  C  2047  1  0.56954800  0.01459200  0.16043100  1
  N  21  1  0.10689500  0.26376900  0.29258600  1
  N  22  1  0.16582300  0.20171600  0.31994800  1
  N  23  1  0.31025600  0.33495900  0.32138600  1
  N  24  1  0.32596900  0.27992700  0.35586700  1
  N  45  1  0.10725600  0.51225700  0.48506100  1
  N  46  1  0.16581300  0.57441900  0.45775000  1
  N  47  1  0.31060900  0.44134800  0.45610800  1
  N  48  1  0.32609100  0.49647900  0.42165300  1
  N  69  1  0.66934300  0.51290200  0.29222400  1
  N  70  1  0.61279500  0.57551200  0.31959700  1
  N  71  1  0.45003800  0.44812500  0.31921300  1
  N  72  1  0.45436000  0.49831700  0.35634000  1
  N  93  1  0.66965500  0.26314300  0.48510200  1
  N  94  1  0.61272600  0.20063100  0.45768300  1
  N  95  1  0.45041900  0.32819400  0.45829500  1
  N  96  1  0.45442100  0.27812900  0.42111900  1
  N  117  1  0.92071100  0.76353200  0.73488300  1
  N  118  1  0.86171000  0.82555800  0.70751600  1
  N  119  1  0.71744600  0.69227600  0.70609600  1
  N  120  1  0.70182000  0.74721200  0.67156600  1
  N  141  1  0.91770800  0.51061800  0.54129500  1
  N  142  1  0.86071000  0.45154400  0.56957500  1
  N  143  1  0.71862800  0.58540200  0.57128200  1
  N  144  1  0.70212500  0.53052100  0.60583600  1
  N  165  1  0.35858400  0.51438900  0.73529800  1
  N  166  1  0.41496900  0.45170400  0.70795500  1
  N  167  1  0.57782400  0.57906800  0.70822800  1
  N  168  1  0.57351400  0.52873500  0.67114700  1
  N  189  1  0.35809500  0.76314400  0.54231500  1
  N  190  1  0.41481200  0.82564600  0.56974300  1
  N  191  1  0.57814100  0.69844300  0.56906700  1
  N  192  1  0.57364400  0.74850800  0.60626100  1
  N  213  1  0.60695400  0.26507500  0.79252000  1
  N  214  1  0.66568200  0.20301300  0.81988300  1
  N  215  1  0.81075600  0.33605800  0.82135500  1
  N  216  1  0.82637500  0.28086300  0.85577000  1
  N  237  1  0.60711000  0.51237100  0.98505800  1
  N  238  1  0.66575900  0.57450700  0.95773900  1
  N  239  1  0.81019700  0.44134100  0.95611600  1
  N  240  1  0.82645900  0.49659300  0.92173900  1
  N  261  1  0.16659500  0.51750900  0.79108600  1
  N  262  1  0.11151100  0.57717700  0.81932800  1
  N  263  1  0.95091600  0.44916800  0.81922100  1
  N  264  1  0.95520500  0.49911800  0.85645800  1
  N  285  1  0.16957300  0.26319600  0.98509400  1
  N  286  1  0.11262200  0.20071900  0.95765400  1
  N  287  1  0.95011700  0.32820300  0.95833800  1
  N  288  1  0.95457300  0.27835900  0.92106900  1
  N  309  1  0.42069700  0.76219300  0.23496000  1
  N  310  1  0.36188300  0.82424900  0.20761600  1
  N  311  1  0.21690500  0.69118400  0.20612900  1
  N  312  1  0.20146000  0.74628900  0.17166900  1
  N  333  1  0.41771300  0.51056800  0.04132200  1
  N  334  1  0.36074700  0.45144700  0.06958000  1
  N  335  1  0.21853600  0.58527600  0.07131500  1
  N  336  1  0.20184300  0.53030800  0.10581800  1
  N  357  1  0.86109900  0.50980600  0.23639600  1
  N  358  1  0.91608700  0.45011000  0.20815700  1
  N  359  1  0.07676900  0.57810200  0.20824800  1
  N  360  1  0.07256700  0.52809200  0.17103400  1
  N  381  1  0.85811500  0.76306800  0.04233400  1
  N  382  1  0.91481100  0.82553700  0.06979300  1
  N  383  1  0.07806700  0.69831300  0.06909700  1
  N  384  1  0.07339400  0.74825100  0.10634100  1
  N  405  1  0.61257000  0.76069400  0.29059700  1
  N  406  1  0.66882300  0.70024400  0.31645100  1
  N  407  1  0.81002200  0.83477600  0.32155300  1
  N  408  1  0.82613500  0.77922200  0.35577100  1
  N  429  1  0.60887000  0.01227500  0.48551400  1
  N  430  1  0.66755400  0.07555400  0.46048700  1
  N  431  1  0.81104400  0.94161800  0.45591600  1
  N  432  1  0.82637200  0.99726300  0.42171300  1
  N  453  1  0.16752900  0.01286500  0.29176900  1
  N  454  1  0.11112500  0.07666300  0.31683000  1
  N  455  1  0.94915000  0.94840400  0.31933100  1
  N  456  1  0.95378400  0.99911500  0.35624300  1
  N  477  1  0.16392200  0.76021500  0.48713300  1
  N  478  1  0.10991500  0.69913800  0.46133200  1
  N  479  1  0.95005800  0.82794500  0.45803000  1
  N  480  1  0.95455800  0.77716100  0.42115100  1
  N  501  1  0.41499400  0.26655300  0.73690100  1
  N  502  1  0.35872900  0.32699700  0.71104800  1
  N  503  1  0.21756000  0.19246100  0.70593800  1
  N  504  1  0.20169300  0.24793600  0.67167800  1
  N  525  1  0.41535000  0.01067800  0.54076800  1
  N  526  1  0.35878500  0.95034400  0.56664200  1
  N  527  1  0.21746000  0.08488100  0.57154400  1
  N  528  1  0.20171200  0.02946100  0.60584400  1
  N  549  1  0.86020500  0.01442100  0.73574700  1
  N  550  1  0.91648700  0.95059300  0.71069400  1
  N  551  1  0.07848300  0.07884800  0.70811100  1
  N  552  1  0.07393400  0.02798500  0.67125800  1
  N  573  1  0.86386200  0.26601100  0.54031800  1
  N  574  1  0.91742100  0.32706600  0.56618700  1
  N  575  1  0.07808500  0.19851100  0.56944500  1
  N  576  1  0.07340100  0.24938800  0.60629400  1
  N  597  1  0.11264600  0.76209900  0.79053700  1
  N  598  1  0.16853700  0.70163900  0.81642100  1
  N  599  1  0.31041200  0.83596600  0.82155500  1
  N  600  1  0.32647500  0.78024300  0.85570000  1
  N  621  1  0.10896700  0.01231100  0.98550800  1
  N  622  1  0.16748100  0.07564400  0.96048800  1
  N  623  1  0.31121100  0.94176600  0.95588300  1
  N  624  1  0.32671400  0.99752200  0.92174200  1
  N  645  1  0.66445400  0.01744000  0.79058100  1
  N  646  1  0.60992700  0.07830600  0.81644800  1
  N  647  1  0.44994000  0.94950200  0.81933500  1
  N  648  1  0.45463200  0.99993300  0.85636200  1
  N  669  1  0.66392700  0.76027000  0.98712500  1
  N  670  1  0.60990600  0.69923800  0.96129100  1
  N  671  1  0.45018700  0.82808700  0.95801700  1
  N  672  1  0.45483900  0.77742800  0.92109000  1
  N  693  1  0.91494600  0.26522100  0.23693400  1
  N  694  1  0.85898400  0.32564500  0.21103400  1
  N  695  1  0.71727200  0.19127100  0.20594600  1
  N  696  1  0.70130800  0.24688700  0.17174600  1
  N  717  1  0.91538900  0.01056200  0.04075700  1
  N  718  1  0.85884200  0.95024400  0.06665100  1
  N  719  1  0.71769000  0.08483100  0.07153300  1
  N  720  1  0.70137300  0.02930400  0.10576900  1
  N  741  1  0.36344300  0.00985700  0.23697300  1
  N  742  1  0.41777900  0.94891800  0.21113200  1
  N  743  1  0.57787900  0.07769000  0.20811500  1
  N  744  1  0.57320100  0.02708800  0.17114900  1
  N  765  1  0.36388100  0.26594800  0.04030500  1
  N  766  1  0.41748800  0.32696300  0.06620100  1
  N  767  1  0.57823900  0.19844300  0.06938700  1
  N  768  1  0.57318600  0.24911900  0.10632100  1
  O  8  1  0.35091000  0.31951900  0.34466100  1
  O  15  1  0.09797400  0.21973300  0.30276800  1
  O  32  1  0.35117500  0.45687200  0.43282000  1
  O  39  1  0.09817400  0.55631400  0.47496300  1
  O  56  1  0.41675000  0.46265400  0.34349800  1
  O  63  1  0.67989500  0.55686600  0.30236600  1
  O  80  1  0.41697200  0.31376700  0.43401500  1
  O  87  1  0.68004700  0.21918900  0.47488100  1
  O  104  1  0.67685600  0.70765700  0.68280200  1
  O  111  1  0.92955100  0.80757300  0.72470400  1
  O  128  1  0.67758300  0.57010100  0.59453800  1
  O  135  1  0.92293100  0.46796500  0.55019800  1
  O  152  1  0.61096700  0.56452800  0.68391400  1
  O  159  1  0.34789100  0.47042300  0.72516900  1
  O  176  1  0.61148000  0.71295800  0.59335800  1
  O  183  1  0.34746700  0.80702800  0.55258100  1
  O  200  1  0.85151800  0.32047000  0.84459200  1
  O  207  1  0.59781300  0.22108500  0.80273200  1
  O  224  1  0.85110300  0.45688100  0.93287700  1
  O  231  1  0.59813600  0.55644100  0.97497000  1
  O  248  1  0.91767500  0.46352300  0.84354200  1
  O  255  1  0.17340800  0.56011600  0.79999800  1
  O  272  1  0.91688300  0.31387000  0.93401600  1
  O  279  1  0.17993500  0.21925500  0.97485900  1
  O  296  1  0.17625500  0.70672400  0.18287400  1
  O  303  1  0.42973000  0.80619500  0.22477000  1
  O  320  1  0.17738100  0.56992700  0.09454700  1
  O  327  1  0.42299100  0.46791000  0.05021700  1
  O  344  1  0.10999700  0.56374300  0.18392200  1
  O  351  1  0.85420000  0.46720500  0.22748300  1
  O  368  1  0.11128700  0.71275300  0.09341100  1
  O  375  1  0.84750500  0.80694900  0.05260900  1
  O  392  1  0.85036200  0.81912500  0.34483800  1
  O  399  1  0.61220300  0.71709100  0.29745500  1
  O  416  1  0.85108900  0.95739200  0.43259700  1
  O  423  1  0.60397700  0.05749700  0.47728600  1
  O  440  1  0.91634900  0.96318100  0.34364100  1
  O  447  1  0.17417400  0.05800700  0.30007200  1
  O  464  1  0.91749700  0.81325900  0.43367700  1
  O  471  1  0.16612100  0.71662700  0.48025500  1
  O  488  1  0.17735400  0.20807900  0.68263400  1
  O  495  1  0.41532500  0.31015800  0.73005000  1
  O  512  1  0.17724700  0.06927900  0.59486600  1
  O  519  1  0.41571400  0.96712300  0.54770300  1
  O  536  1  0.11120300  0.06404300  0.68378800  1
  O  543  1  0.85348400  0.96928100  0.72745600  1
  O  560  1  0.11068000  0.21330900  0.59378300  1
  O  567  1  0.86136100  0.30957000  0.54723600  1
  O  584  1  0.35084600  0.82018100  0.84480500  1
  O  591  1  0.11203200  0.71851100  0.79740900  1
  O  608  1  0.35140000  0.95761700  0.93259800  1
  O  615  1  0.10394000  0.05754000  0.97728400  1
  O  632  1  0.41723700  0.96408900  0.84368300  1
  O  639  1  0.66651800  0.06096200  0.79757700  1
  O  656  1  0.41772000  0.81347100  0.93364400  1
  O  663  1  0.66607100  0.71668900  0.98023200  1
  O  680  1  0.67690700  0.20699200  0.18267500  1
  O  687  1  0.91549800  0.30880600  0.23005100  1
  O  704  1  0.67722700  0.06920900  0.09481800  1
  O  711  1  0.91574200  0.96700900  0.04769800  1
  O  728  1  0.61044400  0.06307000  0.18374200  1
  O  735  1  0.36127700  0.96632100  0.23000600  1
  O  752  1  0.61064000  0.21314300  0.09376300  1
  O  759  1  0.36142300  0.30949700  0.04724200  1
