# generated using pymatgen
data_H7C13N2
_symmetry_space_group_name_H-M   'P 1'
_cell_length_a   32.81720000
_cell_length_b   32.81720000
_cell_length_c   32.81720000
_cell_angle_alpha   90.00000000
_cell_angle_beta   90.00000000
_cell_angle_gamma   90.00000000
_symmetry_Int_Tables_number   1
_chemical_formula_structural   H7C13N2
_chemical_formula_sum   'H336 C624 N96'
_cell_volume   35343.09445974
_cell_formula_units_Z   48
loop_
 _symmetry_equiv_pos_site_id
 _symmetry_equiv_pos_as_xyz
  1  'x, y, z'
loop_
 _atom_site_type_symbol
 _atom_site_label
 _atom_site_symmetry_multiplicity
 _atom_site_fract_x
 _atom_site_fract_y
 _atom_site_fract_z
 _atom_site_occupancy
  H  9  1  0.07173500  0.27141400  0.44157700  1
  H  17  1  0.17899700  0.49532000  0.31894600  1
  H  19  1  0.05954200  0.41781500  0.30375000  1
  H  20  1  0.03531100  0.35588700  0.33025700  1
  H  21  1  0.22571800  0.40128400  0.42137100  1
  H  22  1  0.19458200  0.34744000  0.45698600  1
  H  31  1  0.43729200  0.73770500  0.94155900  1
  H  39  1  0.33010800  0.51376400  0.81894000  1
  H  41  1  0.44948400  0.59137600  0.80369200  1
  H  42  1  0.47366300  0.65331000  0.83016600  1
  H  43  1  0.28341500  0.60764800  0.92151400  1
  H  44  1  0.31451800  0.66153800  0.95708400  1
  H  53  1  0.93738400  0.77160800  0.06742500  1
  H  61  1  0.83002000  0.99544500  0.19010000  1
  H  63  1  0.94934100  0.91778500  0.20549900  1
  H  64  1  0.97360600  0.85588400  0.17894700  1
  H  65  1  0.78341000  0.90154300  0.08748300  1
  H  66  1  0.81455200  0.84767500  0.05192400  1
  H  75  1  0.57143800  0.23747900  0.56748900  1
  H  83  1  0.67901600  0.01388400  0.69042200  1
  H  85  1  0.55947800  0.09127400  0.70552100  1
  H  86  1  0.53517700  0.15315400  0.67895200  1
  H  87  1  0.72567500  0.10792200  0.58794500  1
  H  88  1  0.69447200  0.16169800  0.55226900  1
  H  97  1  0.44171700  0.07174300  0.27149900  1
  H  105  1  0.31922900  0.17890500  0.49552700  1
  H  107  1  0.30381500  0.05958800  0.41783300  1
  H  108  1  0.33032400  0.03537000  0.35589300  1
  H  109  1  0.42143500  0.22577400  0.40133200  1
  H  110  1  0.45700100  0.19468500  0.34743100  1
  H  119  1  0.94155600  0.43751800  0.73763500  1
  H  127  1  0.81966800  0.32986400  0.51353300  1
  H  129  1  0.80397800  0.44938000  0.59100400  1
  H  130  1  0.83032400  0.47370900  0.65294800  1
  H  131  1  0.92153600  0.28321200  0.60808100  1
  H  132  1  0.95704100  0.31445100  0.66196700  1
  H  141  1  0.06756600  0.93737800  0.77155000  1
  H  149  1  0.19040100  0.83026300  0.99542400  1
  H  151  1  0.20570300  0.94951800  0.91764100  1
  H  152  1  0.17910400  0.97371900  0.85574400  1
  H  153  1  0.08770500  0.78355000  0.90165900  1
  H  154  1  0.05210300  0.81463100  0.84778200  1
  H  163  1  0.56754100  0.57149300  0.23754600  1
  H  171  1  0.69060200  0.67898300  0.01398000  1
  H  173  1  0.70564900  0.55951200  0.09139700  1
  H  174  1  0.67905000  0.53523200  0.15327400  1
  H  175  1  0.58778400  0.72553200  0.10774700  1
  H  176  1  0.55209500  0.69432500  0.16149600  1
  H  185  1  0.27150400  0.44173800  0.07181500  1
  H  193  1  0.49554500  0.31945200  0.17919700  1
  H  195  1  0.41794000  0.30392700  0.05977800  1
  H  196  1  0.35600300  0.33040000  0.03549900  1
  H  197  1  0.40116200  0.42143800  0.22600700  1
  H  198  1  0.34727800  0.45701700  0.19484900  1
  H  207  1  0.73762600  0.94153100  0.43756700  1
  H  215  1  0.51381000  0.81890600  0.33013800  1
  H  217  1  0.59136700  0.80356100  0.44952100  1
  H  218  1  0.65324300  0.83009600  0.47381300  1
  H  219  1  0.60775800  0.92148400  0.28353800  1
  H  220  1  0.66163200  0.95703200  0.31469500  1
  H  229  1  0.77143100  0.06750300  0.93723500  1
  H  237  1  0.99530200  0.19034100  0.83012600  1
  H  239  1  0.91762300  0.20553000  0.94944200  1
  H  240  1  0.85570400  0.17896500  0.97362700  1
  H  241  1  0.90158900  0.08754300  0.78346500  1
  H  242  1  0.84772700  0.05195100  0.81455200  1
  H  251  1  0.23748000  0.56753500  0.57141100  1
  H  259  1  0.01382000  0.69023900  0.67911400  1
  H  261  1  0.09111200  0.70540800  0.55949000  1
  H  262  1  0.15300300  0.67889700  0.53516500  1
  H  263  1  0.10795900  0.58786600  0.72569000  1
  H  264  1  0.16172100  0.55219900  0.69443500  1
  H  273  1  0.02155100  0.30332300  0.83707400  1
  H  281  1  0.23961500  0.44711600  0.92671000  1
  H  283  1  0.16842300  0.32799900  0.96931900  1
  H  284  1  0.10721800  0.29653100  0.95077900  1
  H  285  1  0.13611800  0.47142700  0.82796000  1
  H  286  1  0.08176900  0.43279800  0.80138500  1
  H  295  1  0.48763200  0.70563600  0.33683000  1
  H  303  1  0.26939400  0.56210500  0.42643200  1
  H  305  1  0.34067500  0.68116200  0.46899800  1
  H  306  1  0.40191100  0.71256000  0.45049000  1
  H  307  1  0.37292100  0.53762400  0.32774000  1
  H  308  1  0.42729800  0.57620100  0.30115800  1
  H  317  1  0.52163800  0.20609400  0.17239300  1
  H  325  1  0.73932000  0.06209700  0.08209900  1
  H  327  1  0.66822900  0.18135700  0.03981100  1
  H  328  1  0.60712700  0.21293500  0.05852800  1
  H  329  1  0.63606000  0.03786600  0.18113700  1
  H  330  1  0.58176800  0.07651300  0.20780700  1
  H  339  1  0.98751000  0.80328700  0.67236400  1
  H  347  1  0.76953600  0.94719600  0.58265200  1
  H  349  1  0.84068500  0.82804500  0.54008300  1
  H  350  1  0.90185400  0.79651900  0.55866500  1
  H  351  1  0.87298200  0.97142700  0.68148500  1
  H  352  1  0.92726700  0.93275200  0.70809900  1
  H  361  1  0.80335400  0.67230600  0.98746800  1
  H  369  1  0.94698300  0.58265200  0.76931700  1
  H  371  1  0.82792900  0.54005200  0.84060800  1
  H  372  1  0.79652200  0.55857300  0.90185100  1
  H  373  1  0.97143600  0.68133800  0.87285100  1
  H  374  1  0.93283200  0.70793700  0.92720600  1
  H  383  1  0.20597400  0.17221800  0.52158700  1
  H  391  1  0.06195900  0.08224000  0.73937500  1
  H  393  1  0.18112600  0.03975700  0.66823500  1
  H  394  1  0.21265400  0.05836600  0.60709400  1
  H  395  1  0.03783900  0.18130300  0.63612700  1
  H  396  1  0.07648600  0.20790500  0.58182000  1
  H  405  1  0.70578000  0.33668000  0.48770500  1
  H  413  1  0.56227600  0.42638000  0.26947400  1
  H  415  1  0.68143900  0.46885200  0.34065700  1
  H  416  1  0.71292800  0.45026400  0.40184100  1
  H  417  1  0.53763900  0.32791700  0.37319200  1
  H  418  1  0.57622300  0.30132100  0.42756600  1
  H  427  1  0.30332900  0.83713500  0.02149300  1
  H  435  1  0.44747600  0.92683200  0.23931200  1
  H  437  1  0.32826100  0.96939800  0.16827100  1
  H  438  1  0.29672900  0.95085900  0.10710500  1
  H  439  1  0.47152400  0.82787700  0.13594300  1
  H  440  1  0.43279500  0.80126900  0.08170000  1
  H  449  1  0.17221900  0.52166000  0.20595600  1
  H  457  1  0.08248700  0.73969200  0.06215400  1
  H  459  1  0.03988100  0.66848800  0.18126300  1
  H  460  1  0.05845900  0.60729800  0.21276200  1
  H  461  1  0.18130200  0.63625200  0.03787800  1
  H  462  1  0.20787500  0.58189300  0.07650700  1
  H  471  1  0.67227600  0.98738200  0.80318900  1
  H  479  1  0.58238700  0.76960900  0.94725100  1
  H  481  1  0.53989400  0.84073000  0.82806600  1
  H  482  1  0.55847000  0.90188100  0.79654600  1
  H  483  1  0.68141400  0.87290600  0.97137200  1
  H  484  1  0.70800400  0.92720600  0.93270700  1
  H  493  1  0.83685100  0.02154000  0.30327300  1
  H  501  1  0.92642300  0.23968700  0.44691800  1
  H  503  1  0.96905000  0.16843400  0.32785000  1
  H  504  1  0.95053000  0.10722200  0.29640000  1
  H  505  1  0.82798700  0.13592800  0.47152100  1
  H  506  1  0.80138200  0.08160100  0.43289500  1
  H  515  1  0.33690900  0.48779600  0.70564600  1
  H  523  1  0.42671200  0.26968400  0.56198000  1
  H  525  1  0.46918400  0.34086700  0.68112800  1
  H  526  1  0.45058700  0.40206700  0.71259900  1
  H  527  1  0.32789800  0.37312200  0.53761800  1
  H  528  1  0.30126600  0.42744700  0.57623500  1
  H  535  1  0.30700700  0.48858300  0.42979000  1
  H  537  1  0.30372400  0.57324200  0.30739100  1
  H  538  1  0.25132100  0.56440900  0.30079100  1
  H  539  1  0.28742300  0.53413500  0.27433600  1
  H  546  1  0.20206300  0.52056300  0.92985100  1
  H  548  1  0.20527400  0.43568600  0.80761700  1
  H  549  1  0.25766400  0.44444700  0.80086400  1
  H  550  1  0.22153500  0.47479400  0.77453600  1
  H  557  1  0.70180900  0.98837000  0.07921200  1
  H  559  1  0.70539000  0.07377700  0.20113100  1
  H  560  1  0.75786500  0.06515000  0.20740500  1
  H  561  1  0.72204900  0.03490000  0.23426500  1
  H  568  1  0.80691900  0.02064300  0.57945900  1
  H  570  1  0.80363100  0.93578400  0.70166000  1
  H  571  1  0.75121600  0.94459700  0.70816600  1
  H  572  1  0.78725500  0.97479700  0.73478600  1
  H  579  1  0.42971700  0.30730600  0.48840000  1
  H  581  1  0.30767100  0.30386700  0.57336100  1
  H  582  1  0.30111500  0.25142500  0.56475900  1
  H  583  1  0.27462900  0.28736500  0.53432700  1
  H  590  1  0.93021400  0.20215500  0.52021800  1
  H  592  1  0.80733300  0.20505900  0.43637200  1
  H  593  1  0.80047100  0.25738400  0.44542800  1
  H  594  1  0.77442400  0.22101900  0.47574200  1
  H  601  1  0.07943200  0.70215100  0.98867100  1
  H  603  1  0.20158200  0.70543800  0.07366300  1
  H  604  1  0.20826900  0.75784700  0.06495900  1
  H  605  1  0.23467600  0.72178400  0.03460500  1
  H  612  1  0.57957100  0.80722400  0.02089900  1
  H  614  1  0.70141000  0.80363700  0.93550100  1
  H  615  1  0.70785200  0.75117700  0.94409400  1
  H  616  1  0.73452400  0.78705700  0.97443200  1
  H  623  1  0.48892100  0.43004000  0.30704000  1
  H  625  1  0.57290700  0.30723200  0.30406000  1
  H  626  1  0.56394500  0.30045300  0.25170400  1
  H  627  1  0.53359200  0.27431600  0.28797100  1
  H  634  1  0.52105900  0.92964700  0.20182800  1
  H  636  1  0.43573200  0.80777800  0.20521900  1
  H  637  1  0.44424000  0.80130900  0.25768700  1
  H  638  1  0.47464200  0.77465500  0.22184500  1
  H  645  1  0.98817800  0.07946100  0.70174800  1
  H  647  1  0.07380700  0.20121300  0.70547500  1
  H  648  1  0.06532100  0.20732900  0.75799600  1
  H  649  1  0.03504600  0.23437500  0.72234100  1
  H  656  1  0.02027300  0.57913000  0.80667500  1
  H  658  1  0.93589400  0.70172400  0.80363400  1
  H  659  1  0.94500800  0.70856500  0.75131700  1
  H  660  1  0.97513300  0.73480700  0.78769700  1
  H  667  1  0.80878400  0.98665100  0.91088600  1
  H  669  1  0.77290900  0.10326700  0.82699400  1
  H  670  1  0.72057400  0.09832700  0.83861900  1
  H  671  1  0.74066700  0.07648400  0.79343500  1
  H  678  1  0.70031000  0.02245000  0.41084900  1
  H  680  1  0.73648600  0.90542500  0.32756600  1
  H  681  1  0.78878800  0.91042900  0.33932500  1
  H  682  1  0.76883200  0.93202700  0.29396400  1
  H  689  1  0.20019100  0.48653800  0.59835400  1
  H  691  1  0.23653700  0.60390000  0.68106400  1
  H  692  1  0.28881800  0.59887500  0.66922900  1
  H  693  1  0.26895600  0.57742900  0.71470200  1
  H  700  1  0.30902100  0.52283000  0.09895700  1
  H  702  1  0.27230700  0.40539700  0.18143300  1
  H  703  1  0.22010700  0.41038000  0.16921300  1
  H  704  1  0.23962700  0.43185000  0.21482200  1
  H  711  1  0.91068800  0.80897000  0.98640100  1
  H  713  1  0.82742900  0.77274500  0.10342500  1
  H  714  1  0.83942600  0.72049200  0.09847700  1
  H  715  1  0.79399900  0.74023100  0.07682200  1
  H  722  1  0.41092200  0.70049600  0.02238100  1
  H  724  1  0.32702700  0.73630300  0.90573900  1
  H  725  1  0.33867000  0.78863900  0.91065100  1
  H  726  1  0.29347500  0.76857600  0.93249300  1
  H  733  1  0.59877800  0.19994300  0.48633700  1
  H  735  1  0.68077500  0.23673700  0.60409800  1
  H  736  1  0.66854600  0.28893000  0.59906100  1
  H  737  1  0.71427200  0.26944200  0.57780700  1
  H  744  1  0.09828600  0.30872900  0.52244600  1
  H  746  1  0.18176700  0.27268800  0.40551900  1
  H  747  1  0.17010600  0.22036800  0.41055300  1
  H  748  1  0.21542000  0.24042300  0.43215800  1
  H  755  1  0.98673000  0.91089500  0.80891800  1
  H  757  1  0.10343900  0.82720100  0.77289100  1
  H  758  1  0.09846000  0.83888100  0.72057100  1
  H  759  1  0.07668500  0.79364500  0.74062100  1
  H  766  1  0.02253300  0.41069000  0.70038300  1
  H  768  1  0.90542500  0.32760000  0.73671800  1
  H  769  1  0.91046200  0.33941700  0.78900400  1
  H  770  1  0.93200300  0.29400900  0.76909700  1
  H  777  1  0.48658100  0.59812600  0.20020200  1
  H  779  1  0.60366600  0.68132900  0.23633700  1
  H  780  1  0.59865300  0.66963400  0.28864900  1
  H  781  1  0.57707000  0.71497900  0.26864100  1
  H  788  1  0.52276900  0.09882800  0.30898500  1
  H  790  1  0.40536700  0.18143700  0.27246500  1
  H  791  1  0.41032500  0.16932000  0.22024000  1
  H  792  1  0.43183200  0.21487600  0.23984700  1
  H  799  1  0.06476500  0.23644000  0.36279500  1
  H  801  1  0.00337100  0.36395000  0.40583900  1
  H  802  1  0.96543600  0.33910300  0.43455900  1
  H  803  1  0.95498200  0.35524100  0.38403400  1
  H  810  1  0.44427900  0.77273600  0.86296000  1
  H  812  1  0.50562500  0.64514400  0.90560800  1
  H  813  1  0.54352000  0.66984700  0.93449800  1
  H  814  1  0.55404200  0.65396800  0.88390900  1
  H  821  1  0.94419800  0.73647400  0.14618300  1
  H  823  1  0.00565600  0.86406900  0.10350900  1
  H  824  1  0.04363000  0.83930400  0.07477500  1
  H  825  1  0.05401500  0.85530500  0.12535700  1
  H  832  1  0.56480800  0.27254600  0.64621300  1
  H  834  1  0.50306000  0.14514600  0.60351000  1
  H  835  1  0.46527800  0.17004700  0.57462600  1
  H  836  1  0.45463100  0.15403700  0.62515400  1
  H  843  1  0.36287400  0.06489600  0.23658100  1
  H  845  1  0.40579700  0.00334300  0.36392500  1
  H  846  1  0.43481500  0.96560700  0.33912400  1
  H  847  1  0.38425900  0.95487500  0.35498200  1
  H  854  1  0.86277700  0.44438900  0.77251300  1
  H  856  1  0.90573600  0.50576900  0.64504600  1
  H  857  1  0.93456800  0.54363000  0.66987800  1
  H  858  1  0.88405200  0.55420700  0.65378600  1
  H  865  1  0.14617200  0.94416700  0.73643100  1
  H  867  1  0.10371100  0.00577600  0.86398300  1
  H  868  1  0.07486400  0.04369900  0.83927100  1
  H  869  1  0.12549000  0.05414500  0.85508900  1
  H  876  1  0.64634100  0.56468900  0.27261900  1
  H  878  1  0.60357400  0.50319400  0.14512900  1
  H  879  1  0.57484200  0.46521100  0.16987800  1
  H  880  1  0.62545000  0.45485600  0.15394400  1
  H  887  1  0.23653800  0.36284000  0.06497200  1
  H  889  1  0.36398300  0.40594300  0.00350800  1
  H  890  1  0.33910600  0.43474500  0.96565600  1
  H  891  1  0.35521900  0.38423800  0.95508500  1
  H  898  1  0.77266200  0.86290200  0.44451400  1
  H  900  1  0.64506200  0.90552300  0.50583900  1
  H  901  1  0.66975300  0.93446800  0.54370000  1
  H  902  1  0.65389800  0.88387900  0.55427400  1
  H  909  1  0.73634300  0.14628800  0.94402100  1
  H  911  1  0.86380100  0.10347900  0.00566200  1
  H  912  1  0.83893300  0.07473500  0.04356200  1
  H  913  1  0.85497300  0.12528800  0.05402700  1
  H  920  1  0.27248300  0.64619800  0.56466800  1
  H  922  1  0.14500900  0.60345800  0.50307800  1
  H  923  1  0.16987600  0.57464400  0.46522600  1
  H  924  1  0.15381100  0.62517300  0.45466400  1
  H  931  1  0.98613600  0.31205900  0.91845200  1
  H  933  1  0.11673500  0.25148300  0.88565800  1
  H  934  1  0.09385400  0.21384700  0.85488100  1
  H  935  1  0.10698500  0.20279600  0.90616300  1
  H  942  1  0.52316500  0.69698200  0.41811900  1
  H  944  1  0.39244700  0.75750600  0.38523400  1
  H  945  1  0.41547400  0.79512000  0.35454000  1
  H  946  1  0.40207000  0.80621500  0.40574500  1
  H  953  1  0.48596200  0.19750200  0.09132000  1
  H  955  1  0.61693000  0.25777000  0.12372300  1
  H  956  1  0.59421600  0.29558100  0.15440400  1
  H  957  1  0.60735600  0.30643700  0.10308400  1
  H  964  1  0.02298300  0.81202000  0.59087300  1
  H  966  1  0.89229500  0.75163100  0.62398700  1
  H  967  1  0.91517900  0.71394000  0.65468800  1
  H  968  1  0.90192400  0.70294900  0.60342500  1
  H  975  1  0.81220300  0.59107200  0.02305400  1
  H  977  1  0.75143000  0.62376500  0.89240500  1
  H  978  1  0.71377900  0.65441000  0.91543800  1
  H  979  1  0.70276600  0.60317500  0.90209500  1
  H  986  1  0.19736700  0.09122800  0.48583700  1
  H  988  1  0.25761600  0.12343400  0.61682000  1
  H  989  1  0.29552800  0.15399500  0.59412200  1
  H  990  1  0.30621200  0.10263300  0.60724000  1
  H  997  1  0.69752200  0.41812200  0.52317400  1
  H  999  1  0.75753600  0.38477700  0.39223400  1
  H  1000  1  0.79511400  0.35399800  0.41520600  1
  H  1001  1  0.80633100  0.40514800  0.40170700  1
  H  1008  1  0.31225400  0.91833300  0.98593500  1
  H  1010  1  0.25167400  0.88567000  0.11674500  1
  H  1011  1  0.21418000  0.85481800  0.09372100  1
  H  1012  1  0.20290200  0.90599800  0.10706000  1
  H  1019  1  0.09090000  0.48620000  0.19722000  1
  H  1021  1  0.12362100  0.61679600  0.25781300  1
  H  1022  1  0.15429500  0.59394200  0.29554500  1
  H  1023  1  0.10299100  0.60710000  0.30645800  1
  H  1030  1  0.59098000  0.02306200  0.81209300  1
  H  1032  1  0.62363400  0.89236800  0.75145700  1
  H  1033  1  0.65442200  0.91535300  0.71388800  1
  H  1034  1  0.60320500  0.90205500  0.70272900  1
  H  1041  1  0.91798300  0.98599000  0.31195900  1
  H  1043  1  0.88539300  0.11686100  0.25154800  1
  H  1044  1  0.85474100  0.09405000  0.21377300  1
  H  1045  1  0.90604100  0.10724800  0.20289200  1
  H  1052  1  0.41839700  0.52319500  0.69707400  1
  H  1054  1  0.38521000  0.39247100  0.75738100  1
  H  1055  1  0.35451900  0.41535600  0.79507700  1
  H  1056  1  0.40577500  0.40207900  0.80606600  1
  C  1  1  0.11974600  0.36442200  0.38881500  1
  C  2  1  0.08229400  0.34751900  0.37412700  1
  C  3  1  0.06580200  0.31181500  0.39229100  1
  C  4  1  0.08446400  0.29655000  0.42773900  1
  C  5  1  0.12100600  0.31251300  0.44363300  1
  C  6  1  0.13994800  0.34558700  0.42253500  1
  C  7  1  0.06217100  0.36700600  0.34152200  1
  C  8  1  0.17874400  0.36061000  0.43356600  1
  C  10  1  0.13716600  0.39961400  0.36941000  1
  C  11  1  0.11398700  0.42057500  0.33894400  1
  C  12  1  0.12828100  0.45810200  0.32306200  1
  C  13  1  0.16855700  0.46935200  0.33269500  1
  C  14  1  0.19505700  0.44801200  0.35934500  1
  C  15  1  0.17709700  0.41406100  0.38047800  1
  C  16  1  0.07654500  0.40392600  0.32584200  1
  C  18  1  0.19730100  0.39286700  0.41219600  1
  C  23  1  0.38926600  0.64470800  0.88877500  1
  C  24  1  0.42668200  0.66165600  0.87404800  1
  C  25  1  0.44317900  0.69735100  0.89222500  1
  C  26  1  0.42453700  0.71260200  0.92768500  1
  C  27  1  0.38802500  0.69659200  0.94359100  1
  C  28  1  0.36908700  0.66349100  0.92253800  1
  C  29  1  0.44677800  0.64222500  0.84139500  1
  C  30  1  0.33033300  0.64840700  0.93362700  1
  C  32  1  0.37186900  0.60949500  0.86938600  1
  C  33  1  0.39504300  0.58856700  0.83889900  1
  C  34  1  0.38079700  0.55101900  0.82304100  1
  C  35  1  0.34054100  0.53972300  0.83270700  1
  C  36  1  0.31404000  0.56101400  0.85939700  1
  C  37  1  0.33197600  0.59498700  0.88051100  1
  C  38  1  0.43244100  0.60528100  0.82574100  1
  C  40  1  0.31178200  0.61614400  0.91225700  1
  C  45  1  0.88925400  0.86451100  0.12028400  1
  C  46  1  0.92667300  0.84756800  0.13502000  1
  C  47  1  0.94321300  0.81191000  0.11680700  1
  C  48  1  0.92461300  0.79669900  0.08130600  1
  C  49  1  0.88807800  0.81267200  0.06542100  1
  C  50  1  0.86910900  0.84574300  0.08649300  1
  C  51  1  0.94671800  0.86697300  0.16772300  1
  C  52  1  0.83034900  0.86080500  0.07539500  1
  C  54  1  0.87181500  0.89969300  0.13969200  1
  C  55  1  0.89495500  0.92060000  0.17022100  1
  C  56  1  0.88064200  0.95809900  0.18614100  1
  C  57  1  0.84044100  0.96946500  0.17636200  1
  C  58  1  0.81397600  0.94820500  0.14961000  1
  C  59  1  0.83192700  0.91420700  0.12853700  1
  C  60  1  0.93235900  0.90391100  0.18337900  1
  C  62  1  0.81176700  0.89305100  0.09676800  1
  C  67  1  0.61963300  0.14465900  0.62042200  1
  C  68  1  0.58216200  0.16153800  0.63509100  1
  C  69  1  0.56563400  0.19720400  0.61689000  1
  C  70  1  0.58422100  0.21239200  0.58137200  1
  C  71  1  0.62076300  0.19641900  0.56547200  1
  C  72  1  0.63981100  0.16348000  0.58668400  1
  C  73  1  0.56206200  0.14206400  0.66771700  1
  C  74  1  0.67864500  0.14852400  0.57569800  1
  C  76  1  0.63709900  0.10951100  0.63986900  1
  C  77  1  0.61394400  0.08855500  0.67035000  1
  C  78  1  0.62827200  0.05105500  0.68625900  1
  C  79  1  0.66855500  0.03982500  0.67663600  1
  C  80  1  0.69504400  0.06118200  0.64998300  1
  C  81  1  0.67704500  0.09509200  0.62881400  1
  C  82  1  0.57649700  0.10519400  0.68345900  1
  C  84  1  0.69723800  0.11630300  0.59709900  1
  C  89  1  0.38885400  0.11982600  0.36442500  1
  C  90  1  0.37417000  0.08237300  0.34752200  1
  C  91  1  0.39235900  0.06587100  0.31183400  1
  C  92  1  0.42783700  0.08449800  0.29660000  1
  C  93  1  0.44363700  0.12109800  0.31250700  1
  C  94  1  0.42256500  0.14004100  0.34559300  1
  C  95  1  0.34157100  0.06223800  0.36700600  1
  C  96  1  0.43359300  0.17883700  0.36061300  1
  C  98  1  0.36946500  0.13722500  0.39963500  1
  C  99  1  0.33900800  0.11403400  0.42059400  1
  C  100  1  0.32316900  0.12829400  0.45814400  1
  C  101  1  0.33288400  0.16852000  0.46948300  1
  C  102  1  0.35947900  0.19505600  0.44811600  1
  C  103  1  0.38055100  0.17714300  0.41410600  1
  C  104  1  0.32589300  0.07660200  0.40393200  1
  C  106  1  0.41224700  0.19736800  0.39290100  1
  C  111  1  0.88889100  0.38925000  0.64471400  1
  C  112  1  0.87415500  0.42672500  0.66152500  1
  C  113  1  0.89225500  0.44328600  0.69722900  1
  C  114  1  0.92771200  0.42468900  0.71255400  1
  C  115  1  0.94364900  0.38812600  0.69668400  1
  C  116  1  0.92259000  0.36909300  0.66363700  1
  C  117  1  0.84155600  0.44678400  0.64195900  1
  C  118  1  0.93363600  0.33025700  0.64872700  1
  C  120  1  0.86957200  0.37177800  0.60950400  1
  C  121  1  0.83914600  0.39490600  0.58843000  1
  C  122  1  0.82338900  0.38056000  0.55086700  1
  C  123  1  0.83320100  0.34033100  0.53960800  1
  C  124  1  0.85970500  0.31384500  0.56113900  1
  C  125  1  0.88068800  0.33182600  0.59515800  1
  C  126  1  0.82597600  0.43235600  0.60501500  1
  C  128  1  0.91231200  0.31162300  0.61648200  1
  C  133  1  0.12046700  0.88935700  0.86448900  1
  C  134  1  0.13518600  0.92676200  0.84749800  1
  C  135  1  0.11695300  0.94326500  0.81183400  1
  C  136  1  0.08145200  0.92463800  0.79665600  1
  C  137  1  0.06557000  0.88812300  0.81268700  1
  C  138  1  0.08666700  0.86918800  0.84576100  1
  C  139  1  0.16789500  0.94683600  0.86686300  1
  C  140  1  0.07558200  0.83044600  0.86087800  1
  C  142  1  0.13990000  0.87196100  0.89967800  1
  C  143  1  0.17044300  0.89512300  0.92053900  1
  C  144  1  0.18639200  0.88085600  0.95804100  1
  C  145  1  0.17663500  0.84066000  0.96945000  1
  C  146  1  0.14986400  0.81417700  0.94823500  1
  C  147  1  0.12875900  0.83208900  0.91424100  1
  C  148  1  0.18359500  0.93250500  0.90379200  1
  C  150  1  0.09697800  0.81190100  0.89313000  1
  C  155  1  0.62041300  0.61960200  0.14464400  1
  C  156  1  0.63511600  0.58216800  0.16156800  1
  C  157  1  0.61690200  0.56564300  0.19723100  1
  C  158  1  0.58139700  0.58424600  0.21242800  1
  C  159  1  0.56541400  0.62071800  0.19637000  1
  C  160  1  0.58661700  0.63974400  0.16341100  1
  C  161  1  0.66778400  0.56208700  0.14214600  1
  C  162  1  0.57557400  0.67853200  0.14837700  1
  C  164  1  0.63987800  0.63706900  0.10950400  1
  C  165  1  0.67040800  0.61392500  0.08860000  1
  C  166  1  0.68635400  0.62824400  0.05111700  1
  C  167  1  0.67674000  0.66852800  0.03987900  1
  C  168  1  0.64999200  0.69499900  0.06114400  1
  C  169  1  0.62878700  0.67698700  0.09503300  1
  C  170  1  0.68354400  0.57650600  0.10527700  1
  C  172  1  0.59698900  0.69712900  0.11616800  1
  C  177  1  0.36441900  0.38892400  0.11996900  1
  C  178  1  0.34755900  0.37423700  0.08249400  1
  C  179  1  0.31187600  0.39240700  0.06596000  1
  C  180  1  0.29660500  0.42787300  0.08458400  1
  C  181  1  0.31247700  0.44368200  0.12119600  1
  C  182  1  0.34554800  0.42262000  0.14017600  1
  C  183  1  0.36708500  0.34165000  0.06238100  1
  C  184  1  0.36050000  0.43363000  0.17900400  1
  C  186  1  0.39961700  0.36954400  0.13740500  1
  C  187  1  0.42062400  0.33910300  0.11423700  1
  C  188  1  0.45816600  0.32327900  0.12855100  1
  C  189  1  0.46947400  0.33303300  0.16877900  1
  C  190  1  0.44801500  0.35956500  0.19529800  1
  C  191  1  0.41402100  0.38062100  0.17734700  1
  C  192  1  0.40399900  0.32598200  0.07678900  1
  C  194  1  0.39277000  0.41228100  0.19757400  1
  C  199  1  0.64472300  0.88871700  0.38941200  1
  C  200  1  0.66162300  0.87399600  0.42685000  1
  C  201  1  0.69728700  0.89218800  0.44339900  1
  C  202  1  0.71254100  0.92765400  0.42477400  1
  C  203  1  0.69658900  0.94357600  0.38823900  1
  C  204  1  0.66353100  0.92248300  0.36926100  1
  C  205  1  0.64218500  0.84132500  0.44691200  1
  C  206  1  0.64849300  0.93356600  0.33048800  1
  C  208  1  0.60953700  0.86931600  0.37196400  1
  C  209  1  0.58860600  0.83880500  0.39510700  1
  C  210  1  0.55109200  0.82292000  0.38080100  1
  C  211  1  0.53977800  0.83265500  0.34057200  1
  C  212  1  0.56107800  0.85936400  0.31409500  1
  C  213  1  0.59505700  0.88045300  0.33206100  1
  C  214  1  0.60527700  0.82564100  0.43251700  1
  C  216  1  0.61623500  0.91220800  0.31190100  1
  C  221  1  0.86443400  0.12032900  0.88926300  1
  C  222  1  0.84744300  0.13505900  0.92666400  1
  C  223  1  0.81175500  0.11685400  0.94314600  1
  C  224  1  0.79655800  0.08136500  0.92451300  1
  C  225  1  0.81261400  0.06545300  0.88802600  1
  C  226  1  0.84570300  0.08653200  0.86910000  1
  C  227  1  0.86682000  0.16775200  0.94674800  1
  C  228  1  0.86082400  0.07543100  0.83036400  1
  C  230  1  0.89962600  0.13975300  0.87186700  1
  C  231  1  0.92050000  0.17028100  0.89503700  1
  C  232  1  0.95799500  0.18622900  0.88076100  1
  C  233  1  0.96936400  0.17652100  0.84054100  1
  C  234  1  0.94816200  0.14973800  0.81406100  1
  C  235  1  0.91418000  0.12861900  0.83198500  1
  C  236  1  0.90376100  0.18342900  0.93242600  1
  C  238  1  0.89306900  0.09682800  0.81181300  1
  C  243  1  0.14460000  0.62035200  0.61961400  1
  C  244  1  0.16145000  0.63503900  0.58213700  1
  C  245  1  0.19713300  0.61687500  0.56559700  1
  C  246  1  0.21237400  0.58138100  0.58419400  1
  C  247  1  0.19640300  0.56543600  0.62071800  1
  C  248  1  0.16345600  0.58662300  0.63978100  1
  C  249  1  0.14193500  0.66764700  0.56205000  1
  C  250  1  0.14852600  0.57562200  0.67862000  1
  C  252  1  0.10944800  0.63977500  0.63709900  1
  C  253  1  0.08845100  0.67024600  0.61396500  1
  C  254  1  0.05094800  0.68613100  0.62832300  1
  C  255  1  0.03976600  0.67649000  0.66861900  1
  C  256  1  0.06118000  0.64986700  0.69509000  1
  C  257  1  0.09507500  0.62871000  0.67705700  1
  C  258  1  0.10505900  0.68335900  0.57650600  1
  C  260  1  0.11631400  0.59701400  0.69724200  1
  C  265  1  0.10756100  0.36993400  0.87821400  1
  C  266  1  0.09411800  0.33474200  0.90011100  1
  C  267  1  0.05978600  0.31251000  0.88642300  1
  C  268  1  0.04322200  0.32287700  0.84832100  1
  C  269  1  0.05354000  0.35822400  0.82581400  1
  C  270  1  0.08581100  0.38285700  0.84239100  1
  C  271  1  0.11597700  0.32181900  0.93476300  1
  C  272  1  0.09733300  0.42081900  0.82545800  1
  C  274  1  0.14252100  0.39200800  0.89276400  1
  C  275  1  0.16652000  0.37603500  0.92566100  1
  C  276  1  0.20399000  0.39497300  0.93676200  1
  C  277  1  0.21343100  0.43238900  0.91786700  1
  C  278  1  0.18883200  0.45158100  0.88827900  1
  C  279  1  0.15392200  0.42972900  0.87403600  1
  C  280  1  0.15253500  0.34066900  0.94580600  1
  C  282  1  0.12949600  0.44419100  0.84162900  1
  C  287  1  0.40157600  0.63909500  0.37798200  1
  C  288  1  0.41504800  0.67427800  0.39987300  1
  C  289  1  0.44942300  0.69646400  0.38620000  1
  C  290  1  0.46596300  0.68608600  0.34809200  1
  C  291  1  0.45560900  0.65075100  0.32557300  1
  C  292  1  0.42331200  0.62615100  0.34215300  1
  C  293  1  0.39320600  0.68722200  0.43453200  1
  C  294  1  0.41175100  0.58819200  0.32523500  1
  C  296  1  0.36658500  0.61706100  0.39252300  1
  C  297  1  0.34258300  0.63308600  0.42539300  1
  C  298  1  0.30507800  0.61420600  0.43647300  1
  C  299  1  0.29561600  0.57678000  0.41761100  1
  C  300  1  0.32022600  0.55751900  0.38807400  1
  C  301  1  0.35515500  0.57933700  0.37381900  1
  C  302  1  0.35659100  0.66844900  0.44552600  1
  C  304  1  0.37959100  0.56483200  0.34143700  1
  C  309  1  0.60747100  0.13940900  0.13096900  1
  C  310  1  0.59403900  0.17465400  0.10914500  1
  C  311  1  0.55980700  0.19697200  0.12297200  1
  C  312  1  0.54327000  0.18654100  0.16106400  1
  C  313  1  0.55354500  0.15110600  0.18345400  1
  C  314  1  0.58577900  0.12647000  0.16681800  1
  C  315  1  0.61580600  0.18754400  0.07441900  1
  C  316  1  0.59729700  0.08848700  0.18370800  1
  C  318  1  0.64237100  0.11729700  0.11633400  1
  C  319  1  0.66632500  0.13328000  0.08341100  1
  C  320  1  0.70373800  0.11429800  0.07221800  1
  C  321  1  0.71316900  0.07684000  0.09102800  1
  C  322  1  0.68864500  0.05768000  0.12069400  1
  C  323  1  0.65377600  0.07954900  0.13501300  1
  C  324  1  0.65235300  0.16868800  0.06333200  1
  C  326  1  0.62939600  0.06508400  0.16745100  1
  C  331  1  0.90151000  0.86991900  0.63123300  1
  C  332  1  0.91494500  0.83472100  0.60933900  1
  C  333  1  0.94923800  0.81244300  0.62305800  1
  C  334  1  0.96582600  0.82283400  0.66113500  1
  C  335  1  0.95549000  0.85816600  0.68366900  1
  C  336  1  0.92323900  0.88282100  0.66708000  1
  C  337  1  0.89310800  0.82182300  0.57466500  1
  C  338  1  0.91170800  0.92078000  0.68402000  1
  C  340  1  0.86658300  0.89203300  0.61665600  1
  C  341  1  0.84260400  0.87608400  0.58373100  1
  C  342  1  0.80514800  0.89504300  0.57263300  1
  C  343  1  0.79572700  0.93247800  0.59149800  1
  C  344  1  0.82036300  0.95169700  0.62104100  1
  C  345  1  0.85518600  0.92976600  0.63537100  1
  C  346  1  0.85657900  0.84071200  0.56358900  1
  C  348  1  0.87957600  0.94417600  0.66782700  1
  C  353  1  0.86993200  0.63113000  0.90145200  1
  C  354  1  0.83474900  0.60923600  0.91492900  1
  C  355  1  0.81254400  0.62291500  0.94929200  1
  C  356  1  0.82290400  0.66104100  0.96580500  1
  C  357  1  0.85825500  0.68353800  0.95546300  1
  C  358  1  0.88287300  0.66695200  0.92318700  1
  C  359  1  0.82180100  0.57459200  0.89307500  1
  C  360  1  0.92083800  0.68387000  0.91164400  1
  C  362  1  0.89197800  0.61658900  0.86646700  1
  C  363  1  0.87597400  0.58369700  0.84247900  1
  C  364  1  0.89486400  0.57262400  0.80497800  1
  C  365  1  0.93228600  0.59149500  0.79551600  1
  C  366  1  0.95154100  0.62103800  0.82012200  1
  C  367  1  0.92970800  0.63529200  0.85504300  1
  C  368  1  0.84061800  0.56355500  0.85649300  1
  C  370  1  0.94419400  0.66768400  0.87947500  1
  C  375  1  0.13926400  0.13095500  0.60745900  1
  C  376  1  0.17445600  0.10906100  0.59400900  1
  C  377  1  0.19674600  0.12281600  0.55973400  1
  C  378  1  0.18639000  0.16093500  0.54321200  1
  C  379  1  0.15103200  0.18343700  0.55352400  1
  C  380  1  0.12637900  0.16683100  0.58576900  1
  C  381  1  0.18731600  0.07433500  0.61579300  1
  C  382  1  0.08843100  0.18377900  0.59732100  1
  C  384  1  0.11716000  0.11636100  0.64238300  1
  C  385  1  0.13311000  0.08342600  0.66634600  1
  C  386  1  0.11414400  0.07228700  0.70378700  1
  C  387  1  0.07670500  0.09113300  0.71321500  1
  C  388  1  0.05757600  0.12081300  0.68868200  1
  C  389  1  0.07945000  0.13510000  0.65380700  1
  C  390  1  0.16847200  0.06328400  0.65235600  1
  C  392  1  0.06502600  0.16756700  0.62944200  1
  C  397  1  0.63928400  0.37794500  0.40164000  1
  C  398  1  0.67454900  0.39975100  0.41504200  1
  C  399  1  0.69680900  0.38598700  0.44934100  1
  C  400  1  0.68628400  0.34797600  0.46600300  1
  C  401  1  0.65084800  0.32559200  0.45572200  1
  C  402  1  0.62627000  0.34218100  0.42342500  1
  C  403  1  0.68751200  0.43439400  0.39319000  1
  C  404  1  0.58825300  0.32533900  0.41195200  1
  C  406  1  0.61722900  0.39251100  0.36667700  1
  C  407  1  0.63328100  0.42534400  0.34264700  1
  C  408  1  0.61436700  0.43644500  0.30516300  1
  C  409  1  0.57694500  0.41757700  0.29570400  1
  C  410  1  0.55765900  0.38808600  0.32034400  1
  C  411  1  0.57945000  0.37386500  0.35530500  1
  C  412  1  0.66869900  0.44541600  0.35660300  1
  C  414  1  0.56489300  0.34155600  0.37980400  1
  C  419  1  0.37006200  0.87822000  0.10743300  1
  C  420  1  0.33488900  0.90015000  0.09400000  1
  C  421  1  0.31262000  0.88648100  0.05968200  1
  C  422  1  0.32291000  0.84834800  0.04315300  1
  C  423  1  0.35820600  0.82575700  0.05350500  1
  C  424  1  0.38290600  0.84234500  0.08572100  1
  C  425  1  0.32201100  0.93482700  0.11584700  1
  C  426  1  0.42085000  0.82536600  0.09724600  1
  C  428  1  0.39219700  0.89279200  0.14234500  1
  C  429  1  0.37627900  0.92572200  0.16633300  1
  C  430  1  0.39526600  0.93682000  0.20377700  1
  C  431  1  0.43271800  0.91796700  0.21314900  1
  C  432  1  0.45187900  0.88837600  0.18852800  1
  C  433  1  0.42991500  0.87404500  0.15372700  1
  C  434  1  0.34091000  0.94588000  0.15237600  1
  C  436  1  0.44428600  0.84155600  0.12935400  1
  C  441  1  0.13101100  0.60765400  0.13935000  1
  C  442  1  0.10912700  0.59420400  0.17455000  1
  C  443  1  0.12284100  0.55988400  0.19679700  1
  C  444  1  0.16094000  0.54332800  0.18641400  1
  C  445  1  0.18341400  0.55364300  0.15104500  1
  C  446  1  0.16684100  0.58591900  0.12642400  1
  C  447  1  0.07446600  0.61605500  0.18746800  1
  C  448  1  0.18378600  0.59744900  0.08847100  1
  C  450  1  0.11645300  0.64260500  0.11726700  1
  C  451  1  0.08353600  0.66658700  0.13323100  1
  C  452  1  0.07243400  0.70405500  0.11428800  1
  C  453  1  0.09133300  0.71350400  0.07687800  1
  C  454  1  0.12094700  0.68893200  0.05769900  1
  C  455  1  0.13519200  0.65402300  0.07955300  1
  C  456  1  0.06339600  0.65259700  0.16859800  1
  C  458  1  0.16762000  0.62961800  0.06510500  1
  C  463  1  0.63104100  0.90155200  0.86995300  1
  C  464  1  0.60912900  0.91500500  0.83477000  1
  C  465  1  0.62283800  0.94931400  0.81250700  1
  C  466  1  0.66100100  0.96577800  0.82279800  1
  C  467  1  0.68353500  0.95545700  0.85813300  1
  C  468  1  0.66692200  0.92324200  0.88282100  1
  C  469  1  0.57443100  0.89319700  0.82189300  1
  C  470  1  0.68387700  0.91170200  0.92077100  1
  C  472  1  0.61646700  0.86662500  0.89206000  1
  C  473  1  0.58353600  0.84265600  0.87611100  1
  C  474  1  0.57241100  0.80520900  0.89507700  1
  C  475  1  0.59127300  0.79577200  0.93250500  1
  C  476  1  0.62097400  0.82029000  0.95161400  1
  C  477  1  0.63521600  0.85520100  0.92976600  1
  C  478  1  0.56339700  0.85663100  0.84074000  1
  C  480  1  0.66766900  0.87958800  0.94418800  1
  C  485  1  0.87808000  0.10748600  0.36991600  1
  C  486  1  0.89994000  0.09406500  0.33469400  1
  C  487  1  0.88619400  0.05978000  0.31241300  1
  C  488  1  0.84811700  0.04319900  0.32282800  1
  C  489  1  0.82567100  0.05347300  0.35823000  1
  C  490  1  0.84227500  0.08572400  0.38287000  1
  C  491  1  0.93462000  0.11589100  0.32178300  1
  C  492  1  0.82541800  0.09719700  0.42088300  1
  C  494  1  0.89263000  0.14245000  0.39198400  1
  C  495  1  0.92547900  0.16647900  0.37595600  1
  C  496  1  0.93654300  0.20397900  0.39485400  1
  C  497  1  0.91764400  0.21344600  0.43225800  1
  C  498  1  0.88818100  0.18877400  0.45155300  1
  C  499  1  0.87396300  0.15382200  0.42974700  1
  C  500  1  0.94560200  0.15249800  0.34057800  1
  C  502  1  0.84164500  0.12931900  0.44427600  1
  C  507  1  0.37806700  0.40168900  0.63915000  1
  C  508  1  0.39993400  0.41513900  0.67435700  1
  C  509  1  0.38620300  0.44945700  0.69658900  1
  C  510  1  0.34815300  0.46607600  0.68614400  1
  C  511  1  0.32565900  0.45571900  0.65079600  1
  C  512  1  0.34224100  0.42342500  0.62619900  1
  C  513  1  0.43459600  0.39330300  0.68729900  1
  C  514  1  0.32532400  0.41187900  0.58823800  1
  C  516  1  0.39265400  0.36674400  0.61707900  1
  C  517  1  0.42555100  0.34275900  0.63307400  1
  C  518  1  0.43665200  0.30528200  0.61415700  1
  C  519  1  0.41784500  0.29587200  0.57669200  1
  C  520  1  0.38831500  0.32050600  0.55744600  1
  C  521  1  0.37396600  0.35534100  0.57934000  1
  C  522  1  0.44567800  0.35675500  0.66844600  1
  C  524  1  0.34153100  0.37972800  0.56487800  1
  C  529  1  0.28024400  0.51908200  0.33642400  1
  C  530  1  0.30337400  0.51975500  0.37294800  1
  C  531  1  0.29335500  0.48877100  0.40175000  1
  C  533  1  0.23568700  0.46583500  0.36327300  1
  C  536  1  0.28098400  0.54952900  0.30310000  1
  C  540  1  0.22894800  0.48979800  0.83661700  1
  C  541  1  0.20569500  0.48929600  0.87305800  1
  C  542  1  0.21559600  0.52041600  0.90176200  1
  C  544  1  0.27344400  0.54312100  0.86332800  1
  C  547  1  0.22803400  0.45937200  0.80327100  1
  C  551  1  0.72886800  0.01953000  0.17220000  1
  C  552  1  0.70551800  0.01993000  0.13578700  1
  C  553  1  0.71553100  0.98874700  0.10721400  1
  C  555  1  0.77336300  0.96607000  0.14565400  1
  C  558  1  0.72824100  0.05016100  0.20537500  1
  C  562  1  0.78021300  0.99002700  0.67272100  1
  C  563  1  0.80346900  0.98938400  0.63625500  1
  C  564  1  0.79343500  0.02051300  0.60757200  1
  C  566  1  0.73569100  0.04339500  0.64605500  1
  C  569  1  0.78088400  0.95948500  0.70596300  1
  C  573  1  0.33672600  0.28013900  0.51930100  1
  C  574  1  0.37307300  0.30358400  0.51979500  1
  C  575  1  0.40174400  0.29352600  0.48866500  1
  C  577  1  0.36340700  0.23567500  0.46596000  1
  C  580  1  0.30340000  0.28102000  0.54974600  1
  C  584  1  0.83656500  0.22851900  0.49044100  1
  C  585  1  0.87314600  0.20549500  0.48941100  1
  C  586  1  0.90210400  0.21566700  0.52023100  1
  C  588  1  0.86354500  0.27312400  0.54354200  1
  C  591  1  0.80305200  0.22768300  0.46019500  1
  C  595  1  0.17260300  0.72912400  0.01954700  1
  C  596  1  0.13618600  0.70582800  0.02000200  1
  C  597  1  0.10750600  0.71571400  0.98885100  1
  C  599  1  0.14592000  0.77359500  0.96617700  1
  C  602  1  0.20591800  0.72822800  0.05000500  1
  C  606  1  0.67245600  0.77998800  0.98966200  1
  C  607  1  0.63610000  0.80343300  0.98936000  1
  C  608  1  0.60755400  0.79346500  0.02059500  1
  C  610  1  0.64600300  0.73561500  0.04327300  1
  C  613  1  0.70568800  0.78078300  0.95910400  1
  C  617  1  0.51886200  0.33645500  0.28055800  1
  C  618  1  0.51981900  0.37303000  0.30360500  1
  C  619  1  0.48896300  0.40195700  0.29347200  1
  C  621  1  0.46577100  0.36345900  0.23594700  1
  C  624  1  0.54913000  0.30296900  0.28138400  1
  C  628  1  0.48984700  0.83672300  0.22896000  1
  C  629  1  0.48948800  0.87304000  0.20547200  1
  C  630  1  0.52073300  0.90161000  0.21546500  1
  C  632  1  0.54318800  0.86331600  0.27349100  1
  C  635  1  0.45930200  0.80348800  0.22810900  1
  C  639  1  0.01955700  0.17232100  0.72899000  1
  C  640  1  0.01985600  0.13596200  0.70555700  1
  C  641  1  0.98861900  0.10743500  0.71552800  1
  C  643  1  0.96605800  0.14580300  0.77345500  1
  C  646  1  0.05025800  0.20543200  0.72840200  1
  C  650  1  0.99014300  0.67273000  0.78030200  1
  C  651  1  0.98934200  0.63612400  0.80329300  1
  C  652  1  0.02033100  0.60730100  0.79331300  1
  C  654  1  0.04344600  0.64593900  0.73575200  1
  C  657  1  0.95973200  0.70609400  0.78104500  1
  C  661  1  0.75372400  0.04378100  0.84724800  1
  C  662  1  0.78831600  0.03344800  0.87094000  1
  C  663  1  0.78638100  0.99499400  0.89088100  1
  C  665  1  0.71990300  0.98004800  0.86460500  1
  C  668  1  0.74685000  0.08272600  0.82549400  1
  C  672  1  0.75560400  0.96501900  0.34755300  1
  C  673  1  0.72102800  0.97550700  0.37116800  1
  C  674  1  0.72280100  0.01401300  0.39098100  1
  C  676  1  0.78935200  0.02883900  0.36479400  1
  C  679  1  0.76255200  0.92595700  0.32603700  1
  C  683  1  0.25565300  0.54424500  0.66125100  1
  C  684  1  0.22098800  0.53362900  0.63781800  1
  C  685  1  0.22268700  0.49502400  0.61819400  1
  C  687  1  0.28933500  0.48034000  0.64422700  1
  C  690  1  0.26261500  0.58338300  0.68262100  1
  C  694  1  0.25328500  0.46503700  0.16145000  1
  C  695  1  0.28811500  0.47568400  0.13821800  1
  C  696  1  0.28641600  0.51431300  0.11865800  1
  C  698  1  0.21971100  0.52899700  0.14448100  1
  C  701  1  0.24620200  0.42589600  0.18278500  1
  C  705  1  0.84756500  0.75365700  0.04386100  1
  C  706  1  0.87105900  0.78836500  0.03338800  1
  C  707  1  0.89084400  0.78646900  0.99486600  1
  C  709  1  0.86478800  0.71988200  0.98006600  1
  C  712  1  0.82604000  0.74665500  0.08291200  1
  C  716  1  0.34727200  0.75551600  0.96521700  1
  C  717  1  0.37094900  0.72092100  0.97557400  1
  C  718  1  0.39086800  0.72285600  0.01404000  1
  C  720  1  0.36464400  0.78937300  0.02892800  1
  C  723  1  0.32553400  0.76237800  0.92626500  1
  C  727  1  0.66107400  0.25574500  0.54436700  1
  C  728  1  0.63785500  0.22095600  0.53362600  1
  C  729  1  0.61838300  0.22259300  0.49495400  1
  C  731  1  0.64419900  0.28933000  0.48038300  1
  C  734  1  0.68221300  0.26284500  0.58361200  1
  C  738  1  0.16179300  0.25356900  0.46511600  1
  C  739  1  0.13809700  0.28810100  0.47557400  1
  C  740  1  0.11829100  0.28633400  0.51408400  1
  C  742  1  0.14451900  0.21978900  0.52891800  1
  C  745  1  0.18333900  0.24663900  0.42607000  1
  C  749  1  0.04391800  0.84740100  0.75375500  1
  C  750  1  0.03357200  0.87103800  0.78838300  1
  C  751  1  0.99509200  0.89093000  0.78648400  1
  C  753  1  0.98013300  0.86469000  0.71999500  1
  C  756  1  0.08288800  0.82570500  0.74683700  1
  C  760  1  0.96504600  0.34755000  0.75579600  1
  C  761  1  0.97555600  0.37109500  0.72117700  1
  C  762  1  0.01407900  0.39087500  0.72291100  1
  C  764  1  0.02889800  0.36476600  0.78949500  1
  C  767  1  0.92596600  0.32607900  0.76278000  1
  C  771  1  0.54406600  0.66138200  0.25548000  1
  C  772  1  0.53353800  0.63780900  0.22088400  1
  C  773  1  0.49499400  0.61806700  0.22263700  1
  C  775  1  0.48021500  0.64422400  0.28922200  1
  C  778  1  0.58313100  0.68289800  0.26239800  1
  C  782  1  0.46498800  0.16145600  0.25338700  1
  C  783  1  0.47563800  0.13815100  0.28816800  1
  C  784  1  0.51425500  0.11857500  0.28642000  1
  C  786  1  0.52892100  0.14450500  0.21975400  1
  C  789  1  0.42585600  0.18283000  0.24635800  1
  C  793  1  0.99060600  0.30191200  0.38836700  1
  C  794  1  0.03089000  0.28950000  0.37868900  1
  C  795  1  0.03622400  0.24798700  0.36783500  1
  C  797  1  0.96660300  0.23267800  0.38113300  1
  C  800  1  0.97822800  0.34237300  0.40402600  1
  C  804  1  0.51841100  0.70727900  0.88847400  1
  C  805  1  0.47812800  0.71958700  0.87863700  1
  C  806  1  0.47282600  0.76114700  0.86784100  1
  C  808  1  0.54237400  0.77646500  0.88141300  1
  C  811  1  0.53076800  0.66666667  0.90393500  1
  C  815  1  0.01840300  0.80197900  0.12083300  1
  C  816  1  0.97810000  0.78955900  0.13043300  1
  C  817  1  0.97275000  0.74801700  0.14119100  1
  C  819  1  0.04234400  0.73277200  0.12792400  1
  C  822  1  0.03079700  0.84248900  0.10529800  1
  C  826  1  0.49042900  0.20724900  0.62082100  1
  C  827  1  0.53073700  0.21953300  0.63052300  1
  C  828  1  0.53621600  0.26104000  0.64139600  1
  C  830  1  0.46667600  0.27655300  0.62791200  1
  C  833  1  0.47797200  0.16679800  0.60520100  1
  C  837  1  0.38870500  0.99065500  0.30176100  1
  C  838  1  0.37875900  0.03094800  0.28956800  1
  C  839  1  0.36797200  0.03631900  0.24801200  1
  C  841  1  0.38158100  0.96685000  0.23253300  1
  C  844  1  0.40420900  0.97824700  0.34227500  1
  C  848  1  0.88834900  0.51855500  0.70710200  1
  C  849  1  0.87859800  0.47826200  0.71941000  1
  C  850  1  0.86783800  0.47292900  0.76097000  1
  C  852  1  0.88116700  0.54251200  0.77631300  1
  C  855  1  0.90400200  0.53091100  0.66666667  1
  C  859  1  0.12080600  0.01846800  0.80182100  1
  C  860  1  0.13054200  0.97817400  0.78950100  1
  C  861  1  0.14135100  0.97274400  0.74797100  1
  C  863  1  0.12784200  0.04230000  0.73257100  1
  C  866  1  0.10540700  0.03089400  0.84237000  1
  C  870  1  0.62082400  0.49048400  0.20725100  1
  C  871  1  0.63054500  0.53078900  0.21960000  1
  C  872  1  0.64139000  0.53611600  0.26112400  1
  C  874  1  0.62810100  0.46649300  0.27646300  1
  C  877  1  0.60536000  0.47806700  0.16672500  1
  C  881  1  0.30192900  0.38851300  0.99077100  1
  C  882  1  0.28955900  0.37878300  0.03105800  1
  C  883  1  0.24805200  0.36791100  0.03642200  1
  C  885  1  0.23268400  0.38128500  0.96685300  1
  C  888  1  0.34238200  0.40418800  0.97838400  1
  C  892  1  0.70720300  0.88843400  0.51863400  1
  C  893  1  0.71951000  0.87858600  0.47835300  1
  C  894  1  0.76107100  0.86778900  0.47306000  1
  C  896  1  0.77638900  0.88137700  0.54260900  1
  C  899  1  0.66666667  0.90388900  0.53097800  1
  C  903  1  0.80170800  0.12086100  0.01831000  1
  C  904  1  0.78936400  0.13049100  0.97799400  1
  C  905  1  0.74784600  0.14129200  0.97258500  1
  C  907  1  0.73244600  0.12804400  0.04219100  1
  C  910  1  0.84217500  0.10526600  0.03076400  1
  C  914  1  0.20708000  0.62083600  0.49037700  1
  C  915  1  0.21941900  0.63051700  0.53067600  1
  C  916  1  0.26093000  0.64139600  0.53609400  1
  C  918  1  0.27636000  0.62795500  0.46650000  1
  C  921  1  0.16662200  0.60520100  0.47796300  1
  C  925  1  0.05385900  0.23827300  0.89913300  1
  C  926  1  0.04046400  0.27878300  0.90641200  1
  C  927  1  0.99842800  0.28349600  0.91583400  1
  C  929  1  0.98460900  0.21375800  0.90173800  1
  C  932  1  0.09522200  0.22624500  0.88573700  1
  C  936  1  0.45523700  0.77073700  0.39903800  1
  C  937  1  0.46870600  0.73024600  0.40617100  1
  C  938  1  0.51074200  0.72549500  0.41551100  1
  C  940  1  0.52449100  0.79529700  0.40167700  1
  C  943  1  0.41394800  0.78275200  0.38540200  1
  C  947  1  0.55410000  0.27118800  0.11024900  1
  C  948  1  0.54046700  0.23076100  0.10303600  1
  C  949  1  0.49845800  0.22599600  0.09360600  1
  C  951  1  0.48493200  0.29582100  0.10765200  1
  C  954  1  0.59551700  0.28309200  0.12358300  1
  C  958  1  0.95513100  0.73832400  0.61037200  1
  C  959  1  0.96869100  0.77879000  0.60303800  1
  C  960  1  0.01067100  0.78346800  0.59347000  1
  C  962  1  0.02427800  0.71373600  0.60744400  1
  C  965  1  0.91376800  0.72636000  0.62384400  1
  C  969  1  0.73828700  0.61000100  0.95521300  1
  C  970  1  0.77881200  0.60292200  0.96865100  1
  C  971  1  0.78366000  0.59362800  0.01069400  1
  C  973  1  0.71393100  0.60730700  0.02446900  1
  C  976  1  0.72620200  0.62357300  0.91393000  1
  C  980  1  0.27099600  0.10993500  0.55397800  1
  C  981  1  0.23049900  0.10285700  0.54042100  1
  C  982  1  0.22584900  0.09347400  0.49836700  1
  C  984  1  0.29567900  0.10737100  0.48485600  1
  C  987  1  0.28293600  0.12321300  0.59540800  1
  C  991  1  0.77097700  0.39862000  0.45498400  1
  C  992  1  0.73058700  0.40592200  0.46869000  1
  C  993  1  0.72598900  0.41542900  0.51066800  1
  C  995  1  0.79581200  0.40134800  0.52414600  1
  C  998  1  0.78283700  0.38489300  0.41367400  1
  C  1002  1  0.23844800  0.89935500  0.05393600  1
  C  1003  1  0.27889400  0.90653100  0.04035700  1
  C  1004  1  0.28373800  0.91603500  0.99838000  1
  C  1006  1  0.21394900  0.90182600  0.98463400  1
  C  1009  1  0.22644200  0.88572200  0.09522500  1
  C  1013  1  0.11009400  0.55393500  0.27104900  1
  C  1014  1  0.10287100  0.54053100  0.23052300  1
  C  1015  1  0.09347200  0.49848600  0.22579000  1
  C  1017  1  0.10733500  0.48475800  0.29550200  1
  C  1020  1  0.12347000  0.59530700  0.28307000  1
  C  1024  1  0.60997600  0.95519200  0.73824100  1
  C  1025  1  0.60284600  0.96863000  0.77875400  1
  C  1026  1  0.59356700  0.01068000  0.78355900  1
  C  1028  1  0.60734000  0.02440400  0.71383300  1
  C  1031  1  0.62354500  0.91388100  0.72622000  1
  C  1035  1  0.89895900  0.05403000  0.23821700  1
  C  1036  1  0.90619000  0.04045000  0.27865400  1
  C  1037  1  0.91567900  0.99846200  0.28345400  1
  C  1039  1  0.90156700  0.98479800  0.21362600  1
  C  1042  1  0.88556400  0.09541300  0.22625700  1
  C  1046  1  0.39884900  0.45529800  0.77070600  1
  C  1047  1  0.40619900  0.46888900  0.73025800  1
  C  1048  1  0.41578200  0.51086000  0.72561400  1
  C  1050  1  0.40170700  0.52446900  0.79536400  1
  C  1053  1  0.38536200  0.41393600  0.78265400  1
  N  532  1  0.25953400  0.46496100  0.39712400  1
  N  534  1  0.24862200  0.49259600  0.33415400  1
  N  543  1  0.24951700  0.54409600  0.89712800  1
  N  545  1  0.26052400  0.51630600  0.83426100  1
  N  554  1  0.74937600  0.96497900  0.11190000  1
  N  556  1  0.76050100  0.99308000  0.17457200  1
  N  565  1  0.75955000  0.04423700  0.61221600  1
  N  567  1  0.74860500  0.01651500  0.67506100  1
  N  576  1  0.39715500  0.25964900  0.46493000  1
  N  578  1  0.33436800  0.24853100  0.49283000  1
  N  587  1  0.89753000  0.24946300  0.54408400  1
  N  589  1  0.83429200  0.26009700  0.51697300  1
  N  598  1  0.11214700  0.74963200  0.96516500  1
  N  600  1  0.17495700  0.76070200  0.99304100  1
  N  609  1  0.61225600  0.75960800  0.04434400  1
  N  611  1  0.67487500  0.74842800  0.01618700  1
  N  620  1  0.46511000  0.39738900  0.25967600  1
  N  622  1  0.49234900  0.33421200  0.24895700  1
  N  631  1  0.54435500  0.89700900  0.24943300  1
  N  633  1  0.51626600  0.83434700  0.26060600  1
  N  642  1  0.96487600  0.11210800  0.74939100  1
  N  644  1  0.99313500  0.17468100  0.76064700  1
  N  653  1  0.04409400  0.61198100  0.75945900  1
  N  655  1  0.01670500  0.67504900  0.74874800  1
  N  664  1  0.75328800  0.96996500  0.88707800  1
  N  666  1  0.72233200  0.01709800  0.84588900  1
  N  675  1  0.75589700  0.03903400  0.38713000  1
  N  677  1  0.78699600  0.99170900  0.34620300  1
  N  686  1  0.25582100  0.47005300  0.62202500  1
  N  688  1  0.28704300  0.51755500  0.66265300  1
  N  697  1  0.25331000  0.53932700  0.12243600  1
  N  699  1  0.22189900  0.49173300  0.16280500  1
  N  708  1  0.88705400  0.75336800  0.96984900  1
  N  710  1  0.84624300  0.72223500  0.01720600  1
  N  719  1  0.38710200  0.75598200  0.03903000  1
  N  721  1  0.34592600  0.78692600  0.99188000  1
  N  730  1  0.62222600  0.25570600  0.46996100  1
  N  732  1  0.66244600  0.28715300  0.51768900  1
  N  741  1  0.12212300  0.25321500  0.53907700  1
  N  743  1  0.16315400  0.22218300  0.49181600  1
  N  752  1  0.97003800  0.88711500  0.75341300  1
  N  754  1  0.01721500  0.84602900  0.72238100  1
  N  763  1  0.03910600  0.38704100  0.75600300  1
  N  765  1  0.99174600  0.34621500  0.78718200  1
  N  774  1  0.47001300  0.62189100  0.25576700  1
  N  776  1  0.51736300  0.66277200  0.28686400  1
  N  785  1  0.53925400  0.12239600  0.25330900  1
  N  787  1  0.49167200  0.16285200  0.22199100  1
  N  796  1  0.00501300  0.22104900  0.37116800  1
  N  798  1  0.96102400  0.27302200  0.38924400  1
  N  807  1  0.50399200  0.78812100  0.87139400  1
  N  809  1  0.54801200  0.73613300  0.88942100  1
  N  818  1  0.00395300  0.72106400  0.13785000  1
  N  820  1  0.04800800  0.77311600  0.11993100  1
  N  829  1  0.50510700  0.28808300  0.63788500  1
  N  831  1  0.46093200  0.23622200  0.61987000  1
  N  840  1  0.37147000  0.00522300  0.22096400  1
  N  842  1  0.38967400  0.96111500  0.27284300  1
  N  851  1  0.87119900  0.50411100  0.78794100  1
  N  853  1  0.88926300  0.54814300  0.73597700  1
  N  862  1  0.13781000  0.00388300  0.72096400  1
  N  864  1  0.11987700  0.04801400  0.77290900  1
  N  873  1  0.63802600  0.50491500  0.28807600  1
  N  875  1  0.62000800  0.46089000  0.23612300  1
  N  884  1  0.22107400  0.37126600  0.00524700  1
  N  886  1  0.27301600  0.38941200  0.96121300  1
  N  895  1  0.78803800  0.87134800  0.50422700  1
  N  897  1  0.73605700  0.88939100  0.54823700  1
  N  906  1  0.72085700  0.13796000  0.00375500  1
  N  908  1  0.77278700  0.11997900  0.04785500  1
  N  917  1  0.28792000  0.63790400  0.50493400  1
  N  919  1  0.23601500  0.61991000  0.46084400  1
  N  928  1  0.97199400  0.25212000  0.91047400  1
  N  930  1  0.02544700  0.20833000  0.89671300  1
  N  939  1  0.53715500  0.75692400  0.41030600  1
  N  941  1  0.48364300  0.80069600  0.39663400  1
  N  950  1  0.47213400  0.25747200  0.09905500  1
  N  952  1  0.52576400  0.30121400  0.11262800  1
  N  961  1  0.03706700  0.75203300  0.59871700  1
  N  963  1  0.98347300  0.70829400  0.61265500  1
  N  972  1  0.75229200  0.59878100  0.03719000  1
  N  974  1  0.70835500  0.61236200  0.98366500  1
  N  983  1  0.25732600  0.09887000  0.47203900  1
  N  985  1  0.30106000  0.11228000  0.52568500  1
  N  994  1  0.75751200  0.41016600  0.53696000  1
  N  996  1  0.80102900  0.39619200  0.48329300  1
  N  1005  1  0.25232200  0.91052900  0.97199700  1
  N  1007  1  0.20853600  0.89684700  0.02548700  1
  N  1016  1  0.09872200  0.47202700  0.25716800  1
  N  1018  1  0.11241800  0.52555700  0.30104000  1
  N  1027  1  0.59876600  0.03715000  0.75217600  1
  N  1029  1  0.61239900  0.98359800  0.70827800  1
  N  1038  1  0.91021200  0.97211000  0.25200400  1
  N  1040  1  0.89658200  0.02564500  0.20824300  1
  N  1049  1  0.41048000  0.53722200  0.75706400  1
  N  1051  1  0.39653600  0.48363700  0.80073300  1
