# generated using pymatgen
data_H9C20(NO)4
_symmetry_space_group_name_H-M   'P 1'
_cell_length_a   49.71820000
_cell_length_b   83.09130000
_cell_length_c   83.09130000
_cell_angle_alpha   90.00000000
_cell_angle_beta   90.00000000
_cell_angle_gamma   90.00000000
_symmetry_Int_Tables_number   1
_chemical_formula_structural   H9C20(NO)4
_chemical_formula_sum   'H576 C1280 N256 O256'
_cell_volume   343262.61333106
_cell_formula_units_Z   64
loop_
 _symmetry_equiv_pos_site_id
 _symmetry_equiv_pos_as_xyz
  1  'x, y, z'
loop_
 _atom_site_type_symbol
 _atom_site_label
 _atom_site_symmetry_multiplicity
 _atom_site_fract_x
 _atom_site_fract_y
 _atom_site_fract_z
 _atom_site_occupancy
  H  7  1  0.19140100  0.09395900  0.32069800  1
  H  16  1  0.24014300  0.10018000  0.27787400  1
  H  19  1  0.18569800  0.11510400  0.26733700  1
  H  20  1  0.18502100  0.13052600  0.31419800  1
  H  21  1  0.11101500  0.07863900  0.29051400  1
  H  22  1  0.27482300  0.15281900  0.29262900  1
  H  27  1  0.29674400  0.12347000  0.27384600  1
  H  28  1  0.14382300  0.09337900  0.25764400  1
  H  29  1  0.14468700  0.06773700  0.32564400  1
  H  30  1  0.22710800  0.15237200  0.32304500  1
  H  37  1  0.19151900  0.90714100  0.79133000  1
  H  46  1  0.24014500  0.90099600  0.83419200  1
  H  49  1  0.18569500  0.88600900  0.84469800  1
  H  50  1  0.18517900  0.87056800  0.79785300  1
  H  51  1  0.11098300  0.92240300  0.82140300  1
  H  52  1  0.27499200  0.84837100  0.81952100  1
  H  57  1  0.29679400  0.87773400  0.83829900  1
  H  58  1  0.14369400  0.90769100  0.85431700  1
  H  59  1  0.14475200  0.93332900  0.78633400  1
  H  60  1  0.22730100  0.84875700  0.78906500  1
  H  67  1  0.19156900  0.73567100  0.14947300  1
  H  76  1  0.23973700  0.77869600  0.15596600  1
  H  79  1  0.18498900  0.78900600  0.17060300  1
  H  80  1  0.18467900  0.74211800  0.18602700  1
  H  81  1  0.11096600  0.76544000  0.13391400  1
  H  82  1  0.27428600  0.76378100  0.20860200  1
  H  87  1  0.29625700  0.78277400  0.17895900  1
  H  88  1  0.14334500  0.79854200  0.14874200  1
  H  89  1  0.14436600  0.73106400  0.12289000  1
  H  90  1  0.22687600  0.73349000  0.20811500  1
  H  97  1  0.19130700  0.26491000  0.96246900  1
  H  106  1  0.24024400  0.22213500  0.95629700  1
  H  109  1  0.18584500  0.21148900  0.94145500  1
  H  110  1  0.18496200  0.25833800  0.92591100  1
  H  111  1  0.11106300  0.23461600  0.97785000  1
  H  112  1  0.27490300  0.23695500  0.90366800  1
  H  117  1  0.29684900  0.21823400  0.93309600  1
  H  118  1  0.14403500  0.20177700  0.96321400  1
  H  119  1  0.14507600  0.27001400  0.98859200  1
  H  120  1  0.22735900  0.26695000  0.90382200  1
  H  127  1  0.88923300  0.90694700  0.32069000  1
  H  136  1  0.84047800  0.90073000  0.27787000  1
  H  139  1  0.89492300  0.88581200  0.26732500  1
  H  140  1  0.89561300  0.87038400  0.31418700  1
  H  141  1  0.96960200  0.92228300  0.29049600  1
  H  142  1  0.80581500  0.84808600  0.29262000  1
  H  147  1  0.78388300  0.87743500  0.27384100  1
  H  148  1  0.93678300  0.90754400  0.25762900  1
  H  149  1  0.93593800  0.93317300  0.32563600  1
  H  150  1  0.85353000  0.84853400  0.32303600  1
  H  157  1  0.88912400  0.09376200  0.79131400  1
  H  166  1  0.84059700  0.10002600  0.83421600  1
  H  169  1  0.89509200  0.11495100  0.84465300  1
  H  170  1  0.89554700  0.13032400  0.79776500  1
  H  171  1  0.96967400  0.07847700  0.82135900  1
  H  172  1  0.80585700  0.15265000  0.81945300  1
  H  177  1  0.78403200  0.12319000  0.83828200  1
  H  178  1  0.93702200  0.09323200  0.85428500  1
  H  179  1  0.93588600  0.06754800  0.78632700  1
  H  180  1  0.85345100  0.15216400  0.78897900  1
  H  187  1  0.88910600  0.26527600  0.14947100  1
  H  196  1  0.84093100  0.22225400  0.15596200  1
  H  199  1  0.89566900  0.21194600  0.17061600  1
  H  200  1  0.89597700  0.25883800  0.18602400  1
  H  201  1  0.96971200  0.23549600  0.13393100  1
  H  202  1  0.80637400  0.23717100  0.20859600  1
  H  207  1  0.78440200  0.21817700  0.17895000  1
  H  208  1  0.93732800  0.20240300  0.14876400  1
  H  209  1  0.93631200  0.26987600  0.12289300  1
  H  210  1  0.85381100  0.26749700  0.20808100  1
  H  217  1  0.88934600  0.73601600  0.96247500  1
  H  226  1  0.84041000  0.77879100  0.95630300  1
  H  229  1  0.89480800  0.78943400  0.94145800  1
  H  230  1  0.89568700  0.74258700  0.92591600  1
  H  231  1  0.96959400  0.76630900  0.97784900  1
  H  232  1  0.80574200  0.76397000  0.90367600  1
  H  237  1  0.78379900  0.78269000  0.93310600  1
  H  238  1  0.93662000  0.79914800  0.96321300  1
  H  239  1  0.93558000  0.73091300  0.98859800  1
  H  240  1  0.85329000  0.73397400  0.90383000  1
  H  247  1  0.88197600  0.90244400  0.78000000  1
  H  256  1  0.83112800  0.90514800  0.82465200  1
  H  259  1  0.88526500  0.91231500  0.83661900  1
  H  260  1  0.89939200  0.87460700  0.79797700  1
  H  261  1  0.93641500  0.94836200  0.79524000  1
  H  262  1  0.81859700  0.84648000  0.82450500  1
  H  267  1  0.78479600  0.87963500  0.83555100  1
  H  268  1  0.87196600  0.95089400  0.82735000  1
  H  269  1  0.91946100  0.93225300  0.76433900  1
  H  270  1  0.86126300  0.84588200  0.79095100  1
  H  277  1  0.88186300  0.09838700  0.33202200  1
  H  286  1  0.83113800  0.09556900  0.28736400  1
  H  289  1  0.88535300  0.08841900  0.27541000  1
  H  290  1  0.89940600  0.12618700  0.31396300  1
  H  291  1  0.93640700  0.05245100  0.31693100  1
  H  292  1  0.81852000  0.15423200  0.28735000  1
  H  297  1  0.78476200  0.12132100  0.27644300  1
  H  298  1  0.87207000  0.04987200  0.28471200  1
  H  299  1  0.91962000  0.06850900  0.34771300  1
  H  300  1  0.86121300  0.15496000  0.32087700  1
  H  307  1  0.88189400  0.27680000  0.95809600  1
  H  316  1  0.83178500  0.23187400  0.96057700  1
  H  319  1  0.88608900  0.22013900  0.96775400  1
  H  320  1  0.89982100  0.25896000  0.93022500  1
  H  321  1  0.93676500  0.26164000  0.00386700  1
  H  322  1  0.81942400  0.23219900  0.90188300  1
  H  327  1  0.78559900  0.22074500  0.93545800  1
  H  328  1  0.87268800  0.22917900  0.00632000  1
  H  329  1  0.91965800  0.29228900  0.98819400  1
  H  330  1  0.86177200  0.26589900  0.90147100  1
  H  337  1  0.88234000  0.72457400  0.15405500  1
  H  346  1  0.83134700  0.76914500  0.15130100  1
  H  349  1  0.88546000  0.78119200  0.14414500  1
  H  350  1  0.89970800  0.74260200  0.18188400  1
  H  351  1  0.93671300  0.73982700  0.10811100  1
  H  352  1  0.81874200  0.76903500  0.20996300  1
  H  357  1  0.78493700  0.77997600  0.17707300  1
  H  358  1  0.87215700  0.77188500  0.10558600  1
  H  359  1  0.91974700  0.70891000  0.12421400  1
  H  360  1  0.86157300  0.73550600  0.21059100  1
  H  367  1  0.19863500  0.09847700  0.77999100  1
  H  376  1  0.24947800  0.09577700  0.82464400  1
  H  379  1  0.19533200  0.08861900  0.83661100  1
  H  380  1  0.18122100  0.12632000  0.79796100  1
  H  381  1  0.14419600  0.05256000  0.79523600  1
  H  382  1  0.26201600  0.15444500  0.82449300  1
  H  387  1  0.29581300  0.12128700  0.83554100  1
  H  388  1  0.20863800  0.05004200  0.82735800  1
  H  389  1  0.16116800  0.06866100  0.76433100  1
  H  390  1  0.21935400  0.15503900  0.79093400  1
  H  397  1  0.19880100  0.90254900  0.33203500  1
  H  406  1  0.24952400  0.90537300  0.28737600  1
  H  409  1  0.19530200  0.91250400  0.27542100  1
  H  410  1  0.18128500  0.87473900  0.31398400  1
  H  411  1  0.14422400  0.94846700  0.31693300  1
  H  412  1  0.26217900  0.84671500  0.28736700  1
  H  417  1  0.29591400  0.87962900  0.27645100  1
  H  418  1  0.20855700  0.95105200  0.28471000  1
  H  419  1  0.16102100  0.93241900  0.34772000  1
  H  420  1  0.21948900  0.84598300  0.32089900  1
  H  427  1  0.19872900  0.72413400  0.95806800  1
  H  436  1  0.24880200  0.76907800  0.96051900  1
  H  439  1  0.19450600  0.78079600  0.96773100  1
  H  440  1  0.18074300  0.74196700  0.93021000  1
  H  441  1  0.14390700  0.73927900  0.00386500  1
  H  442  1  0.26108100  0.76873800  0.90181600  1
  H  447  1  0.29495200  0.78020700  0.93540300  1
  H  448  1  0.20796200  0.77175100  0.00629500  1
  H  449  1  0.16099900  0.70863900  0.98818300  1
  H  450  1  0.21877100  0.73502700  0.90143400  1
  H  457  1  0.19835400  0.27637100  0.15404000  1
  H  466  1  0.24933100  0.23178800  0.15130100  1
  H  469  1  0.19521300  0.21975400  0.14414600  1
  H  470  1  0.18099200  0.25835800  0.18187600  1
  H  471  1  0.14396900  0.26110800  0.10810600  1
  H  472  1  0.26194600  0.23192300  0.20996200  1
  H  477  1  0.29572800  0.22094900  0.17707600  1
  H  478  1  0.20852300  0.22904700  0.10558300  1
  H  479  1  0.16094000  0.29202900  0.12420100  1
  H  480  1  0.21913300  0.26545400  0.21057900  1
  H  487  1  0.69107800  0.58886100  0.82091500  1
  H  496  1  0.73818600  0.59885600  0.77746800  1
  H  499  1  0.68506400  0.61530100  0.76999400  1
  H  500  1  0.69102400  0.62584800  0.82012100  1
  H  501  1  0.60914500  0.57816900  0.78984000  1
  H  502  1  0.78437600  0.64548700  0.79855300  1
  H  507  1  0.79706200  0.62080000  0.77508500  1
  H  508  1  0.64246200  0.59416500  0.75804000  1
  H  509  1  0.64256500  0.56408900  0.82434100  1
  H  510  1  0.74703600  0.62752900  0.83970700  1
  H  517  1  0.69114300  0.41225400  0.29108600  1
  H  526  1  0.73818200  0.40239600  0.33455900  1
  H  529  1  0.68506800  0.38587700  0.34204400  1
  H  530  1  0.69107000  0.37523400  0.29198700  1
  H  531  1  0.60908400  0.42291900  0.32204300  1
  H  532  1  0.78442400  0.35570000  0.31367100  1
  H  537  1  0.79706600  0.38046200  0.33700300  1
  H  538  1  0.64229500  0.40695500  0.35389400  1
  H  539  1  0.64258300  0.43700300  0.28760400  1
  H  540  1  0.74701600  0.37342600  0.27243100  1
  H  547  1  0.69120900  0.23543400  0.64431200  1
  H  556  1  0.73778200  0.27902900  0.65444400  1
  H  559  1  0.68439500  0.28635700  0.67068800  1
  H  560  1  0.69061200  0.23635300  0.68135400  1
  H  561  1  0.60900200  0.26606900  0.63339100  1
  H  562  1  0.78381500  0.25811600  0.70118000  1
  H  567  1  0.79657500  0.28157200  0.67611800  1
  H  568  1  0.64185700  0.29809900  0.64948800  1
  H  569  1  0.64209800  0.23240200  0.61920000  1
  H  570  1  0.74647600  0.21684600  0.68342400  1
  H  577  1  0.69084100  0.76520700  0.46766200  1
  H  586  1  0.73820400  0.72183200  0.45784100  1
  H  589  1  0.68514100  0.71419700  0.44137500  1
  H  590  1  0.69072200  0.76422000  0.43064600  1
  H  591  1  0.60902800  0.73401800  0.47836800  1
  H  592  1  0.78417100  0.74274000  0.41107700  1
  H  597  1  0.79703500  0.71946800  0.43599000  1
  H  598  1  0.64247000  0.70226500  0.46246900  1
  H  599  1  0.64282200  0.76882300  0.49231800  1
  H  600  1  0.74635000  0.78393700  0.42866200  1
  H  607  1  0.38956500  0.41207700  0.82093100  1
  H  616  1  0.34249000  0.40207600  0.77747400  1
  H  619  1  0.39561700  0.38562700  0.77001600  1
  H  620  1  0.38962400  0.37508800  0.82014000  1
  H  621  1  0.47152700  0.42275800  0.78988200  1
  H  622  1  0.29628000  0.35545000  0.79855400  1
  H  627  1  0.28360800  0.38013700  0.77508400  1
  H  628  1  0.43824000  0.40675600  0.75807200  1
  H  629  1  0.43808300  0.43685000  0.82436100  1
  H  630  1  0.33359600  0.37340900  0.83971400  1
  H  637  1  0.38947700  0.58867400  0.29108500  1
  H  646  1  0.34244200  0.59856000  0.33455700  1
  H  649  1  0.39554900  0.61508500  0.34202600  1
  H  650  1  0.38951700  0.62568900  0.29195100  1
  H  651  1  0.47153700  0.57803200  0.32204900  1
  H  652  1  0.29614300  0.64521500  0.31361900  1
  H  657  1  0.28353400  0.62048300  0.33702700  1
  H  658  1  0.43831800  0.59400300  0.35389500  1
  H  659  1  0.43804800  0.56393100  0.28762000  1
  H  660  1  0.33352900  0.62745000  0.27239900  1
  H  667  1  0.38944100  0.76549600  0.64434700  1
  H  676  1  0.34285800  0.72190500  0.65447000  1
  H  679  1  0.39625100  0.71456400  0.67070600  1
  H  680  1  0.39006400  0.76455900  0.68139200  1
  H  681  1  0.47163400  0.73485800  0.63340500  1
  H  682  1  0.29686100  0.74280100  0.70122700  1
  H  687  1  0.28407300  0.71936200  0.67615200  1
  H  688  1  0.43877900  0.70282700  0.64950100  1
  H  689  1  0.43854100  0.76853000  0.61922500  1
  H  690  1  0.33421700  0.78407500  0.68348900  1
  H  697  1  0.38981100  0.23570500  0.46766200  1
  H  706  1  0.34245000  0.27908000  0.45783800  1
  H  709  1  0.39551300  0.28671200  0.44137100  1
  H  710  1  0.38992700  0.23668800  0.43064700  1
  H  711  1  0.47162400  0.26689600  0.47836400  1
  H  712  1  0.29648100  0.25816800  0.41107600  1
  H  717  1  0.28362000  0.28144400  0.43598400  1
  H  718  1  0.43818100  0.29864500  0.46246300  1
  H  719  1  0.43783100  0.23209100  0.49231800  1
  H  720  1  0.33429800  0.21697200  0.42866600  1
  H  727  1  0.37978200  0.40420600  0.28147500  1
  H  736  1  0.33056300  0.40510900  0.32700500  1
  H  739  1  0.38449100  0.41261000  0.33834500  1
  H  740  1  0.39813800  0.37587200  0.29845100  1
  H  741  1  0.43446400  0.44975600  0.29745400  1
  H  742  1  0.32021400  0.34628500  0.32519100  1
  H  747  1  0.28557700  0.37932500  0.33803100  1
  H  748  1  0.37070500  0.45150600  0.32999300  1
  H  749  1  0.41675800  0.43429500  0.26618200  1
  H  750  1  0.36150100  0.34930600  0.28843500  1
  H  757  1  0.37964700  0.59660100  0.83057000  1
  H  766  1  0.33055100  0.59556100  0.78503600  1
  H  769  1  0.38457700  0.58811500  0.77370300  1
  H  770  1  0.39809900  0.62491000  0.81351300  1
  H  771  1  0.43454500  0.55108600  0.81472000  1
  H  772  1  0.32005200  0.65437600  0.78667800  1
  H  777  1  0.28547100  0.62159000  0.77401200  1
  H  778  1  0.37089200  0.54925000  0.78206700  1
  H  779  1  0.41687700  0.56641900  0.84584100  1
  H  780  1  0.36143500  0.65151100  0.82340800  1
  H  787  1  0.37950900  0.77526700  0.45987300  1
  H  796  1  0.33102500  0.72950000  0.46057200  1
  H  799  1  0.38515400  0.71835900  0.46802900  1
  H  800  1  0.39837300  0.75841200  0.43150400  1
  H  801  1  0.43476600  0.75934500  0.50520500  1
  H  802  1  0.32081800  0.73146400  0.40172900  1
  H  807  1  0.28620300  0.71821000  0.43525300  1
  H  808  1  0.37140300  0.72643400  0.50690500  1
  H  809  1  0.41671200  0.79032900  0.49028100  1
  H  810  1  0.36181300  0.76830500  0.40490800  1
  H  817  1  0.38006200  0.22606800  0.65228200  1
  H  826  1  0.33062100  0.27148200  0.65126100  1
  H  829  1  0.38457500  0.28294900  0.64389200  1
  H  830  1  0.39824600  0.24311900  0.68064700  1
  H  831  1  0.43489900  0.24213100  0.60682600  1
  H  832  1  0.31999500  0.26973600  0.71005900  1
  H  837  1  0.28544700  0.28241700  0.67731100  1
  H  838  1  0.37098900  0.27461000  0.60500900  1
  H  839  1  0.41696800  0.21083800  0.62217500  1
  H  840  1  0.36159000  0.23305200  0.70715000  1
  H  847  1  0.70087400  0.59674300  0.28147600  1
  H  856  1  0.75008900  0.59582300  0.32700500  1
  H  859  1  0.69614300  0.58836300  0.33835000  1
  H  860  1  0.68255600  0.62509200  0.29844800  1
  H  861  1  0.64608100  0.55124900  0.29748300  1
  H  862  1  0.76052200  0.65463900  0.32518700  1
  H  867  1  0.79510900  0.62159600  0.33803000  1
  H  868  1  0.70985600  0.54946800  0.33002500  1
  H  869  1  0.66393900  0.56663700  0.26623500  1
  H  870  1  0.71921900  0.65164000  0.28843600  1
  H  877  1  0.70096200  0.40431700  0.83055500  1
  H  886  1  0.75007300  0.40534800  0.78502600  1
  H  889  1  0.69605400  0.41279500  0.77368700  1
  H  890  1  0.68251200  0.37600600  0.81349800  1
  H  891  1  0.64607700  0.44983400  0.81469300  1
  H  892  1  0.76056600  0.34653300  0.78668000  1
  H  897  1  0.79515500  0.37931300  0.77401200  1
  H  898  1  0.70974800  0.45166100  0.78205000  1
  H  899  1  0.66374400  0.43450300  0.84582100  1
  H  900  1  0.71916900  0.34940500  0.82340400  1
  H  907  1  0.70115300  0.22564900  0.45987100  1
  H  916  1  0.74962200  0.27142300  0.46056800  1
  H  919  1  0.69548900  0.28255800  0.46801400  1
  H  920  1  0.68230300  0.24249400  0.43149400  1
  H  921  1  0.64587600  0.24157800  0.50519300  1
  H  922  1  0.75985400  0.26944800  0.40172800  1
  H  927  1  0.79444900  0.28271700  0.43525000  1
  H  928  1  0.70923300  0.27449300  0.50689400  1
  H  929  1  0.66394300  0.21059000  0.49027700  1
  H  930  1  0.71888300  0.23258900  0.40491600  1
  H  937  1  0.70058200  0.77485400  0.65229100  1
  H  946  1  0.75003500  0.72944500  0.65126300  1
  H  949  1  0.69607400  0.71797700  0.64389400  1
  H  950  1  0.68240100  0.75779800  0.68065300  1
  H  951  1  0.64574700  0.75879200  0.60683400  1
  H  952  1  0.76065600  0.73118000  0.71006100  1
  H  957  1  0.79521300  0.71851400  0.67730900  1
  H  958  1  0.70966500  0.72631800  0.60501200  1
  H  959  1  0.66367400  0.79008400  0.62218500  1
  H  960  1  0.71905400  0.76786500  0.70715600  1
  H  967  1  0.21232400  0.98046300  0.28561500  1
  H  972  1  0.12922500  0.97351700  0.27923200  1
  H  977  1  0.19303300  0.05806100  0.26448400  1
  H  978  1  0.11129800  0.04673200  0.25806400  1
  H  989  1  0.21235300  0.02063500  0.82657200  1
  H  994  1  0.12924200  0.02758600  0.83287700  1
  H  999  1  0.19294400  0.94300600  0.84756100  1
  H  1000  1  0.11119800  0.95434700  0.85390800  1
  H  1011  1  0.21188400  0.77088600  0.03573500  1
  H  1016  1  0.12870000  0.77691600  0.02889200  1
  H  1021  1  0.19256800  0.79184700  0.11338200  1
  H  1022  1  0.11074100  0.79797100  0.10213100  1
  H  1033  1  0.21233700  0.22988800  0.07616300  1
  H  1038  1  0.12924000  0.22344300  0.08306600  1
  H  1043  1  0.19318200  0.20876100  0.99854700  1
  H  1044  1  0.11145400  0.20226300  0.00984500  1
  H  1055  1  0.86830500  0.02045900  0.28563300  1
  H  1060  1  0.95139500  0.02740800  0.27920700  1
  H  1065  1  0.88758000  0.94286100  0.26449700  1
  H  1066  1  0.96930200  0.95419300  0.25803600  1
  H  1077  1  0.86827700  0.98030300  0.82655900  1
  H  1082  1  0.95137700  0.97332600  0.83289300  1
  H  1087  1  0.88774100  0.05793000  0.84753200  1
  H  1088  1  0.96947100  0.04656400  0.85390800  1
  H  1099  1  0.86877000  0.23004000  0.03575800  1
  H  1104  1  0.95195600  0.22402100  0.02891200  1
  H  1109  1  0.88809900  0.20908200  0.11340300  1
  H  1110  1  0.96992800  0.20297000  0.10215100  1
  H  1121  1  0.86833900  0.77103800  0.07616600  1
  H  1126  1  0.95143500  0.77749400  0.08306600  1
  H  1131  1  0.88748100  0.79216300  0.99854900  1
  H  1132  1  0.96920800  0.79867000  0.00984300  1
  H  1143  1  0.71318700  0.48114600  0.78249900  1
  H  1148  1  0.63004000  0.47389700  0.77676600  1
  H  1153  1  0.69240800  0.55889600  0.76257000  1
  H  1154  1  0.61066500  0.54731000  0.75670300  1
  H  1165  1  0.71323100  0.51999100  0.32970600  1
  H  1170  1  0.63006900  0.52725400  0.33532200  1
  H  1175  1  0.69229300  0.44221400  0.34947500  1
  H  1176  1  0.61053400  0.45381900  0.35522700  1
  H  1187  1  0.71280500  0.27420900  0.53638700  1
  H  1192  1  0.62952900  0.27929900  0.52924500  1
  H  1197  1  0.69184500  0.29392100  0.61417900  1
  H  1198  1  0.60995900  0.29920800  0.60267500  1
  H  1209  1  0.71314900  0.72661100  0.57553700  1
  H  1214  1  0.62995600  0.72103700  0.58272700  1
  H  1219  1  0.69239600  0.70675700  0.49776200  1
  H  1220  1  0.61060700  0.70103200  0.50930000  1
  H  1231  1  0.36746100  0.51976600  0.78250700  1
  H  1236  1  0.45061100  0.52702400  0.77680400  1
  H  1241  1  0.38827800  0.44202000  0.76257800  1
  H  1242  1  0.47002700  0.45361300  0.75674400  1
  H  1253  1  0.36735600  0.48098800  0.32965300  1
  H  1258  1  0.45049500  0.47369600  0.33536000  1
  H  1263  1  0.38831000  0.55875900  0.34943700  1
  H  1264  1  0.47004100  0.54712800  0.35527600  1
  H  1275  1  0.36783300  0.72671700  0.53639800  1
  H  1280  1  0.45110800  0.72162500  0.52925800  1
  H  1285  1  0.38879100  0.70701100  0.61419200  1
  H  1286  1  0.47067600  0.70172100  0.60268800  1
  H  1297  1  0.36750100  0.27432100  0.57553500  1
  H  1302  1  0.45069800  0.27988300  0.58272200  1
  H  1307  1  0.38825600  0.29416600  0.49775700  1
  H  1308  1  0.47004900  0.29988000  0.50929200  1
  H  1319  1  0.33462200  0.19569800  0.40978900  1
  H  1324  1  0.28808700  0.22966000  0.38453900  1
  H  1329  1  0.29346000  0.14041100  0.35557000  1
  H  1330  1  0.24862700  0.17726800  0.33352100  1
  H  1341  1  0.33504600  0.80528000  0.70249700  1
  H  1346  1  0.28809900  0.77141900  0.72760600  1
  H  1351  1  0.29391400  0.86062800  0.75666400  1
  H  1352  1  0.24867100  0.82386500  0.77857200  1
  H  1363  1  0.33246100  0.64575400  0.25079700  1
  H  1368  1  0.28926800  0.67235100  0.28530700  1
  H  1373  1  0.29125700  0.70003900  0.19559900  1
  H  1374  1  0.24975100  0.72345500  0.23299700  1
  H  1385  1  0.33090500  0.35570000  0.86163200  1
  H  1390  1  0.29079900  0.32789800  0.82673700  1
  H  1395  1  0.28973500  0.30140100  0.91681100  1
  H  1396  1  0.25128000  0.27676600  0.87903300  1
  H  1407  1  0.74601200  0.80520600  0.40978000  1
  H  1412  1  0.79257000  0.77124800  0.38454000  1
  H  1417  1  0.78716600  0.86049100  0.35555700  1
  H  1418  1  0.83202900  0.82363900  0.33352100  1
  H  1429  1  0.74576900  0.19560900  0.70238700  1
  H  1434  1  0.79250000  0.22951300  0.72758400  1
  H  1439  1  0.78693000  0.14026900  0.75655500  1
  H  1440  1  0.83196000  0.17707400  0.77854900  1
  H  1451  1  0.74776600  0.35500000  0.25089900  1
  H  1456  1  0.79165700  0.32868000  0.28530600  1
  H  1461  1  0.78900000  0.30074300  0.19568100  1
  H  1462  1  0.83119600  0.27760200  0.23297500  1
  H  1473  1  0.74972500  0.64523900  0.86162600  1
  H  1478  1  0.78986300  0.67303100  0.82673800  1
  H  1483  1  0.79089500  0.69953100  0.91681100  1
  H  1484  1  0.82938000  0.72415800  0.87903900  1
  H  1495  1  0.73052300  0.79543900  0.71765100  1
  H  1500  1  0.80343100  0.77043000  0.72353700  1
  H  1505  1  0.77851700  0.85067400  0.76981600  1
  H  1506  1  0.84868000  0.82257500  0.77338700  1
  H  1517  1  0.73065900  0.20502200  0.39455800  1
  H  1522  1  0.80311000  0.23040000  0.38824100  1
  H  1527  1  0.77876400  0.14987000  0.34234500  1
  H  1528  1  0.84847100  0.17831800  0.33835200  1
  H  1539  1  0.73078600  0.33903600  0.85105600  1
  H  1544  1  0.80348400  0.33298800  0.82587100  1
  H  1549  1  0.77900800  0.28696400  0.90631100  1
  H  1550  1  0.84894800  0.28323100  0.87803500  1
  H  1561  1  0.73093700  0.66194100  0.26076900  1
  H  1566  1  0.80342700  0.66822400  0.28611300  1
  H  1571  1  0.77907200  0.71410500  0.20557800  1
  H  1572  1  0.84880100  0.71808300  0.23400700  1
  H  1583  1  0.35013100  0.20548700  0.71766000  1
  H  1588  1  0.27719800  0.23047900  0.72350900  1
  H  1593  1  0.30212000  0.15025800  0.76982700  1
  H  1594  1  0.23193100  0.17833900  0.77335800  1
  H  1605  1  0.35011500  0.79584300  0.39448100  1
  H  1610  1  0.27753000  0.77057000  0.38830400  1
  H  1615  1  0.30202600  0.85100200  0.34226900  1
  H  1616  1  0.23218000  0.82265600  0.33841900  1
  H  1627  1  0.34980900  0.66189600  0.85105100  1
  H  1632  1  0.27710800  0.66791400  0.82586400  1
  H  1637  1  0.30154900  0.71398100  0.90628100  1
  H  1638  1  0.23160500  0.71768300  0.87800300  1
  H  1649  1  0.34977900  0.33900200  0.26076600  1
  H  1654  1  0.27729900  0.33270500  0.28611800  1
  H  1659  1  0.30163400  0.28685300  0.20556300  1
  H  1660  1  0.23191700  0.28286200  0.23399900  1
  H  1671  1  0.30978800  0.14229300  0.25235900  1
  H  1676  1  0.23194100  0.12998100  0.23681600  1
  H  1681  1  0.30939300  0.19914600  0.19521200  1
  H  1682  1  0.23162700  0.18332100  0.18310500  1
  H  1693  1  0.30977200  0.85896600  0.85984700  1
  H  1698  1  0.23180600  0.87120700  0.87520500  1
  H  1703  1  0.30886200  0.80187500  0.91673400  1
  H  1704  1  0.23098400  0.81763100  0.92861000  1
  H  1715  1  0.30950000  0.80425500  0.19791500  1
  H  1720  1  0.23171200  0.81989200  0.18565900  1
  H  1725  1  0.30951200  0.86153600  0.25460400  1
  H  1726  1  0.23179000  0.87372000  0.23882900  1
  H  1737  1  0.31001300  0.19666200  0.91424400  1
  H  1742  1  0.23228100  0.18100000  0.92666300  1
  H  1747  1  0.30953200  0.13960000  0.85734000  1
  H  1748  1  0.23189700  0.12741700  0.87327200  1
  H  1759  1  0.77084200  0.85861500  0.25235100  1
  H  1764  1  0.84867600  0.87094400  0.23680100  1
  H  1769  1  0.77124600  0.80178300  0.19518900  1
  H  1770  1  0.84900400  0.81762300  0.18309000  1
  H  1781  1  0.77102300  0.14203400  0.85986400  1
  H  1786  1  0.84895200  0.12980200  0.87528900  1
  H  1791  1  0.77172300  0.19906200  0.91680200  1
  H  1792  1  0.84957900  0.18331500  0.92874100  1
  H  1803  1  0.77116600  0.19670300  0.19791600  1
  H  1808  1  0.84893800  0.18105300  0.18564000  1
  H  1813  1  0.77116000  0.13942000  0.25460200  1
  H  1814  1  0.84886500  0.12722200  0.23880800  1
  H  1825  1  0.77062900  0.80425900  0.91425500  1
  H  1830  1  0.84835700  0.81992900  0.92666900  1
  H  1835  1  0.77108500  0.86132300  0.85735100  1
  H  1836  1  0.84871900  0.87351200  0.87328100  1
  H  1847  1  0.80928800  0.64044500  0.75386500  1
  H  1852  1  0.73009200  0.62936900  0.73988800  1
  H  1857  1  0.80838700  0.69711300  0.69621500  1
  H  1858  1  0.72931800  0.68247800  0.68573200  1
  H  1869  1  0.80924000  0.36087100  0.35832500  1
  H  1874  1  0.72991300  0.37183300  0.37210600  1
  H  1879  1  0.80787200  0.30391300  0.41567700  1
  H  1880  1  0.72868000  0.31843400  0.42591700  1
  H  1891  1  0.80889400  0.30267100  0.69602000  1
  H  1896  1  0.72983500  0.31682300  0.68487900  1
  H  1901  1  0.80823700  0.36035100  0.75263700  1
  H  1902  1  0.72929600  0.37100600  0.73794400  1
  H  1913  1  0.80931100  0.69828300  0.41617000  1
  H  1918  1  0.73027900  0.68411300  0.42741200  1
  H  1923  1  0.80828900  0.64080900  0.35934500  1
  H  1924  1  0.72939800  0.63016200  0.37414300  1
  H  1935  1  0.27138300  0.36049200  0.75386500  1
  H  1940  1  0.35058800  0.37155600  0.73989600  1
  H  1945  1  0.27228200  0.30381700  0.69622100  1
  H  1946  1  0.35135600  0.31844100  0.68573800  1
  H  1957  1  0.27135900  0.64007100  0.35832400  1
  H  1962  1  0.35069200  0.62910300  0.37208200  1
  H  1967  1  0.27276100  0.69701100  0.41569000  1
  H  1968  1  0.35195900  0.68248600  0.42590900  1
  H  1979  1  0.27174700  0.69825400  0.69604100  1
  H  1984  1  0.35080700  0.68410200  0.68489900  1
  H  1989  1  0.27239300  0.64055900  0.75264200  1
  H  1990  1  0.35133200  0.62990400  0.73794900  1
  H  2001  1  0.27135100  0.30262700  0.41616000  1
  H  2006  1  0.35037800  0.31679900  0.42741400  1
  H  2011  1  0.27239100  0.36010600  0.35934000  1
  H  2012  1  0.35127500  0.37075400  0.37415000  1
  H  2023  1  0.96910700  0.06284200  0.34970500  1
  H  2028  1  0.96914100  0.11142100  0.33560200  1
  H  2033  1  0.10247100  0.06408000  0.34003800  1
  H  2034  1  0.09446000  0.11282400  0.32719100  1
  H  2045  1  0.96913700  0.93801900  0.76235900  1
  H  2050  1  0.96939300  0.88945000  0.77644000  1
  H  2055  1  0.10254500  0.93694800  0.77187500  1
  H  2056  1  0.09474200  0.88819100  0.78469400  1
  H  2067  1  0.96941700  0.70672400  0.11849500  1
  H  2072  1  0.96968800  0.72103000  0.16699200  1
  H  2077  1  0.10290200  0.71599300  0.11961000  1
  H  2078  1  0.09511300  0.72900800  0.16830900  1
  H  2089  1  0.96914700  0.29434100  0.99371700  1
  H  2094  1  0.96904500  0.28043900  0.94507800  1
  H  2099  1  0.10243000  0.28413800  0.99243400  1
  H  2100  1  0.09425100  0.27151600  0.94365600  1
  H  2111  1  0.11153200  0.93808200  0.34970600  1
  H  2116  1  0.11151400  0.88950400  0.33560300  1
  H  2121  1  0.97816800  0.93683700  0.34001800  1
  H  2122  1  0.98619100  0.88809100  0.32717600  1
  H  2133  1  0.11149400  0.06287700  0.76235900  1
  H  2138  1  0.11120500  0.11145900  0.77639600  1
  H  2143  1  0.97808400  0.06392900  0.77185600  1
  H  2144  1  0.98585300  0.11270000  0.78462800  1
  H  2155  1  0.11126700  0.29421100  0.11848200  1
  H  2160  1  0.11100300  0.27991400  0.16698100  1
  H  2165  1  0.97778200  0.28494000  0.11960600  1
  H  2166  1  0.98557800  0.27193500  0.16830600  1
  H  2177  1  0.11150800  0.70658800  0.99371200  1
  H  2182  1  0.11159800  0.72047400  0.94506800  1
  H  2187  1  0.97822600  0.71679100  0.99244000  1
  H  2188  1  0.98639200  0.72939900  0.94365900  1
  H  2199  1  0.46635000  0.55992500  0.84745500  1
  H  2204  1  0.46790700  0.60898600  0.83519500  1
  H  2209  1  0.59996900  0.56024500  0.83864400  1
  H  2210  1  0.59349400  0.60954200  0.82775700  1
  H  2221  1  0.46637200  0.44094200  0.26459100  1
  H  2226  1  0.46815200  0.39190900  0.27689100  1
  H  2231  1  0.60002700  0.44079100  0.27320900  1
  H  2232  1  0.59374600  0.39150100  0.28413800  1
  H  2243  1  0.46662100  0.20901500  0.61559400  1
  H  2248  1  0.46848200  0.22150900  0.66457000  1
  H  2253  1  0.60035700  0.21734100  0.61573300  1
  H  2254  1  0.59416000  0.22842800  0.66498300  1
  H  2265  1  0.46616900  0.79205400  0.49663600  1
  H  2270  1  0.46767700  0.77997000  0.44752700  1
  H  2275  1  0.59973000  0.78281800  0.49631100  1
  H  2276  1  0.59315500  0.77211100  0.44699500  1
  H  2287  1  0.61427600  0.44100400  0.84744200  1
  H  2292  1  0.61269700  0.39194100  0.83519400  1
  H  2297  1  0.48065700  0.44068900  0.83868000  1
  H  2298  1  0.48712500  0.39139300  0.82779200  1
  H  2309  1  0.61427600  0.56002000  0.26462600  1
  H  2314  1  0.61244700  0.60906800  0.27686700  1
  H  2319  1  0.48061800  0.56013600  0.27324100  1
  H  2320  1  0.48685100  0.60944100  0.28411000  1
  H  2331  1  0.61402000  0.79191000  0.61560700  1
  H  2336  1  0.61217000  0.77941000  0.66458400  1
  H  2341  1  0.48028200  0.78358900  0.61575700  1
  H  2342  1  0.48648900  0.77249500  0.66500600  1
  H  2353  1  0.61448700  0.20886400  0.49663300  1
  H  2358  1  0.61297400  0.22094300  0.44752400  1
  H  2363  1  0.48092600  0.21809900  0.49631200  1
  H  2364  1  0.48749700  0.22880000  0.44699500  1
  C  1  1  0.19584700  0.09922600  0.29585700  1
  C  2  1  0.18357400  0.09200800  0.30946600  1
  C  3  1  0.15990400  0.08275600  0.30807800  1
  C  4  1  0.14902200  0.07964900  0.29263800  1
  C  5  1  0.16144000  0.08608400  0.27871900  1
  C  6  1  0.18386800  0.09648800  0.28050100  1
  C  9  1  0.21872100  0.10971200  0.29776100  1
  C  10  1  0.21959300  0.12206000  0.30965500  1
  C  11  1  0.24184500  0.13272000  0.31071300  1
  C  12  1  0.26213300  0.13214900  0.29872700  1
  C  13  1  0.26126200  0.12027900  0.28653200  1
  C  14  1  0.24039500  0.10876900  0.28671700  1
  C  23  1  0.27696700  0.12210100  0.27290100  1
  C  24  1  0.14993000  0.08371300  0.26363100  1
  C  25  1  0.14496500  0.07895600  0.32154800  1
  C  26  1  0.24247000  0.14475200  0.32226300  1
  C  31  1  0.19588800  0.90188400  0.81617800  1
  C  32  1  0.18365500  0.90909600  0.80255400  1
  C  33  1  0.15995100  0.91831800  0.80391500  1
  C  34  1  0.14900000  0.92142300  0.81933800  1
  C  35  1  0.16138700  0.91499400  0.83326900  1
  C  36  1  0.18385300  0.90461600  0.83152100  1
  C  39  1  0.21878900  0.89141700  0.81430700  1
  C  40  1  0.21972200  0.87906200  0.80242100  1
  C  41  1  0.24200400  0.86842100  0.80138900  1
  C  42  1  0.26226400  0.86902300  0.81339100  1
  C  43  1  0.26134100  0.88090400  0.82557400  1
  C  44  1  0.24042900  0.89238500  0.82537100  1
  C  53  1  0.27701500  0.87910800  0.83922300  1
  C  54  1  0.14982500  0.91736000  0.84834400  1
  C  55  1  0.14505700  0.92210800  0.79042500  1
  C  56  1  0.24266900  0.85637300  0.78985900  1
  C  61  1  0.19564300  0.76052800  0.15477400  1
  C  62  1  0.18363800  0.74687200  0.14748600  1
  C  63  1  0.16003300  0.74815600  0.13815800  1
  C  64  1  0.14899800  0.76354700  0.13500600  1
  C  65  1  0.16118100  0.77751700  0.14149000  1
  C  66  1  0.18352000  0.77583400  0.15198000  1
  C  69  1  0.21840700  0.75870700  0.16535900  1
  C  70  1  0.21928400  0.74677200  0.17766800  1
  C  71  1  0.24147100  0.74573500  0.18837700  1
  C  72  1  0.26169700  0.75775800  0.18788700  1
  C  73  1  0.26081000  0.76999500  0.17606500  1
  C  74  1  0.23997800  0.76983200  0.16453400  1
  C  83  1  0.27638900  0.78364800  0.17801800  1
  C  84  1  0.14950600  0.79255900  0.13908700  1
  C  85  1  0.14535100  0.73459000  0.13428200  1
  C  86  1  0.24208600  0.73415500  0.20037200  1
  C  91  1  0.19587300  0.24006300  0.95726200  1
  C  92  1  0.18355800  0.25366700  0.96446600  1
  C  93  1  0.15987800  0.25226200  0.97370600  1
  C  94  1  0.14905900  0.23681400  0.97684600  1
  C  95  1  0.16155400  0.22290100  0.97045200  1
  C  96  1  0.18397000  0.22469400  0.96004200  1
  C  99  1  0.21872500  0.24198300  0.94676100  1
  C  100  1  0.21953900  0.25387300  0.93440700  1
  C  101  1  0.24179500  0.25496400  0.92375800  1
  C  102  1  0.26214300  0.24302000  0.92433300  1
  C  103  1  0.26133700  0.23082400  0.93620900  1
  C  104  1  0.24045300  0.23097900  0.94770700  1
  C  113  1  0.27704900  0.21720200  0.93432300  1
  C  114  1  0.15010700  0.20780200  0.97286500  1
  C  115  1  0.14484700  0.26571500  0.97744600  1
  C  116  1  0.24237400  0.26648900  0.91171600  1
  C  121  1  0.88477800  0.90168400  0.29584900  1
  C  122  1  0.89705300  0.90890200  0.30945700  1
  C  123  1  0.92072200  0.91815500  0.30806800  1
  C  124  1  0.93159600  0.92126800  0.29262800  1
  C  125  1  0.91917600  0.91483400  0.27870900  1
  C  126  1  0.89675100  0.90442700  0.28049300  1
  C  129  1  0.86190900  0.89119700  0.29775300  1
  C  130  1  0.86103800  0.87884800  0.30964700  1
  C  131  1  0.83878900  0.86818600  0.31070400  1
  C  132  1  0.81850000  0.86875700  0.29872000  1
  C  133  1  0.81936700  0.88062700  0.28652600  1
  C  134  1  0.84023100  0.89213800  0.28671200  1
  C  143  1  0.80365900  0.87880600  0.27289500  1
  C  144  1  0.93067600  0.91720800  0.26361900  1
  C  145  1  0.93566500  0.92195600  0.32153600  1
  C  146  1  0.83816500  0.85615500  0.32225400  1
  C  151  1  0.88480600  0.09905200  0.81615900  1
  C  152  1  0.89700100  0.09181500  0.80253400  1
  C  153  1  0.92069000  0.08257700  0.80389300  1
  C  154  1  0.93165600  0.07947800  0.81931200  1
  C  155  1  0.91930200  0.08592800  0.83324400  1
  C  156  1  0.89686000  0.09632600  0.83149700  1
  C  159  1  0.86192500  0.10953700  0.81428700  1
  C  160  1  0.86099200  0.12186700  0.80237600  1
  C  161  1  0.83873400  0.13252500  0.80133900  1
  C  162  1  0.81850400  0.13196800  0.81336100  1
  C  163  1  0.81942600  0.12011200  0.82556700  1
  C  164  1  0.84031100  0.10861500  0.82537300  1
  C  173  1  0.80384400  0.12198900  0.83924500  1
  C  174  1  0.93087600  0.08356400  0.84831700  1
  C  175  1  0.93556800  0.07877500  0.79039800  1
  C  176  1  0.83807300  0.14455700  0.78979100  1
  C  181  1  0.88502700  0.24042000  0.15477700  1
  C  182  1  0.89703700  0.25407500  0.14748700  1
  C  183  1  0.92064600  0.25278600  0.13816500  1
  C  184  1  0.93168000  0.23739300  0.13501800  1
  C  185  1  0.91949300  0.22342500  0.14150500  1
  C  186  1  0.89715000  0.22511400  0.15199100  1
  C  189  1  0.86225700  0.24224400  0.16535700  1
  C  190  1  0.86137600  0.25418200  0.17766500  1
  C  191  1  0.83918500  0.25521800  0.18837200  1
  C  192  1  0.81896100  0.24319400  0.18788100  1
  C  193  1  0.81985200  0.23095600  0.17605900  1
  C  194  1  0.84068500  0.23111900  0.16453000  1
  C  203  1  0.80427000  0.21730300  0.17800900  1
  C  204  1  0.93116500  0.20838300  0.13910600  1
  C  205  1  0.93533100  0.26634900  0.13428500  1
  C  206  1  0.83856700  0.26680100  0.20036500  1
  C  211  1  0.88478000  0.76086200  0.95726700  1
  C  212  1  0.89709500  0.74725900  0.96447100  1
  C  213  1  0.92077700  0.74866400  0.97371000  1
  C  214  1  0.93159800  0.76411200  0.97684800  1
  C  215  1  0.91910100  0.77802500  0.97045300  1
  C  216  1  0.89668300  0.77623200  0.96004600  1
  C  219  1  0.86192700  0.75894300  0.94676700  1
  C  220  1  0.86111000  0.74705200  0.93441300  1
  C  221  1  0.83885500  0.74596000  0.92376500  1
  C  222  1  0.81850600  0.75790500  0.92434100  1
  C  223  1  0.81931300  0.77010000  0.93621600  1
  C  224  1  0.84019900  0.76994600  0.94771500  1
  C  233  1  0.80359800  0.78372100  0.93433200  1
  C  234  1  0.93055000  0.79312400  0.97286500  1
  C  235  1  0.93580700  0.73521100  0.97745000  1
  C  236  1  0.83827400  0.73443600  0.91172200  1
  C  241  1  0.87358100  0.90831900  0.80444100  1
  C  242  1  0.88503100  0.91066000  0.78893900  1
  C  243  1  0.90138300  0.92398600  0.78517200  1
  C  244  1  0.90366400  0.93669000  0.79638100  1
  C  245  1  0.89116200  0.93551600  0.81168200  1
  C  246  1  0.87814200  0.92087100  0.81592100  1
  C  249  1  0.85769700  0.89398000  0.80789100  1
  C  250  1  0.86213200  0.87882000  0.80011800  1
  C  251  1  0.84408700  0.86574700  0.80215300  1
  C  252  1  0.82408800  0.86661800  0.81423000  1
  C  253  1  0.82048600  0.88097900  0.82303200  1
  C  254  1  0.83598100  0.89461500  0.81904400  1
  C  263  1  0.80459800  0.88072800  0.83666400  1
  C  264  1  0.88939800  0.94885800  0.82183400  1
  C  265  1  0.91906300  0.92336300  0.77233900  1
  C  266  1  0.84473800  0.85251200  0.79200300  1
  C  271  1  0.87358500  0.09246800  0.30757600  1
  C  272  1  0.88497100  0.09015700  0.32310000  1
  C  273  1  0.90133100  0.07684400  0.32689800  1
  C  274  1  0.90365600  0.06411400  0.31572300  1
  C  275  1  0.89120200  0.06526400  0.30040500  1
  C  276  1  0.87820300  0.07990400  0.29612000  1
  C  279  1  0.85770500  0.10679500  0.30408400  1
  C  280  1  0.86214800  0.12197600  0.31181000  1
  C  281  1  0.84409900  0.13504100  0.30974000  1
  C  282  1  0.82407600  0.13412800  0.29768000  1
  C  283  1  0.82048000  0.11974400  0.28891000  1
  C  284  1  0.83599300  0.10612300  0.29293200  1
  C  293  1  0.80449700  0.11992200  0.27531400  1
  C  294  1  0.88946400  0.05190900  0.29027000  1
  C  295  1  0.91885200  0.07746700  0.33980700  1
  C  296  1  0.84472600  0.14829000  0.31986900  1
  C  301  1  0.87395900  0.25228300  0.96386200  1
  C  302  1  0.88513200  0.26784600  0.96627100  1
  C  303  1  0.90152000  0.27163100  0.97958100  1
  C  304  1  0.90398600  0.26038600  0.99224100  1
  C  305  1  0.89166900  0.24503300  0.99102400  1
  C  306  1  0.87870200  0.24077900  0.97636500  1
  C  309  1  0.85815600  0.24880600  0.94949900  1
  C  310  1  0.86256700  0.25664200  0.93437100  1
  C  311  1  0.84459900  0.25456900  0.92126400  1
  C  312  1  0.82473800  0.24240900  0.92207300  1
  C  313  1  0.82118500  0.23354800  0.93640200  1
  C  314  1  0.83659200  0.23754600  0.95007100  1
  C  323  1  0.80549700  0.21985500  0.93605400  1
  C  324  1  0.89001700  0.23483000  0.00433300  1
  C  325  1  0.91881600  0.28467100  0.97899900  1
  C  326  1  0.84520900  0.26474600  0.90805000  1
  C  331  1  0.87388400  0.74900300  0.14816400  1
  C  332  1  0.88536700  0.73350900  0.14582900  1
  C  333  1  0.90172300  0.72974900  0.13250200  1
  C  334  1  0.90397000  0.74095200  0.11979000  1
  C  335  1  0.89141700  0.75624000  0.12095600  1
  C  336  1  0.87841000  0.76047900  0.13560500  1
  C  339  1  0.85798300  0.75244400  0.16249700  1
  C  340  1  0.86244200  0.74469200  0.17766400  1
  C  341  1  0.84438000  0.74671300  0.19073100  1
  C  342  1  0.82431700  0.75875000  0.18983800  1
  C  343  1  0.82067900  0.76753600  0.17546600  1
  C  344  1  0.83622000  0.76356200  0.16184400  1
  C  353  1  0.80467200  0.78112200  0.17568300  1
  C  354  1  0.88959900  0.76637400  0.10760300  1
  C  355  1  0.91937500  0.71690200  0.13311100  1
  C  356  1  0.84504200  0.73656600  0.20397000  1
  C  361  1  0.20702500  0.09260700  0.80443400  1
  C  362  1  0.19557800  0.09026200  0.78893100  1
  C  363  1  0.17922800  0.07693500  0.78516600  1
  C  364  1  0.17694500  0.06423300  0.79637700  1
  C  365  1  0.18944400  0.06541100  0.81168000  1
  C  366  1  0.20246100  0.08005900  0.81591600  1
  C  369  1  0.22291200  0.10694600  0.80788200  1
  C  370  1  0.21848100  0.12210400  0.80010600  1
  C  371  1  0.23652700  0.13517800  0.80214100  1
  C  372  1  0.25652400  0.13430700  0.81421900  1
  C  373  1  0.26012400  0.11994600  0.82302300  1
  C  374  1  0.24462700  0.10631000  0.81903600  1
  C  383  1  0.27601100  0.12019700  0.83665500  1
  C  384  1  0.19120900  0.05207200  0.82183400  1
  C  385  1  0.16155600  0.07755300  0.77232900  1
  C  386  1  0.23587900  0.14841200  0.79198900  1
  C  391  1  0.20707700  0.90846500  0.30758800  1
  C  392  1  0.19568800  0.91077600  0.32311100  1
  C  393  1  0.17931700  0.92408500  0.32690700  1
  C  394  1  0.17698200  0.93681200  0.31572800  1
  C  395  1  0.18943900  0.93566300  0.30040900  1
  C  396  1  0.20244700  0.92102500  0.29613000  1
  C  399  1  0.22296800  0.89414200  0.30409800  1
  C  400  1  0.21854000  0.87896200  0.31182800  1
  C  401  1  0.23659900  0.86590100  0.30975800  1
  C  402  1  0.25661600  0.86681700  0.29769700  1
  C  403  1  0.26020000  0.88120100  0.28892400  1
  C  404  1  0.24467900  0.89481800  0.29294500  1
  C  413  1  0.27617800  0.88102600  0.27532600  1
  C  414  1  0.19116600  0.94901500  0.29027200  1
  C  415  1  0.16179500  0.92346000  0.33981400  1
  C  416  1  0.23597800  0.85265000  0.31988800  1
  C  421  1  0.20665100  0.74865500  0.96382900  1
  C  422  1  0.19549700  0.73308800  0.96624600  1
  C  423  1  0.17912800  0.72929800  0.97956300  1
  C  424  1  0.17666900  0.74054200  0.99222500  1
  C  425  1  0.18897300  0.75589900  0.99100100  1
  C  426  1  0.20192000  0.76015700  0.97633600  1
  C  429  1  0.22242700  0.75213700  0.94945800  1
  C  430  1  0.21800000  0.74429700  0.93433300  1
  C  431  1  0.23594800  0.74637100  0.92121700  1
  C  432  1  0.25580100  0.75853700  0.92201300  1
  C  433  1  0.25936400  0.76740300  0.93633700  1
  C  434  1  0.24398300  0.76340400  0.95001600  1
  C  443  1  0.27505200  0.78109700  0.93597900  1
  C  444  1  0.19063100  0.76610200  0.00431000  1
  C  445  1  0.16183700  0.71625500  0.97898600  1
  C  446  1  0.23533600  0.73618600  0.90800900  1
  C  451  1  0.20680300  0.25194000  0.14815600  1
  C  452  1  0.19532500  0.26743500  0.14581800  1
  C  453  1  0.17896500  0.27119100  0.13249200  1
  C  454  1  0.17671500  0.25998600  0.11978200  1
  C  455  1  0.18926700  0.24469700  0.12095000  1
  C  456  1  0.20228000  0.24046200  0.13559900  1
  C  459  1  0.22270900  0.24850300  0.16249000  1
  C  460  1  0.21825600  0.25626000  0.17765400  1
  C  461  1  0.23632200  0.25424200  0.19072000  1
  C  462  1  0.25637500  0.24220000  0.18983100  1
  C  463  1  0.26000500  0.23340600  0.17546400  1
  C  464  1  0.24446400  0.23737900  0.16184100  1
  C  473  1  0.27599100  0.21981300  0.17568900  1
  C  474  1  0.19108000  0.23456000  0.10760000  1
  C  475  1  0.16131400  0.28403800  0.13309900  1
  C  476  1  0.23566400  0.26439200  0.20395600  1
  C  481  1  0.69532400  0.59656400  0.79666700  1
  C  482  1  0.68280000  0.58836500  0.80965300  1
  C  483  1  0.65836800  0.57996100  0.80770500  1
  C  484  1  0.64716700  0.57833900  0.79213100  1
  C  485  1  0.65984200  0.58561900  0.77873500  1
  C  486  1  0.68271500  0.59550500  0.78126000  1
  C  489  1  0.71941400  0.60598500  0.79923200  1
  C  490  1  0.72325600  0.61600100  0.81297600  1
  C  491  1  0.74715200  0.62518200  0.81507700  1
  C  492  1  0.76620400  0.62577600  0.80235700  1
  C  493  1  0.76229000  0.61650000  0.78826900  1
  C  494  1  0.74000400  0.60601600  0.78743500  1
  C  503  1  0.77719800  0.61968000  0.77452200  1
  C  504  1  0.64855700  0.58417600  0.76347000  1
  C  505  1  0.64322700  0.57552100  0.82090500  1
  C  506  1  0.75153300  0.63323300  0.82954700  1
  C  511  1  0.69533200  0.40458800  0.31535000  1
  C  512  1  0.68283600  0.41276500  0.30234100  1
  C  513  1  0.65837800  0.42114700  0.30426200  1
  C  514  1  0.64711700  0.42277600  0.31981700  1
  C  515  1  0.65976600  0.41551200  0.33323000  1
  C  516  1  0.68268100  0.40565200  0.33074400  1
  C  519  1  0.71943800  0.39517600  0.31281900  1
  C  520  1  0.72329000  0.38511300  0.29911300  1
  C  521  1  0.74718900  0.37592500  0.29705200  1
  C  522  1  0.76624200  0.37539100  0.30977400  1
  C  523  1  0.76232400  0.38472300  0.32382600  1
  C  524  1  0.74001400  0.39519300  0.32462300  1
  C  533  1  0.77720600  0.38158900  0.33759700  1
  C  534  1  0.64842200  0.41694800  0.34847900  1
  C  535  1  0.64327900  0.42556900  0.29103700  1
  C  536  1  0.75154100  0.36779000  0.28262500  1
  C  541  1  0.69509300  0.25970400  0.65201400  1
  C  542  1  0.68281400  0.24666500  0.64376800  1
  C  543  1  0.65843000  0.24850900  0.63528900  1
  C  544  1  0.64705800  0.26403300  0.63362400  1
  C  545  1  0.65950400  0.27748400  0.64094600  1
  C  546  1  0.68233100  0.27506000  0.65089900  1
  C  549  1  0.71909400  0.25722700  0.66153400  1
  C  550  1  0.72291200  0.24351200  0.67159300  1
  C  551  1  0.74673200  0.24146800  0.68085900  1
  C  552  1  0.76575100  0.25420800  0.68145100  1
  C  553  1  0.76184900  0.26826900  0.67213200  1
  C  554  1  0.73959800  0.26907600  0.66162200  1
  C  563  1  0.77664500  0.28203200  0.67537500  1
  C  564  1  0.64801800  0.29269500  0.63949800  1
  C  565  1  0.64354400  0.23521400  0.63077000  1
  C  566  1  0.75102200  0.22705500  0.68903300  1
  C  571  1  0.69522400  0.74093900  0.46004600  1
  C  572  1  0.68263700  0.75392600  0.46820900  1
  C  573  1  0.65818500  0.75196100  0.47658800  1
  C  574  1  0.64704000  0.73637600  0.47823300  1
  C  575  1  0.65979800  0.72298100  0.47100400  1
  C  576  1  0.68268900  0.72551400  0.46113600  1
  C  579  1  0.71929500  0.74352100  0.45061500  1
  C  580  1  0.72302000  0.75721700  0.44052000  1
  C  581  1  0.74687700  0.75932300  0.43130000  1
  C  582  1  0.76601700  0.74664500  0.43077700  1
  C  583  1  0.76223100  0.73260400  0.44014600  1
  C  584  1  0.73996400  0.73177500  0.45064300  1
  C  593  1  0.77714500  0.71886300  0.43695700  1
  C  594  1  0.64854700  0.70770900  0.47245600  1
  C  595  1  0.64294300  0.76515000  0.48094900  1
  C  596  1  0.75107000  0.77373200  0.42309700  1
  C  601  1  0.38533900  0.40436900  0.79668300  1
  C  602  1  0.39785400  0.41256900  0.80967100  1
  C  603  1  0.42228800  0.42097300  0.80772700  1
  C  604  1  0.43350300  0.42259100  0.79215800  1
  C  605  1  0.42083700  0.41530800  0.77875900  1
  C  606  1  0.39796100  0.40542400  0.78127900  1
  C  609  1  0.36124800  0.39494800  0.79924300  1
  C  610  1  0.35739600  0.38493500  0.81298700  1
  C  611  1  0.33349700  0.37575300  0.81508400  1
  C  612  1  0.31445200  0.37516100  0.80236100  1
  C  613  1  0.31837400  0.38443400  0.78827200  1
  C  614  1  0.34066400  0.39491800  0.78744100  1
  C  623  1  0.30347200  0.38125500  0.77452400  1
  C  624  1  0.43213700  0.41674800  0.76349800  1
  C  625  1  0.43741700  0.42541500  0.82093200  1
  C  626  1  0.32910900  0.36770500  0.82955300  1
  C  631  1  0.38528700  0.59635700  0.31534400  1
  C  632  1  0.39778600  0.58817400  0.30234000  1
  C  633  1  0.42224500  0.57979500  0.30426400  1
  C  634  1  0.43350700  0.57817500  0.31982100  1
  C  635  1  0.42085600  0.58544500  0.33323000  1
  C  636  1  0.39794000  0.59530400  0.33073800  1
  C  639  1  0.36117500  0.60576200  0.31280800  1
  C  640  1  0.35730700  0.61581000  0.29909000  1
  C  641  1  0.33339900  0.62498600  0.29702300  1
  C  642  1  0.31434700  0.62552800  0.30974600  1
  C  643  1  0.31828200  0.61621400  0.32380800  1
  C  644  1  0.34060100  0.60575200  0.32461400  1
  C  653  1  0.30339800  0.61935900  0.33757200  1
  C  654  1  0.43218900  0.58401100  0.34848200  1
  C  655  1  0.43734700  0.57536500  0.29104400  1
  C  656  1  0.32902800  0.63310300  0.28258900  1
  C  661  1  0.38555500  0.74122500  0.65204200  1
  C  662  1  0.39783200  0.75426500  0.64379800  1
  C  663  1  0.42221100  0.75242100  0.63531300  1
  C  664  1  0.43357700  0.73689700  0.63364300  1
  C  665  1  0.42113100  0.72344400  0.64096300  1
  C  666  1  0.39831100  0.72586700  0.65092000  1
  C  669  1  0.36155700  0.74370200  0.66156800  1
  C  670  1  0.35775400  0.75741200  0.67163500  1
  C  671  1  0.33394000  0.75945400  0.68090700  1
  C  672  1  0.31491500  0.74671700  0.68149500  1
  C  673  1  0.31880500  0.73266200  0.67216800  1
  C  674  1  0.34104800  0.73185500  0.66165300  1
  C  683  1  0.30400300  0.71890000  0.67540700  1
  C  684  1  0.43261800  0.70823300  0.63951200  1
  C  685  1  0.43709700  0.76571600  0.63079600  1
  C  686  1  0.32966400  0.77386400  0.68909000  1
  C  691  1  0.38542800  0.25997200  0.46004500  1
  C  692  1  0.39801500  0.24698500  0.46820900  1
  C  693  1  0.42246900  0.24895300  0.47658800  1
  C  694  1  0.43361300  0.26453700  0.47823100  1
  C  695  1  0.42085400  0.27793200  0.47100000  1
  C  696  1  0.39796300  0.27539700  0.46113500  1
  C  699  1  0.36135600  0.25738900  0.45061500  1
  C  700  1  0.35762900  0.24369200  0.44052200  1
  C  701  1  0.33377500  0.24158600  0.43130000  1
  C  702  1  0.31463500  0.25426500  0.43077600  1
  C  703  1  0.31842200  0.26830700  0.44014400  1
  C  704  1  0.34068800  0.26913700  0.45064100  1
  C  713  1  0.30350800  0.28204800  0.43695200  1
  C  714  1  0.43210700  0.29320400  0.47245200  1
  C  715  1  0.43770900  0.23576400  0.48094900  1
  C  716  1  0.32957900  0.22717500  0.42310000  1
  C  721  1  0.37204700  0.40933400  0.30617200  1
  C  722  1  0.38306900  0.41214600  0.29062700  1
  C  723  1  0.39930600  0.42557900  0.28707300  1
  C  724  1  0.40180400  0.43798600  0.29858600  1
  C  725  1  0.38965800  0.43640000  0.31395400  1
  C  726  1  0.37679300  0.42162300  0.31792000  1
  C  729  1  0.35653500  0.39476800  0.30940700  1
  C  730  1  0.36089800  0.37989400  0.30108100  1
  C  731  1  0.34323200  0.36657200  0.30290900  1
  C  732  1  0.32404600  0.36685200  0.31549600  1
  C  733  1  0.32058700  0.38088200  0.32484400  1
  C  734  1  0.33539800  0.39482000  0.32096300  1
  C  743  1  0.30547300  0.38003600  0.33877000  1
  C  744  1  0.38810100  0.44950500  0.32442800  1
  C  745  1  0.41672600  0.42533200  0.27410500  1
  C  746  1  0.34400500  0.35365400  0.29224900  1
  C  751  1  0.37204700  0.59142800  0.80586700  1
  C  752  1  0.38300400  0.58865000  0.82143400  1
  C  753  1  0.39928200  0.57524200  0.82501400  1
  C  754  1  0.40185500  0.56281500  0.81353000  1
  C  755  1  0.38974600  0.56437000  0.79814800  1
  C  756  1  0.37687400  0.57913300  0.79413900  1
  C  759  1  0.35651300  0.60597300  0.80259200  1
  C  760  1  0.36086800  0.62087300  0.81087200  1
  C  761  1  0.34317800  0.63418000  0.80901000  1
  C  762  1  0.32396400  0.63384600  0.79643900  1
  C  763  1  0.32052600  0.61979000  0.78712500  1
  C  764  1  0.33537600  0.60587500  0.79103700  1
  C  773  1  0.30531400  0.62055400  0.77322900  1
  C  774  1  0.38824000  0.55125300  0.78768600  1
  C  775  1  0.41654300  0.57550100  0.83806400  1
  C  776  1  0.34394000  0.64712500  0.81963500  1
  C  781  1  0.37226000  0.75049800  0.46488800  1
  C  782  1  0.38300000  0.76609900  0.46776600  1
  C  783  1  0.39931000  0.76966300  0.48116800  1
  C  784  1  0.40204000  0.75810600  0.49351900  1
  C  785  1  0.39007600  0.74269100  0.49189200  1
  C  786  1  0.37722000  0.73871900  0.47711300  1
  C  789  1  0.35680700  0.74724300  0.45030800  1
  C  790  1  0.36114700  0.75562000  0.43546100  1
  C  791  1  0.34356000  0.75375300  0.42210700  1
  C  792  1  0.32449500  0.74109800  0.42233700  1
  C  793  1  0.32107700  0.73170900  0.43634100  1
  C  794  1  0.33580800  0.73559700  0.45030600  1
  C  803  1  0.30616100  0.71772800  0.43541200  1
  C  804  1  0.38867400  0.73215400  0.50495400  1
  C  805  1  0.41632800  0.78284900  0.48096100  1
  C  806  1  0.34432000  0.76441700  0.40919300  1
  C  811  1  0.37226400  0.25075400  0.64713900  1
  C  812  1  0.38334800  0.23522300  0.64434300  1
  C  813  1  0.39966200  0.23169600  0.63093800  1
  C  814  1  0.40217800  0.24321600  0.61853800  1
  C  815  1  0.38995100  0.25856400  0.62010400  1
  C  816  1  0.37702100  0.26251300  0.63486300  1
  C  819  1  0.35665800  0.25396300  0.66167200  1
  C  820  1  0.36101000  0.24566700  0.67656200  1
  C  821  1  0.34327600  0.24747200  0.68985600  1
  C  822  1  0.32399000  0.26000600  0.68952000  1
  C  823  1  0.32052000  0.26932700  0.67546900  1
  C  824  1  0.33544200  0.26546700  0.66156900  1
  C  833  1  0.30528600  0.28321300  0.67626100  1
  C  834  1  0.38838100  0.26903200  0.60699200  1
  C  835  1  0.41705400  0.21870800  0.63118500  1
  C  836  1  0.34408300  0.23684700  0.70280200  1
  C  841  1  0.70859300  0.59161800  0.30617700  1
  C  842  1  0.69756900  0.58880800  0.29063100  1
  C  843  1  0.68130100  0.57538700  0.28708300  1
  C  844  1  0.67877300  0.56298800  0.29860300  1
  C  845  1  0.69092900  0.56457000  0.31396800  1
  C  846  1  0.70382400  0.57933800  0.31792900  1
  C  849  1  0.72413100  0.60617600  0.30940600  1
  C  850  1  0.71979000  0.62105000  0.30107700  1
  C  851  1  0.73747400  0.63436500  0.30290400  1
  C  852  1  0.75666200  0.63407500  0.31549000  1
  C  853  1  0.76010300  0.62004500  0.32483900  1
  C  854  1  0.74527200  0.60611400  0.32096200  1
  C  863  1  0.77521000  0.62088500  0.33876700  1
  C  864  1  0.69247000  0.55146600  0.32444700  1
  C  865  1  0.66388100  0.57564400  0.27410700  1
  C  866  1  0.73671100  0.64728300  0.29224600  1
  C  871  1  0.70857300  0.40948600  0.80585200  1
  C  872  1  0.69760900  0.41226600  0.82141700  1
  C  873  1  0.68133300  0.42567500  0.82499500  1
  C  874  1  0.67876700  0.43810100  0.81350800  1
  C  875  1  0.69087900  0.43654400  0.79812700  1
  C  876  1  0.70375200  0.42178000  0.79412300  1
  C  879  1  0.72410200  0.39493900  0.80258300  1
  C  880  1  0.71974400  0.38004100  0.81086300  1
  C  881  1  0.73743400  0.36673300  0.80900600  1
  C  882  1  0.75665200  0.36706400  0.79643600  1
  C  883  1  0.76009500  0.38111800  0.78712100  1
  C  884  1  0.74524600  0.39503400  0.79102900  1
  C  893  1  0.77531100  0.38035200  0.77322800  1
  C  894  1  0.69239600  0.44966100  0.78766500  1
  C  895  1  0.66407200  0.42542100  0.83804500  1
  C  896  1  0.73666500  0.35379000  0.81963200  1
  C  901  1  0.70839400  0.25042100  0.46488200  1
  C  902  1  0.69765500  0.23481900  0.46776300  1
  C  903  1  0.68134100  0.23125700  0.48116200  1
  C  904  1  0.67860600  0.24281500  0.49351000  1
  C  905  1  0.69056500  0.25823200  0.49188200  1
  C  906  1  0.70342600  0.26220200  0.47710400  1
  C  909  1  0.72385300  0.25367400  0.45030400  1
  C  910  1  0.71952700  0.24529200  0.43545900  1
  C  911  1  0.73711800  0.24716000  0.42210700  1
  C  912  1  0.75617700  0.25981800  0.42233700  1
  C  913  1  0.75958200  0.26921100  0.43633800  1
  C  914  1  0.74484700  0.26532300  0.45030200  1
  C  923  1  0.77449000  0.28319600  0.43540900  1
  C  924  1  0.69196300  0.26877100  0.50494400  1
  C  925  1  0.66432600  0.21806900  0.48095700  1
  C  926  1  0.73637200  0.23649100  0.40919600  1
  C  931  1  0.70838600  0.75016900  0.64714500  1
  C  932  1  0.69729700  0.76570000  0.64435200  1
  C  933  1  0.68098300  0.76922800  0.63094500  1
  C  934  1  0.67846900  0.75770900  0.61854400  1
  C  935  1  0.69070000  0.74236200  0.62010700  1
  C  936  1  0.70363700  0.73841300  0.63486600  1
  C  939  1  0.72399200  0.74695900  0.66167700  1
  C  940  1  0.71963700  0.75525400  0.67656900  1
  C  941  1  0.73737100  0.75344600  0.68986300  1
  C  942  1  0.75666000  0.74091400  0.68952500  1
  C  943  1  0.76013300  0.73159700  0.67547300  1
  C  944  1  0.74521100  0.73545800  0.66157300  1
  C  953  1  0.77537300  0.71771400  0.67626100  1
  C  954  1  0.69227100  0.73189500  0.60699500  1
  C  955  1  0.66358900  0.78221600  0.63119400  1
  C  956  1  0.73656300  0.76407100  0.70281000  1
  C  961  1  0.17154200  0.97409600  0.28252800  1
  C  962  1  0.14619500  0.98041400  0.27838100  1
  C  964  1  0.16494900  0.00637000  0.27298500  1
  C  965  1  0.19109900  0.00080100  0.27707500  1
  C  966  1  0.19397700  0.98454500  0.28183900  1
  C  968  1  0.16089000  0.02264800  0.26876200  1
  C  969  1  0.13059000  0.04354400  0.26087300  1
  C  970  1  0.15136400  0.05505600  0.26096100  1
  C  971  1  0.17766000  0.04987900  0.26474500  1
  C  974  1  0.18287000  0.03360600  0.26870300  1
  C  975  1  0.20889500  0.02795700  0.27262700  1
  C  976  1  0.21298400  0.01168400  0.27675800  1
  C  983  1  0.17156900  0.02700500  0.82963400  1
  C  984  1  0.14620800  0.02069200  0.83375500  1
  C  986  1  0.16492900  0.99472300  0.83912900  1
  C  987  1  0.19109500  0.00029300  0.83507700  1
  C  988  1  0.19400100  0.01655600  0.83034600  1
  C  990  1  0.16084400  0.97843700  0.84331500  1
  C  991  1  0.13050000  0.95753300  0.85112000  1
  C  992  1  0.15126100  0.94601400  0.85102600  1
  C  993  1  0.17757800  0.95119400  0.84729700  1
  C  996  1  0.18281500  0.96747200  0.84337700  1
  C  997  1  0.20885700  0.97312300  0.83949600  1
  C  998  1  0.21297000  0.98940200  0.83539900  1
  C  1005  1  0.17107100  0.77385400  0.02939900  1
  C  1006  1  0.14568900  0.77787000  0.03575600  1
  C  1008  1  0.16444700  0.78330500  0.06170300  1
  C  1009  1  0.19062700  0.77933200  0.05610100  1
  C  1010  1  0.19351600  0.77461100  0.03983500  1
  C  1012  1  0.16038300  0.78748600  0.07799100  1
  C  1013  1  0.13005200  0.79522800  0.09892500  1
  C  1014  1  0.15085200  0.79520300  0.11042000  1
  C  1015  1  0.17717700  0.79153300  0.10521300  1
  C  1018  1  0.18238900  0.78761700  0.08893000  1
  C  1019  1  0.20844300  0.78380700  0.08325000  1
  C  1020  1  0.21253600  0.77971900  0.06696600  1
  C  1027  1  0.17155900  0.22675200  0.08250900  1
  C  1028  1  0.14622200  0.22259900  0.07618100  1
  C  1030  1  0.16502100  0.21722700  0.05023100  1
  C  1031  1  0.19115800  0.22132900  0.05581500  1
  C  1032  1  0.19401600  0.22606900  0.07207900  1
  C  1034  1  0.16098800  0.21301300  0.03394800  1
  C  1035  1  0.13073300  0.20509700  0.01303900  1
  C  1036  1  0.15151500  0.20521200  0.00153300  1
  C  1037  1  0.17779700  0.20901400  0.00672300  1
  C  1040  1  0.18298000  0.21297500  0.02299800  1
  C  1041  1  0.20899000  0.21691700  0.02866000  1
  C  1042  1  0.21305300  0.22104000  0.04493700  1
  C  1049  1  0.90908300  0.02682700  0.28252400  1
  C  1050  1  0.93442600  0.02051200  0.27836500  1
  C  1052  1  0.91566800  0.99455300  0.27298300  1
  C  1053  1  0.88952300  0.00012200  0.27708400  1
  C  1054  1  0.88664800  0.01637700  0.28184800  1
  C  1056  1  0.91972500  0.97827500  0.26876000  1
  C  1057  1  0.95001500  0.95737900  0.26086000  1
  C  1058  1  0.92924400  0.94586700  0.26095600  1
  C  1059  1  0.90295200  0.95104300  0.26475200  1
  C  1062  1  0.89774500  0.96731600  0.26871300  1
  C  1063  1  0.87172400  0.97296400  0.27265000  1
  C  1064  1  0.86763900  0.98923600  0.27678100  1
  C  1071  1  0.90905300  0.97391900  0.82963500  1
  C  1072  1  0.93441600  0.98022600  0.83376400  1
  C  1074  1  0.91571400  0.00620200  0.83912500  1
  C  1075  1  0.88954700  0.00064000  0.83506600  1
  C  1076  1  0.88662800  0.98437700  0.83033900  1
  C  1078  1  0.91981100  0.02248700  0.84330900  1
  C  1079  1  0.95016800  0.04338400  0.85111600  1
  C  1080  1  0.92941700  0.05491000  0.85101100  1
  C  1081  1  0.90309900  0.04973700  0.84727700  1
  C  1084  1  0.89785000  0.03345900  0.84336100  1
  C  1085  1  0.87180500  0.02781700  0.83947300  1
  C  1086  1  0.86767900  0.01153800  0.83537900  1
  C  1093  1  0.90958400  0.22707800  0.02942000  1
  C  1094  1  0.93496900  0.22306400  0.03577700  1
  C  1096  1  0.91621300  0.21762700  0.06172300  1
  C  1097  1  0.89003100  0.22159600  0.05612300  1
  C  1098  1  0.88713900  0.22631700  0.03985700  1
  C  1100  1  0.92028000  0.21344500  0.07801200  1
  C  1101  1  0.95061500  0.20570900  0.09894500  1
  C  1102  1  0.92981600  0.20573200  0.11044100  1
  C  1103  1  0.90348900  0.20939700  0.10523400  1
  C  1106  1  0.89827400  0.21331100  0.08895100  1
  C  1107  1  0.87221900  0.21711900  0.08327200  1
  C  1108  1  0.86812400  0.22120600  0.06698800  1
  C  1115  1  0.90911700  0.77418000  0.08251100  1
  C  1116  1  0.93445200  0.77833600  0.07618200  1
  C  1118  1  0.91565000  0.78370200  0.05023200  1
  C  1119  1  0.88951500  0.77959800  0.05581700  1
  C  1120  1  0.88666000  0.77485900  0.07208100  1
  C  1122  1  0.91967900  0.78791700  0.03394800  1
  C  1123  1  0.94992900  0.79583300  0.01303700  1
  C  1124  1  0.92914600  0.79571700  0.00153300  1
  C  1125  1  0.90286600  0.79191100  0.00672300  1
  C  1128  1  0.89768700  0.78795000  0.02299900  1
  C  1129  1  0.87167800  0.78400700  0.02866200  1
  C  1130  1  0.86761900  0.77988300  0.04494000  1
  C  1137  1  0.67242700  0.47461700  0.77968500  1
  C  1138  1  0.64692100  0.48085000  0.77576300  1
  C  1140  1  0.66523700  0.50692300  0.77037600  1
  C  1141  1  0.69154500  0.50143100  0.77420800  1
  C  1142  1  0.69472500  0.48515800  0.77884800  1
  C  1144  1  0.66086600  0.52323700  0.76639300  1
  C  1145  1  0.63008500  0.54414700  0.75920600  1
  C  1146  1  0.65070300  0.55575900  0.75933900  1
  C  1147  1  0.67717000  0.55062100  0.76273500  1
  C  1150  1  0.68269900  0.53430200  0.76632500  1
  C  1151  1  0.70888700  0.52872300  0.76995300  1
  C  1152  1  0.71327900  0.51241800  0.77383900  1
  C  1159  1  0.67246700  0.52652800  0.33247500  1
  C  1160  1  0.64694200  0.52030000  0.33636100  1
  C  1162  1  0.66521300  0.49421300  0.34173000  1
  C  1163  1  0.69154100  0.49970400  0.33795000  1
  C  1164  1  0.69475900  0.51598400  0.33333333  1
  C  1166  1  0.66080800  0.47789300  0.34567300  1
  C  1167  1  0.62997000  0.45697900  0.35276600  1
  C  1168  1  0.65057400  0.44535800  0.35263300  1
  C  1169  1  0.67706500  0.45049500  0.34929800  1
  C  1172  1  0.68262900  0.46682000  0.34575400  1
  C  1173  1  0.70883800  0.47239700  0.34218000  1
  C  1174  1  0.71326500  0.48870700  0.33833300  1
  C  1181  1  0.67199100  0.27676200  0.52988800  1
  C  1182  1  0.64641900  0.28047200  0.53616200  1
  C  1184  1  0.66469600  0.28597500  0.56222000  1
  C  1185  1  0.69106400  0.28234900  0.55669600  1
  C  1186  1  0.69429200  0.27775200  0.54041400  1
  C  1188  1  0.66028900  0.28990800  0.57854300  1
  C  1189  1  0.62942100  0.29685200  0.59948900  1
  C  1190  1  0.65006900  0.29684800  0.61108200  1
  C  1191  1  0.67659100  0.29365300  0.60591700  1
  C  1194  1  0.68214800  0.29012600  0.58958700  1
  C  1195  1  0.70839400  0.28669900  0.58397700  1
  C  1196  1  0.71282100  0.28286600  0.56766300  1
  C  1203  1  0.67236900  0.72385700  0.58203800  1
  C  1204  1  0.64684500  0.71999400  0.57578900  1
  C  1206  1  0.66518400  0.71458200  0.54972700  1
  C  1207  1  0.69150300  0.71835200  0.55524000  1
  C  1208  1  0.69468900  0.72296200  0.57152200  1
  C  1210  1  0.66082000  0.71062100  0.53340600  1
  C  1211  1  0.63003600  0.70349000  0.51247600  1
  C  1212  1  0.65067100  0.70360500  0.50087500  1
  C  1213  1  0.67714600  0.70694900  0.50602900  1
  C  1216  1  0.68266700  0.71051900  0.52235500  1
  C  1217  1  0.70886500  0.71409200  0.52795200  1
  C  1218  1  0.71325300  0.71795500  0.54426200  1
  C  1225  1  0.40822200  0.52630100  0.77970900  1
  C  1226  1  0.43373400  0.52007000  0.77579300  1
  C  1228  1  0.41542900  0.49399500  0.77039600  1
  C  1229  1  0.38911700  0.49948600  0.77422000  1
  C  1230  1  0.38592900  0.51575700  0.77886300  1
  C  1232  1  0.41980600  0.47768300  0.76641100  1
  C  1233  1  0.45059900  0.45677700  0.75922400  1
  C  1234  1  0.42998500  0.44516200  0.75935800  1
  C  1235  1  0.40351400  0.45029800  0.76274600  1
  C  1238  1  0.39797700  0.46661700  0.76633400  1
  C  1239  1  0.37178500  0.47219200  0.76995600  1
  C  1240  1  0.36738400  0.48849500  0.77384300  1
  C  1247  1  0.40810600  0.47443600  0.33246800  1
  C  1248  1  0.43362600  0.48065600  0.33638100  1
  C  1250  1  0.41536300  0.50675000  0.34172800  1
  C  1251  1  0.38904000  0.50126800  0.33791900  1
  C  1252  1  0.38582000  0.48498800  0.33333333  1
  C  1254  1  0.41977100  0.52306900  0.34567300  1
  C  1255  1  0.45060900  0.54397300  0.35279600  1
  C  1256  1  0.43001700  0.55560100  0.35264000  1
  C  1257  1  0.40353200  0.55047300  0.34927900  1
  C  1260  1  0.39796300  0.53414900  0.34572900  1
  C  1261  1  0.37175900  0.52858100  0.34212900  1
  C  1262  1  0.36732800  0.51227300  0.33827700  1
  C  1269  1  0.40864500  0.72416300  0.52990000  1
  C  1270  1  0.43421700  0.72045200  0.53617500  1
  C  1272  1  0.41594000  0.71495400  0.56223400  1
  C  1273  1  0.38957100  0.71858000  0.55670800  1
  C  1274  1  0.38634500  0.72317300  0.54042600  1
  C  1276  1  0.42034700  0.71102200  0.57855700  1
  C  1277  1  0.45121500  0.70407800  0.59950200  1
  C  1278  1  0.43056600  0.70408400  0.61109700  1
  C  1279  1  0.40404500  0.70727900  0.60593000  1
  C  1282  1  0.39848800  0.71080500  0.58960000  1
  C  1283  1  0.37224200  0.71423100  0.58398900  1
  C  1284  1  0.36781500  0.71806200  0.56767500  1
  C  1291  1  0.40828500  0.27707000  0.58203500  1
  C  1292  1  0.43380700  0.28092800  0.57578400  1
  C  1294  1  0.41546900  0.28634200  0.54972200  1
  C  1295  1  0.38914900  0.28257500  0.55523600  1
  C  1296  1  0.38596300  0.27796800  0.57151900  1
  C  1298  1  0.41983400  0.29030100  0.53340100  1
  C  1299  1  0.45061700  0.29742500  0.51247000  1
  C  1300  1  0.42998300  0.29731200  0.50086900  1
  C  1301  1  0.40350600  0.29397200  0.50602400  1
  C  1304  1  0.39798500  0.29040500  0.52235100  1
  C  1305  1  0.37178500  0.28683500  0.52794800  1
  C  1306  1  0.36739800  0.28297400  0.54425900  1
  C  1313  1  0.31264600  0.21465400  0.39910600  1
  C  1314  1  0.29525600  0.21824700  0.38621100  1
  C  1316  1  0.29561600  0.19096500  0.37710000  1
  C  1317  1  0.31342000  0.18651500  0.38972300  1
  C  1318  1  0.32172500  0.19859100  0.40066300  1
  C  1320  1  0.28675000  0.17936200  0.36588000  1
  C  1321  1  0.26078000  0.17306900  0.34249200  1
  C  1322  1  0.26906000  0.15681700  0.34291300  1
  C  1323  1  0.28686300  0.15208200  0.35525300  1
  C  1326  1  0.29580500  0.16317500  0.36701800  1
  C  1327  1  0.31350900  0.15879300  0.37960900  1
  C  1328  1  0.32217300  0.17035400  0.39089500  1
  C  1335  1  0.31284700  0.78637700  0.71310500  1
  C  1336  1  0.29535600  0.78281500  0.72596000  1
  C  1338  1  0.29585100  0.81008900  0.73509500  1
  C  1339  1  0.31377000  0.81450400  0.72251800  1
  C  1340  1  0.32205500  0.80241800  0.71158400  1
  C  1342  1  0.28699900  0.82170400  0.74630700  1
  C  1343  1  0.26092000  0.82804200  0.76963800  1
  C  1344  1  0.26932600  0.84427300  0.76925500  1
  C  1345  1  0.28724300  0.84897200  0.75696000  1
  C  1348  1  0.29617900  0.83786800  0.74520300  1
  C  1349  1  0.31399900  0.84221500  0.73266100  1
  C  1350  1  0.32265400  0.83064300  0.72138300  1
  C  1357  1  0.31219900  0.65712200  0.27003900  1
  C  1358  1  0.29571200  0.67039300  0.27378600  1
  C  1360  1  0.29503700  0.67913600  0.24638400  1
  C  1361  1  0.31187900  0.66610900  0.24176400  1
  C  1362  1  0.32025900  0.65517200  0.25382300  1
  C  1364  1  0.28614400  0.69037200  0.23480300  1
  C  1365  1  0.26115200  0.71418300  0.22869300  1
  C  1366  1  0.26846500  0.71337300  0.21229200  1
  C  1367  1  0.28533000  0.70063600  0.20738800  1
  C  1370  1  0.29422000  0.68883900  0.21846300  1
  C  1371  1  0.31095600  0.67584200  0.21391200  1
  C  1372  1  0.31963700  0.66454300  0.22545400  1
  C  1379  1  0.31223100  0.34371600  0.84218500  1
  C  1380  1  0.29656700  0.33012100  0.83833800  1
  C  1382  1  0.29496800  0.32171600  0.86583200  1
  C  1383  1  0.31091800  0.33509900  0.87056800  1
  C  1384  1  0.31936000  0.34602100  0.85851100  1
  C  1386  1  0.28606400  0.31047500  0.87740700  1
  C  1387  1  0.26196800  0.28630600  0.88340600  1
  C  1388  1  0.26844300  0.28745400  0.89991300  1
  C  1389  1  0.28441700  0.30055100  0.90493600  1
  C  1392  1  0.29324400  0.31236500  0.89386000  1
  C  1393  1  0.30908400  0.32571900  0.89852500  1
  C  1394  1  0.31776900  0.33702000  0.88698500  1
  C  1401  1  0.76800200  0.78625200  0.39910200  1
  C  1402  1  0.78539800  0.78266000  0.38621000  1
  C  1404  1  0.78502600  0.80994000  0.37709300  1
  C  1405  1  0.76721500  0.81438900  0.38971400  1
  C  1406  1  0.75891500  0.80231400  0.40065600  1
  C  1408  1  0.79388800  0.82154400  0.36587100  1
  C  1409  1  0.81985400  0.82783500  0.34248200  1
  C  1410  1  0.81157500  0.84408800  0.34290400  1
  C  1411  1  0.79376500  0.84882100  0.35524100  1
  C  1414  1  0.78482300  0.83772800  0.36700600  1
  C  1415  1  0.76711500  0.84210900  0.37959500  1
  C  1416  1  0.75845200  0.83054900  0.39088200  1
  C  1423  1  0.76785700  0.21453400  0.71304100  1
  C  1424  1  0.78529300  0.21810700  0.72591700  1
  C  1426  1  0.78487900  0.19082500  0.73502500  1
  C  1427  1  0.76701800  0.18639600  0.72242200  1
  C  1428  1  0.75871900  0.19848200  0.71149200  1
  C  1430  1  0.79373900  0.17921000  0.74623600  1
  C  1431  1  0.81975900  0.17288700  0.76959400  1
  C  1432  1  0.81141600  0.15664700  0.76918800  1
  C  1433  1  0.79356000  0.15193300  0.75686700  1
  C  1436  1  0.78462300  0.16303500  0.74510800  1
  C  1437  1  0.76686300  0.15867500  0.73253900  1
  C  1438  1  0.75820300  0.17024500  0.72126100  1
  C  1445  1  0.76838600  0.34377100  0.27008700  1
  C  1446  1  0.78506200  0.33057900  0.27380500  1
  C  1448  1  0.78553500  0.32176400  0.24642500  1
  C  1449  1  0.76848900  0.33470800  0.24183600  1
  C  1450  1  0.76011700  0.34564300  0.25390000  1
  C  1452  1  0.79442900  0.31053400  0.23483800  1
  C  1453  1  0.81963700  0.28681200  0.22869200  1
  C  1454  1  0.81213200  0.28754800  0.21231700  1
  C  1455  1  0.79506400  0.30020100  0.20744800  1
  C  1458  1  0.78615400  0.31198900  0.21852600  1
  C  1459  1  0.76921300  0.32490200  0.21400800  1
  C  1460  1  0.76052600  0.33619500  0.22555400  1
  C  1467  1  0.76841400  0.65721900  0.84218100  1
  C  1468  1  0.78408800  0.67081100  0.83833700  1
  C  1470  1  0.78567500  0.67921700  0.86583200  1
  C  1471  1  0.76971500  0.66583700  0.87056400  1
  C  1472  1  0.76127600  0.65491500  0.85850700  1
  C  1474  1  0.79458000  0.69045500  0.87740900  1
  C  1475  1  0.81868500  0.71462000  0.88341100  1
  C  1476  1  0.81220300  0.71347300  0.89991600  1
  C  1477  1  0.79621900  0.70037900  0.90493600  1
  C  1480  1  0.78739100  0.68856800  0.89385900  1
  C  1481  1  0.77154200  0.67521700  0.89852200  1
  C  1482  1  0.76285700  0.66391800  0.88698000  1
  C  1489  1  0.76511200  0.78082900  0.71913800  1
  C  1490  1  0.79076000  0.77973700  0.72624700  1
  C  1492  1  0.78408000  0.80416800  0.74085600  1
  C  1493  1  0.75806200  0.80607100  0.73398700  1
  C  1494  1  0.74884800  0.79418800  0.72309900  1
  C  1496  1  0.79429000  0.81578400  0.75164900  1
  C  1497  1  0.83002900  0.82479200  0.76875300  1
  C  1498  1  0.81534900  0.83860400  0.77324400  1
  C  1499  1  0.78951700  0.84076500  0.76657600  1
  C  1502  1  0.77854500  0.82947600  0.75567700  1
  C  1503  1  0.75270800  0.83136300  0.74879600  1
  C  1504  1  0.74255000  0.81975400  0.73803100  1
  C  1511  1  0.76500300  0.21981400  0.39285100  1
  C  1512  1  0.79054500  0.22101600  0.38562200  1
  C  1514  1  0.78404600  0.19649400  0.37113600  1
  C  1515  1  0.75814400  0.19447700  0.37813400  1
  C  1516  1  0.74889000  0.20635500  0.38901400  1
  C  1518  1  0.79428200  0.18489400  0.36033500  1
  C  1519  1  0.82991500  0.17602000  0.34308200  1
  C  1520  1  0.81536900  0.16212300  0.33869900  1
  C  1521  1  0.78966600  0.15984600  0.34550200  1
  C  1524  1  0.77868200  0.17110800  0.35642400  1
  C  1525  1  0.75296700  0.16910700  0.36343800  1
  C  1526  1  0.74278400  0.18069800  0.37421300  1
  C  1533  1  0.76522800  0.33743300  0.83633700  1
  C  1534  1  0.79086100  0.33030400  0.83520900  1
  C  1536  1  0.78432200  0.31578300  0.85970500  1
  C  1537  1  0.75833700  0.32268700  0.86165700  1
  C  1538  1  0.74906700  0.33354400  0.84976100  1
  C  1540  1  0.79458600  0.30501900  0.87133000  1
  C  1541  1  0.83033500  0.28789800  0.88029200  1
  C  1542  1  0.81575100  0.28347100  0.89416100  1
  C  1543  1  0.78994900  0.29016800  0.89636600  1
  C  1546  1  0.77893100  0.30105000  0.88507600  1
  C  1547  1  0.75313000  0.30796700  0.88701100  1
  C  1548  1  0.74292000  0.31870900  0.87539600  1
  C  1555  1  0.76528900  0.66364600  0.27555200  1
  C  1556  1  0.79085100  0.67085400  0.27673900  1
  C  1558  1  0.78434200  0.68533900  0.25221800  1
  C  1559  1  0.75842800  0.67835800  0.25021400  1
  C  1560  1  0.74916400  0.66748800  0.26210100  1
  C  1562  1  0.79459000  0.69612500  0.24060700  1
  C  1563  1  0.83024700  0.71334900  0.23170900  1
  C  1564  1  0.81570700  0.71772200  0.21780600  1
  C  1565  1  0.78998200  0.71094100  0.21554700  1
  C  1568  1  0.77898800  0.70003400  0.22682000  1
  C  1569  1  0.75325900  0.69303700  0.22483300  1
  C  1570  1  0.74306500  0.68227700  0.23643500  1
  C  1577  1  0.31552800  0.22008800  0.71912700  1
  C  1578  1  0.28987100  0.22117700  0.72622800  1
  C  1580  1  0.29655300  0.19675400  0.74084800  1
  C  1581  1  0.32258200  0.19485300  0.73398900  1
  C  1582  1  0.33179800  0.20673500  0.72309900  1
  C  1584  1  0.28634400  0.18513900  0.75164200  1
  C  1585  1  0.25059400  0.17612800  0.76873800  1
  C  1586  1  0.26527700  0.16232000  0.77323500  1
  C  1587  1  0.29111800  0.16016400  0.76657900  1
  C  1590  1  0.30209400  0.17145200  0.75568200  1
  C  1591  1  0.32794000  0.16957000  0.74881000  1
  C  1592  1  0.33809900  0.18117700  0.73804400  1
  C  1599  1  0.31569900  0.78110400  0.39284800  1
  C  1600  1  0.29012300  0.77993000  0.38565500  1
  C  1602  1  0.29667200  0.80442100  0.37112600  1
  C  1603  1  0.32260800  0.80640700  0.37808200  1
  C  1604  1  0.33185600  0.79453100  0.38896600  1
  C  1606  1  0.28644000  0.81602100  0.36032300  1
  C  1607  1  0.25077100  0.82492900  0.34311400  1
  C  1608  1  0.26535500  0.83879900  0.33869400  1
  C  1609  1  0.29109800  0.84104500  0.34545300  1
  C  1612  1  0.30208200  0.82977800  0.35637100  1
  C  1613  1  0.32783500  0.83174900  0.36334300  1
  C  1614  1  0.33801300  0.82015700  0.37411800  1
  C  1621  1  0.31536500  0.66348400  0.83633200  1
  C  1622  1  0.28972700  0.67060400  0.83520100  1
  C  1624  1  0.29625500  0.68513800  0.85969000  1
  C  1625  1  0.32224400  0.67824100  0.86164500  1
  C  1626  1  0.33152400  0.66738200  0.84975500  1
  C  1628  1  0.28598400  0.69590500  0.87130900  1
  C  1629  1  0.25022200  0.71302100  0.88026300  1
  C  1630  1  0.26480400  0.71745800  0.89413000  1
  C  1631  1  0.29061000  0.71076900  0.89633800  1
  C  1634  1  0.30163600  0.69988500  0.88505500  1
  C  1635  1  0.32744100  0.69297400  0.88699300  1
  C  1636  1  0.33765900  0.68223100  0.87538300  1
  C  1643  1  0.31543400  0.33728900  0.27555400  1
  C  1644  1  0.28987300  0.33007800  0.27674100  1
  C  1646  1  0.29637600  0.31560200  0.25221400  1
  C  1647  1  0.32229000  0.32258600  0.25020900  1
  C  1648  1  0.33155400  0.33345300  0.26209900  1
  C  1650  1  0.28612600  0.30482000  0.24060000  1
  C  1651  1  0.25046700  0.28759800  0.23170100  1
  C  1652  1  0.26500300  0.28323100  0.21779500  1
  C  1653  1  0.29072600  0.29001400  0.21553500  1
  C  1656  1  0.30172400  0.30091700  0.22681200  1
  C  1657  1  0.32745100  0.30791600  0.22482300  1
  C  1658  1  0.33764900  0.31867200  0.23642800  1
  C  1665  1  0.27093100  0.13394400  0.24647400  1
  C  1666  1  0.25008300  0.13552900  0.23511900  1
  C  1668  1  0.27524700  0.15471400  0.21990200  1
  C  1669  1  0.29750200  0.15321500  0.23053800  1
  C  1670  1  0.29499200  0.14262600  0.24382100  1
  C  1672  1  0.27520300  0.16665000  0.20782100  1
  C  1673  1  0.24986800  0.18165300  0.18854400  1
  C  1674  1  0.27061500  0.19306200  0.18686800  1
  C  1675  1  0.29476900  0.19050100  0.19549200  1
  C  1678  1  0.29739400  0.17731300  0.20619000  1
  C  1679  1  0.32018800  0.17514500  0.21616400  1
  C  1680  1  0.32025100  0.16319000  0.22822600  1
  C  1687  1  0.27088000  0.86729100  0.86566000  1
  C  1688  1  0.24995700  0.86568800  0.87696500  1
  C  1690  1  0.27501600  0.84646600  0.89219200  1
  C  1691  1  0.29735400  0.84800100  0.88162500  1
  C  1692  1  0.29495200  0.85863400  0.86837000  1
  C  1694  1  0.27486700  0.83447600  0.90422000  1
  C  1695  1  0.24932500  0.81935900  0.92331200  1
  C  1696  1  0.27006800  0.80794700  0.92502900  1
  C  1697  1  0.29425000  0.81052900  0.91644500  1
  C  1700  1  0.29704000  0.82380400  0.90587300  1
  C  1701  1  0.31991900  0.82601500  0.89597900  1
  C  1702  1  0.32008600  0.83801900  0.88396800  1
  C  1709  1  0.27073200  0.81022500  0.18951500  1
  C  1710  1  0.24994000  0.82162700  0.19109100  1
  C  1712  1  0.27522300  0.83685200  0.21021300  1
  C  1713  1  0.29742000  0.82617500  0.20872200  1
  C  1714  1  0.29481900  0.81286600  0.19817600  1
  C  1716  1  0.27524700  0.84895200  0.22213200  1
  C  1717  1  0.25002100  0.86827800  0.23713400  1
  C  1718  1  0.27078400  0.86994900  0.24854100  1
  C  1719  1  0.29486800  0.86125200  0.24597200  1
  C  1722  1  0.29746200  0.85056400  0.23277700  1
  C  1723  1  0.32021000  0.84055200  0.23061000  1
  C  1724  1  0.32019800  0.82846900  0.21867900  1
  C  1731  1  0.27125700  0.19068800  0.92268300  1
  C  1732  1  0.25043300  0.17931100  0.92112100  1
  C  1734  1  0.27560100  0.16412100  0.90191700  1
  C  1735  1  0.29782400  0.17478600  0.90339300  1
  C  1736  1  0.29531800  0.18805800  0.91399700  1
  C  1738  1  0.27554500  0.15206100  0.88996000  1
  C  1739  1  0.25018600  0.13278800  0.87496300  1
  C  1740  1  0.27085000  0.13117100  0.86348500  1
  C  1741  1  0.29497200  0.13984000  0.86602600  1
  C  1744  1  0.29768100  0.15047400  0.87925600  1
  C  1745  1  0.32045000  0.16047400  0.88139800  1
  C  1746  1  0.32052600  0.17252000  0.89336800  1
  C  1753  1  0.80969300  0.86697100  0.24646500  1
  C  1754  1  0.83053400  0.86539400  0.23510400  1
  C  1756  1  0.80537000  0.84621600  0.21988100  1
  C  1757  1  0.78312100  0.84770600  0.23052200  1
  C  1758  1  0.78563300  0.85828600  0.24381100  1
  C  1760  1  0.80540700  0.83429100  0.20779000  1
  C  1761  1  0.83072700  0.81932100  0.18847200  1
  C  1762  1  0.81000900  0.80788600  0.18683100  1
  C  1763  1  0.78585200  0.81043900  0.19545900  1
  C  1766  1  0.78322200  0.82362400  0.20615600  1
  C  1767  1  0.76043300  0.82578400  0.21613800  1
  C  1768  1  0.76037300  0.83772900  0.22820800  1
  C  1775  1  0.80990000  0.13371300  0.86571000  1
  C  1776  1  0.83078400  0.13530200  0.87704200  1
  C  1778  1  0.80565400  0.15448800  0.89227400  1
  C  1779  1  0.78335000  0.15296000  0.88168000  1
  C  1780  1  0.78580600  0.14235200  0.86841000  1
  C  1782  1  0.80576300  0.16646800  0.90431200  1
  C  1783  1  0.83125000  0.18158500  0.92343000  1
  C  1784  1  0.81049900  0.19299500  0.92513000  1
  C  1785  1  0.78633700  0.19040700  0.91652700  1
  C  1788  1  0.78358000  0.17713500  0.90595000  1
  C  1789  1  0.76072700  0.17492700  0.89603300  1
  C  1790  1  0.76060200  0.16293300  0.88401100  1
  C  1797  1  0.80992600  0.19072800  0.18950600  1
  C  1798  1  0.83071100  0.17932100  0.19107800  1
  C  1800  1  0.80543300  0.16409900  0.21020500  1
  C  1801  1  0.78324000  0.17478000  0.20871900  1
  C  1802  1  0.78584200  0.18808800  0.19817200  1
  C  1804  1  0.80540900  0.15199900  0.22212200  1
  C  1805  1  0.83063500  0.13266600  0.23711800  1
  C  1806  1  0.80988000  0.13099900  0.24852900  1
  C  1807  1  0.78579800  0.13970100  0.24596600  1
  C  1810  1  0.78320100  0.15039100  0.23277200  1
  C  1811  1  0.76045700  0.16040700  0.23061300  1
  C  1812  1  0.76046700  0.17249100  0.21868100  1
  C  1819  1  0.80938300  0.81023700  0.92269100  1
  C  1820  1  0.83020400  0.82161500  0.92112800  1
  C  1822  1  0.80503000  0.83680400  0.90192600  1
  C  1823  1  0.78280900  0.82613600  0.90340400  1
  C  1824  1  0.78531900  0.81286400  0.91400700  1
  C  1826  1  0.80508100  0.84886400  0.88997000  1
  C  1827  1  0.83043200  0.86813900  0.87497200  1
  C  1828  1  0.80976500  0.86975400  0.86349500  1
  C  1829  1  0.78564700  0.86108300  0.86603700  1
  C  1832  1  0.78294200  0.85044800  0.87926700  1
  C  1833  1  0.76017600  0.84044700  0.88141000  1
  C  1834  1  0.76010500  0.82840100  0.89338000  1
  C  1841  1  0.76974800  0.63275600  0.74877200  1
  C  1842  1  0.74827100  0.63478400  0.73791600  1
  C  1844  1  0.77327600  0.65371100  0.72229600  1
  C  1845  1  0.79605600  0.65185100  0.73246800  1
  C  1846  1  0.79393200  0.64117700  0.74571400  1
  C  1848  1  0.77314300  0.66554900  0.71011800  1
  C  1849  1  0.74769300  0.68061200  0.69094000  1
  C  1850  1  0.76894100  0.69157400  0.68864500  1
  C  1851  1  0.79330800  0.68878500  0.69698300  1
  C  1854  1  0.79576200  0.67577700  0.70791900  1
  C  1855  1  0.81893500  0.67332600  0.71751100  1
  C  1856  1  0.81909200  0.66145900  0.72966300  1
  C  1863  1  0.76965500  0.36851500  0.36333900  1
  C  1864  1  0.74810000  0.36644900  0.37413400  1
  C  1866  1  0.77301200  0.34748100  0.38975300  1
  C  1867  1  0.79587700  0.34939700  0.37966000  1
  C  1868  1  0.79384900  0.36012400  0.36645200  1
  C  1870  1  0.77277900  0.33557700  0.40186700  1
  C  1871  1  0.74713000  0.32036100  0.42082600  1
  C  1872  1  0.76839600  0.30941800  0.42318200  1
  C  1873  1  0.79279400  0.31224500  0.41489700  1
  C  1876  1  0.79539000  0.32534700  0.40408700  1
  C  1877  1  0.81864700  0.32785800  0.39458700  1
  C  1878  1  0.81890100  0.33978700  0.38249500  1
  C  1885  1  0.76948200  0.30789900  0.68821600  1
  C  1886  1  0.74806100  0.31880400  0.69022900  1
  C  1888  1  0.77311300  0.33437100  0.70918000  1
  C  1889  1  0.79583100  0.32414700  0.70734400  1
  C  1890  1  0.79364800  0.31090400  0.69667400  1
  C  1892  1  0.77301200  0.34654100  0.72102800  1
  C  1893  1  0.74763700  0.36575200  0.73608900  1
  C  1894  1  0.76887500  0.36802900  0.74706900  1
  C  1895  1  0.79316400  0.35960000  0.74430200  1
  C  1898  1  0.79561300  0.34868300  0.73128000  1
  C  1899  1  0.81873200  0.33904000  0.72885300  1
  C  1900  1  0.81885000  0.32689200  0.71698300  1
  C  1907  1  0.76989600  0.69305600  0.42398700  1
  C  1908  1  0.74845200  0.68217300  0.42197800  1
  C  1910  1  0.77342600  0.66666667  0.40296800  1
  C  1911  1  0.79616700  0.67684900  0.40480200  1
  C  1912  1  0.79405500  0.69005800  0.41552100  1
  C  1914  1  0.77326700  0.65450300  0.39108300  1
  C  1915  1  0.74779000  0.63535000  0.37600800  1
  C  1916  1  0.76895700  0.63312200  0.36497100  1
  C  1917  1  0.79328000  0.64152100  0.36772600  1
  C  1920  1  0.79581700  0.65238400  0.38078600  1
  C  1921  1  0.81895300  0.66201200  0.38320500  1
  C  1922  1  0.81913400  0.67412500  0.39511100  1
  C  1929  1  0.31092600  0.36817600  0.74877700  1
  C  1930  1  0.33240700  0.36614300  0.73792400  1
  C  1932  1  0.30740400  0.34721600  0.72230500  1
  C  1933  1  0.28462000  0.34908100  0.73247300  1
  C  1934  1  0.28674200  0.35975600  0.74571600  1
  C  1936  1  0.30754100  0.33537300  0.71013000  1
  C  1937  1  0.33299600  0.32029500  0.69097200  1
  C  1938  1  0.31173500  0.30934400  0.68866000  1
  C  1939  1  0.28736900  0.31213900  0.69699500  1
  C  1942  1  0.28491800  0.32514600  0.70793100  1
  C  1943  1  0.26174100  0.32760400  0.71751700  1
  C  1944  1  0.26158400  0.33947400  0.72966600  1
  C  1951  1  0.31094600  0.63242400  0.36332700  1
  C  1952  1  0.33250600  0.63448400  0.37411800  1
  C  1954  1  0.30760300  0.65344800  0.38975000  1
  C  1955  1  0.28473500  0.65153500  0.37966000  1
  C  1956  1  0.28675200  0.64081200  0.36644800  1
  C  1958  1  0.30784500  0.66534800  0.40186500  1
  C  1959  1  0.33350700  0.68056000  0.42082300  1
  C  1960  1  0.31224200  0.69150300  0.42318400  1
  C  1961  1  0.28783800  0.68867800  0.41490400  1
  C  1964  1  0.28523500  0.67557800  0.40409400  1
  C  1965  1  0.26197200  0.67307000  0.39459700  1
  C  1966  1  0.26171100  0.66114400  0.38250300  1
  C  1973  1  0.31115900  0.69302600  0.68823600  1
  C  1974  1  0.33257600  0.68212000  0.69024700  1
  C  1976  1  0.30752300  0.66654800  0.70919200  1
  C  1977  1  0.28480500  0.67677400  0.70735800  1
  C  1978  1  0.28699100  0.69002100  0.69669200  1
  C  1980  1  0.30762100  0.65437400  0.72103600  1
  C  1981  1  0.33299200  0.63515900  0.73609500  1
  C  1982  1  0.31175300  0.63288100  0.74707400  1
  C  1983  1  0.28746400  0.64131200  0.74430700  1
  C  1986  1  0.28501800  0.65223100  0.73128700  1
  C  1987  1  0.26190000  0.66187500  0.72886200  1
  C  1988  1  0.26178500  0.67402600  0.71699600  1
  C  1995  1  0.31076100  0.30785400  0.42398200  1
  C  1996  1  0.33220800  0.31873900  0.42197800  1
  C  1998  1  0.30723900  0.33427600  0.40296400  1
  C  1999  1  0.28449900  0.32406300  0.40479500  1
  C  2000  1  0.28660700  0.31085300  0.41551400  1
  C  2002  1  0.30740200  0.34640900  0.39108100  1
  C  2003  1  0.33288400  0.36556500  0.37601200  1
  C  2004  1  0.31172100  0.36779400  0.36497200  1
  C  2005  1  0.28739800  0.35939400  0.36772200  1
  C  2008  1  0.28485700  0.34852900  0.38078100  1
  C  2009  1  0.26171900  0.33890000  0.38319600  1
  C  2010  1  0.26153400  0.32678600  0.39510000  1
  C  2017  1  0.96431000  0.08726100  0.34338400  1
  C  2018  1  0.97870100  0.10145400  0.34000700  1
  C  2020  1  0.02077400  0.08836800  0.34470800  1
  C  2021  1  0.00748100  0.07382800  0.34894600  1
  C  2022  1  0.97901100  0.07354100  0.34830400  1
  C  2024  1  0.04895000  0.08861600  0.34267300  1
  C  2025  1  0.08736700  0.10257400  0.33252400  1
  C  2026  1  0.10327500  0.08857700  0.33333333  1
  C  2027  1  0.09167900  0.07454900  0.34004900  1
  C  2030  1  0.06427300  0.07431700  0.34473300  1
  C  2031  1  0.05117300  0.06015100  0.35002600  1
  C  2032  1  0.02301700  0.05991400  0.35213700  1
  C  2039  1  0.96446700  0.91359300  0.76865100  1
  C  2040  1  0.97891200  0.89940900  0.77198700  1
  C  2042  1  0.02091900  0.91255700  0.76725600  1
  C  2043  1  0.00756200  0.92708100  0.76303900  1
  C  2044  1  0.97909300  0.92733000  0.76369000  1
  C  2046  1  0.04910000  0.91235000  0.76928100  1
  C  2047  1  0.08758700  0.89845100  0.77940800  1
  C  2048  1  0.10350300  0.91244500  0.77850700  1
  C  2049  1  0.09176000  0.92647500  0.77191600  1
  C  2052  1  0.06436300  0.92667100  0.76721500  1
  C  2053  1  0.05119700  0.94082300  0.76194400  1
  C  2054  1  0.02303600  0.94101900  0.75984900  1
  C  2061  1  0.96470000  0.71307300  0.14289300  1
  C  2062  1  0.97916600  0.71647800  0.15706300  1
  C  2064  1  0.02118200  0.71167600  0.14394800  1
  C  2065  1  0.00782800  0.70740800  0.12944200  1
  C  2066  1  0.97936300  0.70808000  0.12918400  1
  C  2068  1  0.04936900  0.71366100  0.14416800  1
  C  2069  1  0.08789900  0.72373700  0.15805800  1
  C  2070  1  0.10382600  0.72277900  0.14407300  1
  C  2071  1  0.09208100  0.71612100  0.13006800  1
  C  2074  1  0.06464400  0.71150700  0.12986600  1
  C  2075  1  0.05147900  0.70619700  0.11572800  1
  C  2076  1  0.02331000  0.70414300  0.11552300  1
  C  2083  1  0.96430400  0.28818300  0.96926600  1
  C  2084  1  0.97864900  0.28476500  0.95506400  1
  C  2086  1  0.02076700  0.28923000  0.96817900  1
  C  2087  1  0.00751200  0.29348000  0.98273000  1
  C  2088  1  0.97903100  0.29300800  0.98300600  1
  C  2090  1  0.04891700  0.28707100  0.96793000  1
  C  2091  1  0.08721800  0.27683200  0.95392900  1
  C  2092  1  0.10318300  0.27758000  0.96791200  1
  C  2093  1  0.09160800  0.28421800  0.98197400  1
  C  2096  1  0.06426300  0.28902100  0.98223200  1
  C  2097  1  0.05121800  0.29429900  0.99642100  1
  C  2098  1  0.02308600  0.29652700  0.99666300  1
  C  2105  1  0.11633600  0.91366300  0.34338600  1
  C  2106  1  0.10194900  0.89947000  0.34000700  1
  C  2108  1  0.05987100  0.91255400  0.34469700  1
  C  2109  1  0.07316000  0.92709400  0.34893800  1
  C  2110  1  0.10163100  0.92738300  0.34830300  1
  C  2112  1  0.03169700  0.91230500  0.34265100  1
  C  2113  1  0.99329700  0.89835400  0.33247700  1
  C  2114  1  0.97737400  0.91234300  0.33333333  1
  C  2115  1  0.98896700  0.92637100  0.34002200  1
  C  2118  1  0.01637100  0.92660400  0.34470900  1
  C  2119  1  0.02946600  0.94077000  0.35000700  1
  C  2120  1  0.05762000  0.94100900  0.35212500  1
  C  2127  1  0.11614700  0.08731000  0.76862800  1
  C  2128  1  0.10169200  0.10149400  0.77195000  1
  C  2130  1  0.05969500  0.08833300  0.76722300  1
  C  2131  1  0.07306200  0.07380900  0.76302100  1
  C  2132  1  0.10153100  0.07356600  0.76367700  1
  C  2134  1  0.03151300  0.08853600  0.76924200  1
  C  2135  1  0.99301600  0.10243700  0.77935100  1
  C  2136  1  0.97710800  0.08843900  0.77846300  1
  C  2137  1  0.98886200  0.07440400  0.77188600  1
  C  2140  1  0.01625900  0.07421000  0.76718900  1
  C  2141  1  0.02943600  0.06005600  0.76193300  1
  C  2142  1  0.05759700  0.05986300  0.75984200  1
  C  2149  1  0.11598700  0.28786800  0.14288300  1
  C  2150  1  0.10152400  0.28446300  0.15705300  1
  C  2152  1  0.05950500  0.28926100  0.14393800  1
  C  2153  1  0.07285700  0.29352800  0.12943100  1
  C  2154  1  0.10132300  0.29285500  0.12917200  1
  C  2156  1  0.03131800  0.28727700  0.14416100  1
  C  2157  1  0.99279100  0.27720400  0.15805400  1
  C  2158  1  0.97686100  0.27815900  0.14406900  1
  C  2159  1  0.98860500  0.28481500  0.13006300  1
  C  2162  1  0.01604100  0.28942900  0.12985800  1
  C  2163  1  0.02920300  0.29473500  0.11571900  1
  C  2164  1  0.05737300  0.29678900  0.11551200  1
  C  2171  1  0.11634500  0.71273800  0.96926000  1
  C  2172  1  0.10199600  0.71615000  0.95505700  1
  C  2174  1  0.05988100  0.71169000  0.96817900  1
  C  2175  1  0.07314000  0.70744500  0.98272900  1
  C  2176  1  0.10162200  0.70791700  0.98300200  1
  C  2178  1  0.03173100  0.71385000  0.96793100  1
  C  2179  1  0.99342800  0.72408600  0.95393200  1
  C  2180  1  0.97746600  0.72334200  0.96791500  1
  C  2181  1  0.98904500  0.71670800  0.98197900  1
  C  2184  1  0.01639000  0.71190500  0.98223600  1
  C  2185  1  0.02943800  0.70663000  0.99642500  1
  C  2186  1  0.05756900  0.70440300  0.99666400  1
  C  2193  1  0.46229900  0.58461000  0.84205200  1
  C  2194  1  0.47713100  0.59876900  0.83927200  1
  C  2196  1  0.51878100  0.58511000  0.84371200  1
  C  2197  1  0.50503000  0.57055100  0.84731300  1
  C  2198  1  0.47656400  0.57057000  0.84651400  1
  C  2200  1  0.54700200  0.58516300  0.84186700  1
  C  2201  1  0.58598000  0.59913200  0.83254700  1
  C  2202  1  0.60153800  0.58497600  0.83296700  1
  C  2203  1  0.58943000  0.57080100  0.83898700  1
  C  2206  1  0.56191600  0.57064800  0.84346200  1
  C  2207  1  0.54834000  0.55641700  0.84811200  1
  C  2208  1  0.52014500  0.55637500  0.85005000  1
  C  2215  1  0.46244800  0.41625900  0.26999300  1
  C  2216  1  0.47733200  0.40211200  0.27274600  1
  C  2218  1  0.51891200  0.41582300  0.26824000  1
  C  2219  1  0.50509800  0.43036200  0.26465000  1
  C  2220  1  0.47663400  0.43030900  0.26547000  1
  C  2222  1  0.54714100  0.41581100  0.27005500  1
  C  2223  1  0.58621300  0.40189300  0.27931700  1
  C  2224  1  0.60175300  0.41605900  0.27884600  1
  C  2225  1  0.58950200  0.43022700  0.27291800  1
  C  2228  1  0.56199700  0.43034200  0.26843100  1
  C  2229  1  0.54835200  0.44455500  0.26379500  1
  C  2230  1  0.52015100  0.44455700  0.26188800  1
  C  2237  1  0.46268100  0.21446500  0.64025600  1
  C  2238  1  0.47760500  0.21727300  0.65438600  1
  C  2240  1  0.51917600  0.21268900  0.64068600  1
  C  2241  1  0.50534600  0.20906200  0.62616600  1
  C  2242  1  0.47688500  0.20991300  0.62622300  1
  C  2244  1  0.54741300  0.21445100  0.64070200  1
  C  2245  1  0.58655100  0.22363400  0.65460100  1
  C  2246  1  0.60208700  0.22311200  0.64043400  1
  C  2247  1  0.58981000  0.21713200  0.62629000  1
  C  2250  1  0.56226000  0.21274400  0.62617900  1
  C  2251  1  0.54859700  0.20808400  0.61198100  1
  C  2252  1  0.52038600  0.20622900  0.61198100  1
  C  2259  1  0.46211400  0.78679500  0.47192700  1
  C  2260  1  0.47692400  0.78398300  0.45776300  1
  C  2262  1  0.51859600  0.78823700  0.47145900  1
  C  2263  1  0.50485700  0.79184100  0.48602200  1
  C  2264  1  0.47637600  0.79118400  0.48598600  1
  C  2266  1  0.54679900  0.78630200  0.47141100  1
  C  2267  1  0.58572300  0.77695500  0.45740100  1
  C  2268  1  0.60129200  0.77727200  0.47155900  1
  C  2269  1  0.58918000  0.78323300  0.48576000  1
  C  2272  1  0.56171700  0.78780800  0.48593000  1
  C  2273  1  0.54816700  0.79243600  0.50017500  1
  C  2274  1  0.51998600  0.79445900  0.50021500  1
  C  2281  1  0.61831600  0.41631900  0.84204300  1
  C  2282  1  0.60347900  0.40215900  0.83927200  1
  C  2284  1  0.56183600  0.41582100  0.84373200  1
  C  2285  1  0.57559400  0.43038100  0.84732100  1
  C  2286  1  0.60406000  0.43036100  0.84650700  1
  C  2288  1  0.53361100  0.41576800  0.84190800  1
  C  2289  1  0.49460100  0.40178200  0.83264600  1
  C  2290  1  0.47907400  0.41595200  0.83302600  1
  C  2291  1  0.49118600  0.43012900  0.83903800  1
  C  2294  1  0.51870100  0.43028300  0.84350600  1
  C  2295  1  0.53228600  0.44451500  0.84814300  1
  C  2296  1  0.56048600  0.44455800  0.85006400  1
  C  2303  1  0.61817800  0.58471000  0.27000100  1
  C  2304  1  0.60327800  0.59885600  0.27273600  1
  C  2306  1  0.56171100  0.58512400  0.26824500  1
  C  2307  1  0.57553900  0.57058600  0.26467300  1
  C  2308  1  0.60400200  0.57065100  0.26549200  1
  C  2310  1  0.53348200  0.58512900  0.27005800  1
  C  2311  1  0.49439600  0.59904600  0.27930300  1
  C  2312  1  0.47886800  0.58487400  0.27884600  1
  C  2313  1  0.49113400  0.57070300  0.27293700  1
  C  2316  1  0.51864100  0.57059100  0.26845300  1
  C  2317  1  0.53229800  0.55637900  0.26383400  1
  C  2318  1  0.56050000  0.55638200  0.26192800  1
  C  2325  1  0.61796400  0.78645700  0.64026900  1
  C  2326  1  0.60304400  0.78364700  0.65440100  1
  C  2328  1  0.56147000  0.78823400  0.64070400  1
  C  2329  1  0.57529800  0.79186300  0.62618300  1
  C  2330  1  0.60375600  0.79101100  0.62623900  1
  C  2332  1  0.53323300  0.78647300  0.64072200  1
  C  2333  1  0.49409600  0.77729000  0.65462200  1
  C  2334  1  0.47855900  0.77781300  0.64045700  1
  C  2335  1  0.49083400  0.78379500  0.62631300  1
  C  2338  1  0.51838100  0.78818200  0.62619900  1
  C  2339  1  0.53204200  0.79284300  0.61200200  1
  C  2340  1  0.56025300  0.79469700  0.61199900  1
  C  2347  1  0.61854000  0.21412100  0.47192300  1
  C  2348  1  0.60372800  0.21693100  0.45775900  1
  C  2350  1  0.56205700  0.21267800  0.47145600  1
  C  2351  1  0.57579900  0.20907600  0.48602000  1
  C  2352  1  0.60427900  0.20973300  0.48598200  1
  C  2354  1  0.53385400  0.21461200  0.47141100  1
  C  2355  1  0.49492900  0.22395700  0.45740100  1
  C  2356  1  0.47935900  0.22364200  0.47155900  1
  C  2357  1  0.49147400  0.21768200  0.48576000  1
  C  2360  1  0.51893800  0.21310800  0.48593000  1
  C  2361  1  0.53249100  0.20848200  0.50017500  1
  C  2362  1  0.56066900  0.20645900  0.50021400  1
  N  963  1  0.14380500  0.99600800  0.27379900  1
  N  973  1  0.13590400  0.02805300  0.26486400  1
  N  981  1  0.17252900  0.95971700  0.28947400  1
  N  982  1  0.14577000  0.07008100  0.25671500  1
  N  985  1  0.14379500  0.00508900  0.83830800  1
  N  995  1  0.13584100  0.97303200  0.84717200  1
  N  1003  1  0.17256300  0.04138100  0.82267900  1
  N  1004  1  0.14564600  0.93099000  0.85526000  1
  N  1007  1  0.14328500  0.78241000  0.05136300  1
  N  1017  1  0.13537000  0.79128100  0.08342300  1
  N  1025  1  0.17204500  0.76685300  0.01504600  1
  N  1026  1  0.14525100  0.79943500  0.12544600  1
  N  1029  1  0.14386200  0.21802400  0.06058100  1
  N  1039  1  0.13601900  0.20909200  0.02853300  1
  N  1047  1  0.17246800  0.23370800  0.09688800  1
  N  1048  1  0.14596100  0.20092000  0.98651500  1
  N  1051  1  0.93681100  0.00491500  0.27378600  1
  N  1061  1  0.94470600  0.97287100  0.26485000  1
  N  1069  1  0.90810300  0.04120800  0.28947000  1
  N  1070  1  0.93483400  0.93084300  0.25670700  1
  N  1073  1  0.93683900  0.99582900  0.83831400  1
  N  1083  1  0.94481400  0.02788500  0.84717200  1
  N  1091  1  0.90805100  0.95954400  0.82268200  1
  N  1092  1  0.93504900  0.06993600  0.85523700  1
  N  1095  1  0.93737400  0.21852500  0.05138400  1
  N  1105  1  0.94529500  0.20965500  0.08344300  1
  N  1113  1  0.90860600  0.23407900  0.01506800  1
  N  1114  1  0.93541900  0.20150100  0.12546800  1
  N  1117  1  0.93680900  0.78290900  0.06058200  1
  N  1127  1  0.94464700  0.79184000  0.02853200  1
  N  1135  1  0.90821200  0.76722500  0.09689100  1
  N  1136  1  0.93469900  0.80000700  0.98651400  1
  N  1139  1  0.64424000  0.49646500  0.77130000  1
  N  1149  1  0.63571000  0.52860300  0.76283900  1
  N  1157  1  0.67369000  0.46031400  0.78677700  1
  N  1158  1  0.64479400  0.57092900  0.75575200  1
  N  1161  1  0.64423000  0.50467900  0.34079200  1
  N  1171  1  0.63563000  0.47252900  0.34917400  1
  N  1179  1  0.67375100  0.54082700  0.32537700  1
  N  1180  1  0.64463700  0.43019000  0.35620100  1
  N  1183  1  0.64368900  0.28489200  0.55178700  1
  N  1193  1  0.63507700  0.29327100  0.58393600  1
  N  1201  1  0.67329000  0.26960600  0.51562200  1
  N  1202  1  0.64413600  0.30039700  0.62625500  1
  N  1205  1  0.64417200  0.71554500  0.56017000  1
  N  1215  1  0.63565400  0.70711300  0.52802400  1
  N  1223  1  0.67358200  0.73096000  0.59633700  1
  N  1224  1  0.64478300  0.70000000  0.48570800  1
  N  1227  1  0.43642100  0.50445500  0.77132900  1
  N  1237  1  0.44496700  0.47231900  0.76286500  1
  N  1245  1  0.40694900  0.54060200  0.78680000  1
  N  1246  1  0.43590200  0.42999200  0.75577900  1
  N  1249  1  0.43633900  0.49627700  0.34081200  1
  N  1259  1  0.44494500  0.52842500  0.34919900  1
  N  1267  1  0.40682900  0.46013700  0.32537000  1
  N  1268  1  0.43596100  0.57077000  0.35620600  1
  N  1271  1  0.43694600  0.71603400  0.55180000  1
  N  1281  1  0.44555900  0.70765700  0.58395100  1
  N  1289  1  0.40734700  0.73131800  0.51563300  1
  N  1290  1  0.43650000  0.70053200  0.62626800  1
  N  1293  1  0.43648200  0.28537700  0.56016500  1
  N  1303  1  0.44500000  0.29380300  0.52801800  1
  N  1311  1  0.40707000  0.26996600  0.59633300  1
  N  1312  1  0.43587000  0.30091500  0.48570200  1
  N  1315  1  0.28741000  0.20652600  0.37588800  1
  N  1325  1  0.26980200  0.18357300  0.35374200  1
  N  1333  1  0.31911600  0.22665900  0.40895800  1
  N  1334  1  0.26297200  0.14614800  0.33158000  1
  N  1337  1  0.28752800  0.79454800  0.73627500  1
  N  1347  1  0.26994100  0.81752500  0.75839900  1
  N  1355  1  0.31932700  0.77436400  0.70326600  1
  N  1356  1  0.26320100  0.85495500  0.78056900  1
  N  1359  1  0.28777600  0.68071100  0.26208000  1
  N  1369  1  0.27013000  0.70289900  0.23917600  1
  N  1377  1  0.31876000  0.64729500  0.28205100  1
  N  1378  1  0.26246100  0.72472100  0.20162600  1
  N  1381  1  0.28856800  0.31981500  0.85003900  1
  N  1391  1  0.27090500  0.29760900  0.87293000  1
  N  1399  1  0.31885700  0.35351000  0.83015600  1
  N  1400  1  0.26251900  0.27611600  0.91060400  1
  N  1403  1  0.79324000  0.79438100  0.37588500  1
  N  1413  1  0.81083900  0.81733300  0.35373600  1
  N  1421  1  0.76153300  0.77424700  0.40895500  1
  N  1422  1  0.81766600  0.85475600  0.33157200  1
  N  1425  1  0.79313700  0.20637500  0.73623000  1
  N  1435  1  0.81073900  0.18340300  0.75835300  1
  N  1443  1  0.76136000  0.22654800  0.70320700  1
  N  1444  1  0.81753100  0.14597200  0.78050900  1
  N  1447  1  0.79298900  0.32026200  0.26209600  1
  N  1457  1  0.81064000  0.29808700  0.23917900  1
  N  1465  1  0.76183700  0.35360400  0.28209800  1
  N  1466  1  0.81815400  0.27620200  0.20165300  1
  N  1469  1  0.79208600  0.68111600  0.85003900  1
  N  1479  1  0.80974900  0.70331900  0.87293300  1
  N  1487  1  0.76179300  0.64742400  0.83015100  1
  N  1488  1  0.81812800  0.72481000  0.91060700  1
  N  1491  1  0.79918600  0.79117700  0.73671500  1
  N  1501  1  0.81915200  0.81405900  0.75830400  1
  N  1509  1  0.75875400  0.77001400  0.70807800  1
  N  1510  1  0.82342600  0.84948000  0.78381800  1
  N  1513  1  0.79900900  0.20958000  0.37516000  1
  N  1523  1  0.81902700  0.18672600  0.35355500  1
  N  1531  1  0.75860900  0.23064000  0.40389300  1
  N  1532  1  0.82345400  0.15126300  0.32811000  1
  N  1535  1  0.79934400  0.31986900  0.84666200  1
  N  1545  1  0.81941100  0.29833000  0.86955800  1
  N  1553  1  0.75887400  0.34851700  0.82554800  1
  N  1554  1  0.82384400  0.27288100  0.90501800  1
  N  1557  1  0.79931600  0.68131000  0.26529900  1
  N  1567  1  0.81934700  0.70289300  0.24242700  1
  N  1575  1  0.75892900  0.65257400  0.28635600  1
  N  1576  1  0.82376600  0.72833300  0.20696200  1
  N  1579  1  0.28144200  0.20973800  0.73669600  1
  N  1589  1  0.26147100  0.18685800  0.75828500  1
  N  1597  1  0.32189200  0.23090300  0.70806800  1
  N  1598  1  0.25719500  0.15144400  0.78380900  1
  N  1601  1  0.28166700  0.79136400  0.37518900  1
  N  1611  1  0.26165800  0.81421900  0.35358300  1
  N  1619  1  0.32208900  0.77027800  0.40389200  1
  N  1620  1  0.25726200  0.84966600  0.32811300  1
  N  1623  1  0.28123700  0.68104300  0.84665000  1
  N  1633  1  0.26115200  0.70258800  0.86953400  1
  N  1641  1  0.32172700  0.65239700  0.82554500  1
  N  1642  1  0.25670500  0.72805400  0.90498000  1
  N  1645  1  0.28140600  0.31962600  0.26529700  1
  N  1655  1  0.26137100  0.29805100  0.24242300  1
  N  1663  1  0.32179100  0.34835800  0.28636000  1
  N  1664  1  0.25694200  0.27262100  0.20695000  1
  N  1667  1  0.25276000  0.14581000  0.22258500  1
  N  1677  1  0.25266800  0.16921200  0.19892600  1
  N  1685  1  0.26443200  0.12734800  0.26044900  1
  N  1686  1  0.26372200  0.20717000  0.18068400  1
  N  1689  1  0.25254300  0.85536800  0.88947100  1
  N  1699  1  0.25223100  0.83185300  0.91300300  1
  N  1707  1  0.26444600  0.87387400  0.85166800  1
  N  1708  1  0.26294000  0.79373900  0.93085500  1
  N  1711  1  0.25269400  0.83417200  0.20135000  1
  N  1721  1  0.25275200  0.85787600  0.22470500  1
  N  1729  1  0.26397800  0.79617400  0.18318200  1
  N  1730  1  0.26389500  0.87608000  0.26266800  1
  N  1733  1  0.25312800  0.16677900  0.91084100  1
  N  1743  1  0.25301600  0.14315800  0.88741200  1
  N  1751  1  0.26459900  0.20468700  0.92916900  1
  N  1752  1  0.26382500  0.12517100  0.84933000  1
  N  1755  1  0.82785500  0.85512100  0.22256600  1
  N  1765  1  0.82793600  0.83173800  0.19888600  1
  N  1773  1  0.81619500  0.87356400  0.26044000  1
  N  1774  1  0.81692500  0.79377700  0.18066400  1
  N  1777  1  0.82814700  0.14560000  0.88956300  1
  N  1787  1  0.82837600  0.16909200  0.91311600  1
  N  1795  1  0.81640300  0.12719600  0.85170000  1
  N  1796  1  0.81761700  0.20720700  0.93095000  1
  N  1799  1  0.82795800  0.16677600  0.20133600  1
  N  1809  1  0.82790300  0.14307000  0.22469000  1
  N  1817  1  0.81668200  0.20477700  0.18317400  1
  N  1818  1  0.81677500  0.12486600  0.26265500  1
  N  1821  1  0.82750500  0.83414700  0.91084900  1
  N  1831  1  0.82760800  0.85776900  0.88742200  1
  N  1839  1  0.81604700  0.79623800  0.92917600  1
  N  1840  1  0.81678700  0.87575500  0.84934000  1
  N  1843  1  0.75061200  0.64511100  0.72539900  1
  N  1853  1  0.75034000  0.66834500  0.70154200  1
  N  1861  1  0.76406800  0.62554500  0.76257000  1
  N  1862  1  0.76261300  0.70554900  0.68196100  1
  N  1865  1  0.75035600  0.35607200  0.38661600  1
  N  1875  1  0.74987800  0.33270000  0.41031900  1
  N  1883  1  0.76403700  0.37572900  0.34953500  1
  N  1884  1  0.76188300  0.29532200  0.42951700  1
  N  1887  1  0.75044700  0.33130900  0.70056900  1
  N  1897  1  0.75025200  0.35515800  0.72381400  1
  N  1905  1  0.76359700  0.29402800  0.68120600  1
  N  1906  1  0.76253500  0.37467600  0.76105700  1
  N  1909  1  0.75079700  0.66968000  0.41162100  1
  N  1919  1  0.75047700  0.64591100  0.38830800  1
  N  1927  1  0.76408400  0.70687500  0.43112000  1
  N  1928  1  0.76251700  0.62660400  0.35094200  1
  N  1931  1  0.33007000  0.35581400  0.72540800  1
  N  1941  1  0.33034600  0.33257300  0.70156000  1
  N  1949  1  0.31660600  0.37538800  0.76257500  1
  N  1950  1  0.31805400  0.29537200  0.68196700  1
  N  1953  1  0.33025900  0.64485700  0.38660400  1
  N  1963  1  0.33075200  0.66822200  0.41031300  1
  N  1971  1  0.31655600  0.62521900  0.34951400  1
  N  1972  1  0.31876200  0.70559900  0.42951900  1
  N  1975  1  0.33018900  0.66961100  0.70058400  1
  N  1985  1  0.33038000  0.64575700  0.72382100  1
  N  1993  1  0.31704900  0.70689900  0.68123300  1
  N  1994  1  0.31809000  0.62623300  0.76106200  1
  N  1997  1  0.32986500  0.33123100  0.41162100  1
  N  2007  1  0.33019300  0.35500200  0.38830900  1
  N  2015  1  0.31657200  0.29403600  0.43111600  1
  N  2016  1  0.31816500  0.37431500  0.35094500  1
  N  2019  1  0.00591400  0.10146000  0.34056200  1
  N  2029  1  0.06112300  0.10202900  0.33680800  1
  N  2037  1  0.93981600  0.08612000  0.33724700  1
  N  2038  1  0.12557500  0.08868900  0.32462600  1
  N  2041  1  0.00612500  0.89944300  0.77141200  1
  N  2051  1  0.06133400  0.89895400  0.77513800  1
  N  2059  1  0.94003900  0.91472800  0.77487800  1
  N  2060  1  0.12573700  0.91234300  0.78729300  1
  N  2063  1  0.00637900  0.71590600  0.15703300  1
  N  2073  1  0.06162000  0.71952600  0.15755600  1
  N  2081  1  0.94033700  0.71938600  0.14177500  1
  N  2082  1  0.12627800  0.73137000  0.14419100  1
  N  2085  1  0.00586800  0.28519600  0.95506900  1
  N  2095  1  0.06101700  0.28120800  0.95449300  1
  N  2103  1  0.93973400  0.28213100  0.97030400  1
  N  2104  1  0.12535300  0.26874500  0.96778200  1
  N  2107  1  0.07473500  0.89946300  0.34055400  1
  N  2117  1  0.01953200  0.89889200  0.33678100  1
  N  2125  1  0.14083200  0.91480600  0.33725200  1
  N  2126  1  0.95506600  0.91222700  0.32460500  1
  N  2129  1  0.07448000  0.10145400  0.77136900  1
  N  2139  1  0.01926900  0.10193500  0.77508500  1
  N  2147  1  0.14057200  0.08618400  0.77486200  1
  N  2148  1  0.95487700  0.08854300  0.78725100  1
  N  2151  1  0.07431000  0.28503500  0.15702400  1
  N  2161  1  0.01906900  0.28141500  0.15755000  1
  N  2169  1  0.14035100  0.28155500  0.14176300  1
  N  2170  1  0.95440800  0.26957000  0.14419200  1
  N  2173  1  0.07477700  0.71572000  0.95506500  1
  N  2183  1  0.01962700  0.71970900  0.95449400  1
  N  2191  1  0.14091500  0.71879200  0.97029300  1
  N  2192  1  0.95529700  0.73217800  0.96778500  1
  N  2195  1  0.50433400  0.59849000  0.83998100  1
  N  2205  1  0.55964600  0.59868100  0.83663500  1
  N  2213  1  0.43786900  0.58390600  0.83574600  1
  N  2214  1  0.62403000  0.58524700  0.82442400  1
  N  2217  1  0.50453300  0.40242900  0.27200500  1
  N  2227  1  0.55985100  0.40231400  0.27528400  1
  N  2235  1  0.43809500  0.41696700  0.27640200  1
  N  2236  1  0.62416900  0.41580500  0.28745900  1
  N  2239  1  0.50480700  0.21652500  0.65406500  1
  N  2249  1  0.56016100  0.21967200  0.65418900  1
  N  2257  1  0.43839000  0.22095300  0.63958700  1
  N  2258  1  0.62472800  0.23152000  0.64069300  1
  N  2261  1  0.50413300  0.78459500  0.45806000  1
  N  2271  1  0.55940200  0.78108200  0.45787600  1
  N  2279  1  0.43761600  0.78056300  0.47251700  1
  N  2280  1  0.62364600  0.76861100  0.47128400  1
  N  2283  1  0.57627500  0.40243900  0.83999600  1
  N  2293  1  0.52095600  0.40224800  0.83669100  1
  N  2301  1  0.64274200  0.41701700  0.83573000  1
  N  2302  1  0.45659500  0.41568500  0.82446900  1
  N  2305  1  0.57607800  0.59852900  0.27199400  1
  N  2315  1  0.52075900  0.59862700  0.27527200  1
  N  2323  1  0.64253500  0.58402200  0.27640400  1
  N  2324  1  0.45645000  0.58513000  0.28745900  1
  N  2327  1  0.57584300  0.78439800  0.65408100  1
  N  2337  1  0.52048900  0.78125200  0.65420800  1
  N  2345  1  0.64225500  0.77996900  0.63959800  1
  N  2346  1  0.45591700  0.76940700  0.64071700  1
  N  2349  1  0.57651900  0.21631900  0.45805800  1
  N  2359  1  0.52124900  0.21983100  0.45787500  1
  N  2367  1  0.64303800  0.22035300  0.47251200  1
  N  2368  1  0.45700500  0.23230200  0.47128400  1
  O  8  1  0.12585500  0.07085100  0.29133300  1
  O  15  1  0.28209600  0.14348700  0.29847300  1
  O  17  1  0.19329600  0.10417600  0.26709400  1
  O  18  1  0.19860800  0.12421200  0.32004600  1
  O  38  1  0.12581000  0.93020200  0.82061300  1
  O  45  1  0.28225500  0.85770400  0.81367200  1
  O  47  1  0.19326400  0.89694400  0.84494200  1
  O  48  1  0.19876700  0.87688900  0.79201300  1
  O  68  1  0.12586900  0.76474100  0.12615800  1
  O  75  1  0.28161900  0.75799200  0.19925200  1
  O  77  1  0.19271100  0.78927800  0.15970600  1
  O  78  1  0.19836100  0.73631800  0.17974200  1
  O  98  1  0.12589000  0.23549500  0.98564000  1
  O  105  1  0.28211800  0.24282300  0.91300200  1
  O  107  1  0.19345100  0.21128200  0.95238300  1
  O  108  1  0.19850200  0.26421900  0.93222900  1
  O  128  1  0.95476000  0.93006900  0.29132100  1
  O  135  1  0.79854000  0.85741700  0.29846600  1
  O  137  1  0.88732200  0.89673900  0.26708500  1
  O  138  1  0.88202600  0.87669600  0.32003600  1
  O  158  1  0.95483300  0.07068500  0.82058300  1
  O  165  1  0.79854600  0.14331000  0.81363900  1
  O  167  1  0.88749500  0.10402200  0.84491600  1
  O  168  1  0.88193000  0.12400700  0.79194700  1
  O  188  1  0.95481300  0.23619600  0.12617300  1
  O  195  1  0.79903900  0.24295700  0.19924500  1
  O  197  1  0.88795400  0.21167100  0.15971700  1
  O  198  1  0.88229600  0.26463600  0.17973700  1
  O  218  1  0.95476800  0.76543200  0.98564000  1
  O  225  1  0.79853000  0.75810000  0.91301100  1
  O  227  1  0.88720400  0.78964300  0.95238500  1
  O  228  1  0.88214900  0.73670600  0.93223500  1
  O  248  1  0.91761900  0.95019000  0.79200600  1
  O  255  1  0.80807800  0.85360400  0.81744800  1
  O  257  1  0.87119100  0.91903500  0.83171200  1
  O  258  1  0.88407000  0.87607300  0.79063400  1
  O  278  1  0.91759700  0.05062300  0.32013700  1
  O  285  1  0.80803900  0.14712600  0.29444600  1
  O  287  1  0.87127000  0.08171000  0.28032300  1
  O  288  1  0.88407400  0.12473900  0.32130100  1
  O  308  1  0.91793300  0.26477400  0.00573800  1
  O  315  1  0.80879800  0.23917300  0.90903100  1
  O  317  1  0.87194000  0.22496500  0.97447400  1
  O  318  1  0.88440200  0.26623000  0.93169100  1
  O  338  1  0.91792300  0.73657900  0.10628900  1
  O  345  1  0.80827500  0.76194600  0.20284300  1
  O  347  1  0.87140400  0.77626300  0.13742800  1
  O  348  1  0.88441400  0.73523900  0.18042100  1
  O  368  1  0.16299200  0.05073200  0.79200500  1
  O  375  1  0.27253400  0.14732000  0.81743700  1
  O  377  1  0.20940600  0.08189800  0.83170700  1
  O  378  1  0.19654400  0.12485100  0.79062000  1
  O  398  1  0.16303000  0.95030100  0.32014000  1
  O  405  1  0.27266000  0.85382100  0.29446100  1
  O  407  1  0.20938000  0.91921700  0.28033200  1
  O  408  1  0.19661800  0.87619300  0.32132000  1
  O  428  1  0.16274300  0.73615100  0.00572700  1
  O  435  1  0.27172300  0.76177200  0.90896300  1
  O  437  1  0.20866800  0.77597200  0.97444400  1
  O  438  1  0.19616900  0.73470100  0.93166600  1
  O  458  1  0.16275900  0.26435500  0.10628100  1
  O  465  1  0.27241700  0.23900500  0.20283700  1
  O  467  1  0.20927100  0.22467700  0.13742700  1
  O  468  1  0.19629000  0.26571900  0.18041000  1
  O  488  1  0.62357200  0.57007400  0.79021700  1
  O  495  1  0.78873500  0.63511800  0.80364600  1
  O  497  1  0.69190300  0.60429300  0.76849000  1
  O  498  1  0.70336000  0.61754400  0.82421100  1
  O  518  1  0.62349700  0.43102400  0.32169900  1
  O  525  1  0.78877500  0.36604400  0.30852600  1
  O  527  1  0.69187300  0.39689400  0.34353400  1
  O  528  1  0.70339600  0.38353500  0.28788000  1
  O  548  1  0.62347500  0.26583200  0.62532300  1
  O  555  1  0.78823600  0.25297800  0.69084300  1
  O  557  1  0.69132200  0.28787100  0.65970200  1
  O  558  1  0.70303600  0.23225800  0.67310200  1
  O  578  1  0.62342500  0.73444800  0.48647700  1
  O  585  1  0.78851700  0.74792100  0.42140400  1
  O  587  1  0.69196100  0.71273600  0.45239200  1
  O  588  1  0.70302800  0.76838400  0.43892800  1
  O  608  1  0.45710200  0.43085400  0.79024900  1
  O  615  1  0.29191900  0.36581800  0.80364800  1
  O  617  1  0.38878100  0.39663400  0.76850800  1
  O  618  1  0.37728600  0.38339200  0.82422600  1
  O  638  1  0.45712400  0.56992800  0.32170900  1
  O  645  1  0.29180200  0.63486200  0.30848800  1
  O  647  1  0.38874700  0.60406900  0.34352300  1
  O  648  1  0.37719400  0.61738300  0.28785300  1
  O  668  1  0.45715600  0.73509800  0.62533800  1
  O  675  1  0.29243600  0.74794600  0.69089300  1
  O  677  1  0.38932000  0.71305400  0.65972000  1
  O  678  1  0.37763800  0.76866100  0.67314400  1
  O  698  1  0.45722700  0.26646600  0.48647500  1
  O  705  1  0.29213400  0.25298900  0.42140300  1
  O  707  1  0.38869000  0.28817500  0.45238700  1
  O  708  1  0.37762200  0.23252500  0.43893100  1
  O  728  1  0.41558400  0.45162000  0.29442400  1
  O  735  1  0.30877600  0.35355000  0.31882200  1
  O  737  1  0.37025400  0.41940900  0.33372200  1
  O  738  1  0.38265200  0.37767000  0.29130600  1
  O  758  1  0.41566000  0.54920200  0.81772500  1
  O  765  1  0.30865300  0.64712700  0.79309100  1
  O  767  1  0.37034300  0.58132000  0.77833200  1
  O  768  1  0.38260400  0.62312300  0.82065300  1
  O  788  1  0.41585900  0.76227100  0.50713500  1
  O  795  1  0.30929100  0.73775700  0.40900900  1
  O  797  1  0.37085600  0.72290000  0.47483600  1
  O  798  1  0.38280100  0.76548800  0.43330300  1
  O  818  1  0.41604000  0.23907600  0.60492800  1
  O  825  1  0.30864100  0.26331300  0.70279500  1
  O  827  1  0.37039300  0.27830200  0.63707100  1
  O  828  1  0.38281100  0.23593900  0.67882500  1
  O  848  1  0.66495500  0.54936600  0.29444900  1
  O  855  1  0.77195000  0.64737100  0.31881600  1
  O  857  1  0.71036700  0.58155600  0.33372900  1
  O  858  1  0.69804000  0.62328300  0.29130300  1
  O  878  1  0.66496300  0.45171700  0.81770100  1
  O  885  1  0.77196200  0.35378200  0.79309300  1
  O  887  1  0.71028700  0.41959200  0.77831600  1
  O  888  1  0.69800300  0.37779300  0.82064200  1
  O  908  1  0.66478200  0.23865100  0.50712500  1
  O  915  1  0.77138300  0.26316000  0.40901000  1
  O  917  1  0.70978400  0.27802000  0.47482500  1
  O  918  1  0.69787700  0.23541900  0.43329900  1
  O  938  1  0.66460500  0.76185000  0.60493500  1
  O  945  1  0.77200800  0.73760600  0.70279900  1
  O  947  1  0.71026000  0.72262300  0.63707300  1
  O  948  1  0.69783400  0.76497800  0.67883200  1
  O  979  1  0.23030000  0.03805300  0.27266200  1
  O  980  1  0.23816400  0.00678100  0.28062200  1
  O  1001  1  0.23025400  0.96302100  0.83946600  1
  O  1002  1  0.23816800  0.99430700  0.83157500  1
  O  1023  1  0.22987300  0.78384400  0.09332600  1
  O  1024  1  0.23774800  0.77596700  0.06203200  1
  O  1045  1  0.23040600  0.21697100  0.01857300  1
  O  1046  1  0.23822200  0.22491200  0.04985400  1
  O  1067  1  0.85032200  0.96286700  0.27269500  1
  O  1068  1  0.84246300  0.99413900  0.28065600  1
  O  1089  1  0.85041800  0.03792600  0.83943400  1
  O  1090  1  0.84248200  0.00664100  0.83154700  1
  O  1111  1  0.85078800  0.21707900  0.09334800  1
  O  1112  1  0.84291000  0.22495400  0.06205500  1
  O  1133  1  0.85026100  0.78394900  0.01857600  1
  O  1134  1  0.84245100  0.77600900  0.04985800  1
  O  1155  1  0.73014600  0.53892700  0.76998800  1
  O  1156  1  0.73859800  0.50759700  0.77747500  1
  O  1177  1  0.73008800  0.46218500  0.34215900  1
  O  1178  1  0.73860600  0.49352700  0.33474900  1
  O  1199  1  0.72968400  0.28681400  0.59415900  1
  O  1200  1  0.73820200  0.27942900  0.56281000  1
  O  1221  1  0.73014400  0.71409200  0.51776100  1
  O  1222  1  0.73858600  0.72152900  0.54910300  1
  O  1243  1  0.35052500  0.46198600  0.76998200  1
  O  1244  1  0.34206000  0.49331400  0.77747300  1
  O  1265  1  0.35051700  0.53880200  0.34208300  1
  O  1266  1  0.34199300  0.50746100  0.33466500  1
  O  1287  1  0.35095200  0.71411800  0.59417100  1
  O  1288  1  0.34243400  0.72149900  0.56282200  1
  O  1309  1  0.35050500  0.28683900  0.51775800  1
  O  1310  1  0.34206400  0.27940400  0.54910200  1
  O  1331  1  0.32247500  0.14346300  0.38108600  1
  O  1332  1  0.33911300  0.16567300  0.40278400  1
  O  1353  1  0.32309300  0.85752200  0.73122100  1
  O  1354  1  0.33970800  0.83528900  0.70954000  1
  O  1375  1  0.31895900  0.67398100  0.19843400  1
  O  1376  1  0.33563100  0.65225900  0.22060900  1
  O  1397  1  0.31620800  0.32792700  0.91411100  1
  O  1398  1  0.33288800  0.34965200  0.89194100  1
  O  1419  1  0.75814000  0.85743800  0.38106800  1
  O  1420  1  0.74150600  0.83522900  0.40276800  1
  O  1441  1  0.75783500  0.14335700  0.73107600  1
  O  1442  1  0.74120500  0.16558700  0.70939500  1
  O  1463  1  0.76101200  0.32668700  0.19855900  1
  O  1464  1  0.74433200  0.34839900  0.22074200  1
  O  1485  1  0.76441000  0.67301100  0.91410600  1
  O  1486  1  0.74772800  0.65128900  0.89193400  1
  O  1507  1  0.73726900  0.84433100  0.75233300  1
  O  1508  1  0.71777100  0.82202400  0.73162700  1
  O  1529  1  0.73767300  0.15604800  0.36001500  1
  O  1530  1  0.71812500  0.17832100  0.38073900  1
  O  1551  1  0.73777900  0.30448800  0.90003200  1
  O  1552  1  0.71817900  0.32514600  0.87771300  1
  O  1573  1  0.73796100  0.69645800  0.21177600  1
  O  1574  1  0.71839000  0.67576500  0.23407000  1
  O  1595  1  0.34338500  0.15660900  0.75235800  1
  O  1596  1  0.36288700  0.17891200  0.73165100  1
  O  1617  1  0.34317200  0.84478000  0.35988000  1
  O  1618  1  0.36271000  0.82250400  0.38060400  1
  O  1639  1  0.34279000  0.69646300  0.90001200  1
  O  1640  1  0.36240400  0.67580000  0.87770200  1
  O  1661  1  0.34274500  0.30450000  0.21176200  1
  O  1662  1  0.36232000  0.32518700  0.23406200  1
  O  1683  1  0.34171200  0.18507700  0.21497000  1
  O  1684  1  0.34182200  0.16213100  0.23813700  1
  O  1705  1  0.34141200  0.81605800  0.89717700  1
  O  1706  1  0.34173600  0.83911200  0.87412100  1
  O  1727  1  0.34174600  0.84171700  0.24053800  1
  O  1728  1  0.34172200  0.81851800  0.21762700  1
  O  1749  1  0.34191700  0.15933600  0.87141400  1
  O  1750  1  0.34207200  0.18245400  0.89440900  1
  O  1771  1  0.73891400  0.81584700  0.21494400  1
  O  1772  1  0.73880700  0.83877900  0.23812400  1
  O  1793  1  0.73922600  0.18487900  0.89721600  1
  O  1794  1  0.73898400  0.16184500  0.87413900  1
  O  1815  1  0.73892800  0.15924500  0.24054500  1
  O  1816  1  0.73895000  0.18244500  0.21763400  1
  O  1837  1  0.73870900  0.84158300  0.87142700  1
  O  1838  1  0.73856200  0.81846500  0.89442300  1
  O  1859  1  0.84087600  0.68284300  0.71577900  1
  O  1860  1  0.84117200  0.66005900  0.73912000  1
  O  1881  1  0.84057100  0.31832700  0.39632400  1
  O  1882  1  0.84105900  0.34123900  0.37311300  1
  O  1903  1  0.84064500  0.34070700  0.73840500  1
  O  1904  1  0.84087000  0.31738200  0.71560700  1
  O  1925  1  0.84082000  0.66036900  0.37361000  1
  O  1926  1  0.84117600  0.68361800  0.39648700  1
  O  1947  1  0.23979700  0.31809000  0.71578500  1
  O  1948  1  0.23950000  0.34087900  0.73912000  1
  O  1969  1  0.24005100  0.68260100  0.39634200  1
  O  1970  1  0.23954800  0.65969400  0.37312500  1
  O  1991  1  0.23998600  0.66020700  0.73841300  1
  O  1992  1  0.23976500  0.68353800  0.71562200  1
  O  2013  1  0.23985800  0.34054400  0.37359800  1
  O  2014  1  0.23949400  0.31729200  0.39647200  1
  O  2035  1  0.06510800  0.04629900  0.35215900  1
  O  2036  1  0.01104800  0.04583200  0.35618400  1
  O  2057  1  0.06506500  0.95470200  0.75983100  1
  O  2058  1  0.01100200  0.95508700  0.75582200  1
  O  2079  1  0.06536500  0.70399200  0.10186900  1
  O  2080  1  0.01128200  0.70006500  0.10146800  1
  O  2101  1  0.06516900  0.29630900  0.01028600  1
  O  2102  1  0.01116100  0.30058600  0.01075400  1
  O  2123  1  0.01552800  0.95462100  0.35213700  1
  O  2124  1  0.06958500  0.95509000  0.35617600  1
  O  2145  1  0.01557700  0.04617200  0.75983200  1
  O  2146  1  0.06964100  0.04579400  0.75583000  1
  O  2167  1  0.01531600  0.29693600  0.10186000  1
  O  2168  1  0.06939800  0.30086400  0.10145600  1
  O  2189  1  0.01549000  0.70462600  0.01029200  1
  O  2190  1  0.06949900  0.70034800  0.01075600  1
  O  2211  1  0.56187000  0.54236100  0.84979800  1
  O  2212  1  0.50773500  0.54226800  0.85348700  1
  O  2233  1  0.56181800  0.45863200  0.26210800  1
  O  2234  1  0.50767700  0.45864600  0.25846200  1
  O  2255  1  0.56206300  0.20630900  0.59791400  1
  O  2256  1  0.50790000  0.20276500  0.59790500  1
  O  2277  1  0.56169500  0.79401700  0.51424400  1
  O  2278  1  0.50759400  0.79790100  0.51432600  1
  O  2299  1  0.51875900  0.45857300  0.84983100  1
  O  2300  1  0.57290200  0.45866600  0.85348900  1
  O  2321  1  0.51884600  0.54229400  0.26216200  1
  O  2322  1  0.57298700  0.54229300  0.25851800  1
  O  2343  1  0.51857400  0.79462000  0.59793500  1
  O  2344  1  0.57273700  0.79816200  0.59792200  1
  O  2365  1  0.51896200  0.20690100  0.51424400  1
  O  2366  1  0.57306300  0.20301900  0.51432600  1
