# generated using pymatgen
data_H17(C14N3)2
_symmetry_space_group_name_H-M   'P 1'
_cell_length_a   25.50360000
_cell_length_b   25.50360000
_cell_length_c   102.01400000
_cell_angle_alpha   90.00000000
_cell_angle_beta   90.00000000
_cell_angle_gamma   90.00000000
_symmetry_Int_Tables_number   1
_chemical_formula_structural   H17(C14N3)2
_chemical_formula_sum   'H408 C672 N144'
_cell_volume   66353.33459250
_cell_formula_units_Z   24
loop_
 _symmetry_equiv_pos_site_id
 _symmetry_equiv_pos_as_xyz
  1  'x, y, z'
loop_
 _atom_site_type_symbol
 _atom_site_label
 _atom_site_symmetry_multiplicity
 _atom_site_fract_x
 _atom_site_fract_y
 _atom_site_fract_z
 _atom_site_occupancy
  H  49  1  0.09714700  0.00056900  0.20084000  1
  H  50  1  0.09792500  0.99825200  0.17729300  1
  H  51  1  0.93172000  0.00623100  0.20043400  1
  H  52  1  0.93242600  0.00361700  0.17694200  1
  H  53  1  0.01410600  0.10532900  0.17064300  1
  H  54  1  0.01369000  0.17623600  0.15326300  1
  H  55  1  0.01677100  0.03423100  0.13476800  1
  H  56  1  0.01481000  0.97032200  0.11842300  1
  H  57  1  0.01677300  0.89423100  0.17052200  1
  H  58  1  0.01594700  0.82449600  0.15271200  1
  H  59  1  0.09468500  0.79935000  0.12333900  1
  H  60  1  0.09347700  0.70553200  0.12313700  1
  H  61  1  0.93063800  0.80138100  0.12895000  1
  H  62  1  0.92942200  0.70727300  0.12884500  1
  H  63  1  0.01056800  0.82831900  0.09994800  1
  H  64  1  0.01031200  0.89921100  0.08256200  1
  H  65  1  0.01490900  0.18006100  0.10049100  1
  H  66  1  0.01311800  0.11040100  0.08268600  1
  H  67  1  0.92793600  0.99556200  0.07682100  1
  H  68  1  0.92437200  0.99639300  0.05331600  1
  H  69  1  0.09237100  0.01391500  0.07530300  1
  H  70  1  0.08883500  0.01506500  0.05185700  1
  H  71  1  0.09689700  0.20469700  0.12954300  1
  H  72  1  0.09627000  0.29882200  0.12963100  1
  H  73  1  0.93192000  0.29751900  0.12447400  1
  H  74  1  0.93256300  0.20373100  0.12447200  1
  H  127  1  0.00233900  0.09698300  0.70086400  1
  H  128  1  0.00462600  0.09762400  0.67731700  1
  H  129  1  0.99671100  0.93155500  0.70052000  1
  H  130  1  0.99929500  0.93212000  0.67702800  1
  H  131  1  0.89758300  0.01369400  0.67067300  1
  H  132  1  0.82674200  0.01323200  0.65327500  1
  H  133  1  0.96881700  0.01636000  0.63481400  1
  H  134  1  0.03277200  0.01407200  0.61848800  1
  H  135  1  0.10868300  0.01620800  0.67060300  1
  H  136  1  0.17848600  0.01530600  0.65280900  1
  H  137  1  0.20364300  0.09434900  0.62348800  1
  H  138  1  0.29746300  0.09323200  0.62327700  1
  H  139  1  0.20177200  0.93024200  0.62899400  1
  H  140  1  0.29588100  0.92911600  0.62888000  1
  H  141  1  0.17486500  0.01105100  0.60004100  1
  H  142  1  0.10406500  0.01129300  0.58263900  1
  H  143  1  0.82311600  0.01495900  0.60050000  1
  H  144  1  0.89286300  0.01362500  0.58270800  1
  H  145  1  0.00829700  0.92983400  0.57634800  1
  H  146  1  0.00857500  0.92875600  0.55282000  1
  H  147  1  0.98916300  0.09427700  0.57585500  1
  H  148  1  0.98902900  0.09321300  0.55240500  1
  H  149  1  0.79842900  0.09652200  0.62956300  1
  H  150  1  0.70430500  0.09595500  0.62965200  1
  H  151  1  0.70550500  0.93161000  0.62447700  1
  H  152  1  0.79929100  0.93219800  0.62447200  1
  H  205  1  0.91416500  0.00012600  0.80166700  1
  H  206  1  0.91063700  0.00143900  0.82518000  1
  H  207  1  0.07954800  0.99761600  0.80316900  1
  H  208  1  0.07611200  0.99880500  0.82670800  1
  H  209  1  0.99370300  0.10589900  0.83241400  1
  H  210  1  0.99232300  0.17682600  0.84979700  1
  H  211  1  0.98705300  0.03482400  0.86826200  1
  H  212  1  0.98878600  0.97088700  0.88462400  1
  H  213  1  0.98988400  0.89483500  0.83252700  1
  H  214  1  0.98914700  0.82510000  0.85033100  1
  H  215  1  0.90865600  0.80017800  0.87950400  1
  H  216  1  0.90954300  0.70634400  0.87969000  1
  H  217  1  0.07292400  0.80166800  0.87429800  1
  H  218  1  0.07381600  0.70756300  0.87438700  1
  H  219  1  0.99187600  0.82887200  0.90310800  1
  H  220  1  0.99162900  0.89976400  0.92049400  1
  H  221  1  0.98722600  0.18060800  0.90255000  1
  H  222  1  0.98864500  0.11095700  0.92036000  1
  H  223  1  0.07422600  0.99596200  0.92636200  1
  H  224  1  0.07720600  0.99673000  0.94987300  1
  H  225  1  0.90979700  0.01464100  0.92762400  1
  H  226  1  0.91275400  0.01578100  0.95107000  1
  H  227  1  0.90653100  0.20501800  0.87333400  1
  H  228  1  0.90689600  0.29914800  0.87325000  1
  H  229  1  0.07108000  0.29829100  0.87874200  1
  H  230  1  0.07069600  0.20451100  0.87874300  1
  H  283  1  0.00007900  0.08853100  0.30163300  1
  H  284  1  0.00146700  0.09195600  0.32514500  1
  H  285  1  0.99784000  0.92313700  0.30308900  1
  H  286  1  0.99910300  0.92647000  0.32662900  1
  H  287  1  0.10606700  0.00878100  0.33237700  1
  H  288  1  0.17694900  0.01033700  0.34977100  1
  H  289  1  0.03489900  0.01573800  0.36821000  1
  H  290  1  0.97093800  0.01424900  0.38455800  1
  H  291  1  0.89499600  0.01214000  0.33245300  1
  H  292  1  0.82521300  0.01304000  0.35024600  1
  H  293  1  0.80020500  0.09441500  0.37925000  1
  H  294  1  0.70637900  0.09350000  0.37944800  1
  H  295  1  0.80175800  0.92998300  0.37438200  1
  H  296  1  0.70764900  0.92905400  0.37448400  1
  H  297  1  0.82885600  0.01278100  0.40302300  1
  H  298  1  0.89967300  0.01412400  0.42041700  1
  H  299  1  0.18060700  0.01658600  0.40252100  1
  H  300  1  0.11088700  0.01625100  0.42032300  1
  H  301  1  0.99484400  0.93244500  0.42683100  1
  H  302  1  0.99394200  0.93193900  0.45027700  1
  H  303  1  0.01461200  0.09682000  0.42706000  1
  H  304  1  0.01407300  0.09633100  0.45059100  1
  H  305  1  0.20513100  0.09639200  0.37326000  1
  H  306  1  0.29926000  0.09596400  0.37317800  1
  H  307  1  0.29829900  0.93183400  0.37876600  1
  H  308  1  0.20451100  0.93228100  0.37876800  1
  H  319  1  0.05353600  0.05936700  0.23637100  1
  H  321  1  0.93845200  0.94594900  0.24547900  1
  H  322  1  0.04025200  0.06040600  0.28050000  1
  H  324  1  0.95099900  0.97467100  0.22243100  1
  H  331  1  0.94362000  0.05353100  0.73641600  1
  H  333  1  0.05704300  0.93848400  0.74555300  1
  H  334  1  0.94245600  0.04031600  0.78054600  1
  H  336  1  0.02850700  0.95105800  0.72249900  1
  H  343  1  0.93306500  0.00829100  0.01774100  1
  H  345  1  0.09190300  0.00762600  0.00597300  1
  H  346  1  0.92958700  0.00808900  0.97355600  1
  H  348  1  0.07086700  0.00989700  0.02939800  1
  H  355  1  0.99691500  0.94216500  0.51706600  1
  H  357  1  0.00417700  0.10252100  0.50682100  1
  H  358  1  0.00033000  0.94536100  0.47288100  1
  H  360  1  0.00012200  0.07815000  0.52998900  1
  H  367  1  0.94244000  0.56463800  0.12555300  1
  H  369  1  0.10273300  0.52321700  0.12721600  1
  H  370  1  0.94522800  0.38788300  0.12632900  1
  H  372  1  0.07856600  0.61596000  0.12631000  1
  H  379  1  0.43842100  0.94221200  0.62559800  1
  H  381  1  0.47986200  0.10250600  0.62722000  1
  H  382  1  0.61516000  0.94496100  0.62636800  1
  H  384  1  0.38710600  0.07834100  0.62629400  1
  H  391  1  0.06042500  0.56520300  0.87749500  1
  H  393  1  0.90013200  0.52382000  0.87577900  1
  H  394  1  0.05765900  0.38852000  0.87672900  1
  H  396  1  0.92434400  0.61660700  0.87668100  1
  H  403  1  0.56527300  0.94244800  0.37745000  1
  H  405  1  0.52384000  0.10273400  0.37577000  1
  H  406  1  0.38856100  0.94518100  0.37669000  1
  H  408  1  0.61661500  0.07855600  0.37667000  1
  H  457  1  0.37161800  0.27504000  0.22044500  1
  H  458  1  0.37239600  0.27272300  0.19689800  1
  H  459  1  0.20619100  0.28070200  0.22003900  1
  H  460  1  0.20689700  0.27808800  0.19654700  1
  H  461  1  0.28857700  0.37980000  0.19024800  1
  H  462  1  0.28816100  0.45070700  0.17286800  1
  H  463  1  0.29124200  0.30870200  0.15437300  1
  H  464  1  0.28928100  0.24479300  0.13802800  1
  H  465  1  0.29124400  0.16870200  0.19012700  1
  H  466  1  0.29041800  0.09896710  0.17231700  1
  H  467  1  0.36915600  0.07382110  0.14294400  1
  H  468  1  0.36794800  0.98000300  0.14274200  1
  H  469  1  0.20510900  0.07585210  0.14855500  1
  H  470  1  0.20389300  0.98174400  0.14845000  1
  H  471  1  0.28503900  0.10279000  0.11955300  1
  H  472  1  0.28478300  0.17368200  0.10216700  1
  H  473  1  0.28938000  0.45453200  0.12009600  1
  H  474  1  0.28758900  0.38487200  0.10229100  1
  H  475  1  0.20240700  0.27003300  0.09642610  1
  H  476  1  0.19884300  0.27086400  0.07292110  1
  H  477  1  0.36684200  0.28838600  0.09490810  1
  H  478  1  0.36330600  0.28953600  0.07146210  1
  H  479  1  0.37136800  0.47916800  0.14914800  1
  H  480  1  0.37074100  0.57329300  0.14923600  1
  H  481  1  0.20639100  0.57199000  0.14407900  1
  H  482  1  0.20703400  0.47820200  0.14407700  1
  H  535  1  0.27681000  0.37145400  0.72046900  1
  H  536  1  0.27909700  0.37209500  0.69692200  1
  H  537  1  0.27118200  0.20602600  0.72012500  1
  H  538  1  0.27376600  0.20659100  0.69663300  1
  H  539  1  0.17205400  0.28816500  0.69027800  1
  H  540  1  0.10121300  0.28770300  0.67288000  1
  H  541  1  0.24328800  0.29083100  0.65441900  1
  H  542  1  0.30724300  0.28854300  0.63809300  1
  H  543  1  0.38315400  0.29067900  0.69020800  1
  H  544  1  0.45295700  0.28977700  0.67241400  1
  H  545  1  0.47811400  0.36882000  0.64309300  1
  H  546  1  0.57193400  0.36770300  0.64288200  1
  H  547  1  0.47624300  0.20471300  0.64859900  1
  H  548  1  0.57035200  0.20358700  0.64848500  1
  H  549  1  0.44933600  0.28552200  0.61964600  1
  H  550  1  0.37853600  0.28576400  0.60224400  1
  H  551  1  0.09758710  0.28943000  0.62010500  1
  H  552  1  0.16733400  0.28809600  0.60231300  1
  H  553  1  0.28276800  0.20430500  0.59595300  1
  H  554  1  0.28304600  0.20322700  0.57242500  1
  H  555  1  0.26363400  0.36874800  0.59546000  1
  H  556  1  0.26350000  0.36768400  0.57201000  1
  H  557  1  0.07290010  0.37099300  0.64916800  1
  H  558  1  0.97877600  0.37042600  0.64925700  1
  H  559  1  0.97997600  0.20608100  0.64408200  1
  H  560  1  0.07376210  0.20666900  0.64407700  1
  H  613  1  0.18863600  0.27459700  0.82127200  1
  H  614  1  0.18510800  0.27591000  0.84478500  1
  H  615  1  0.35401900  0.27208700  0.82277400  1
  H  616  1  0.35058300  0.27327600  0.84631300  1
  H  617  1  0.26817400  0.38037000  0.85201900  1
  H  618  1  0.26679400  0.45129700  0.86940200  1
  H  619  1  0.26152400  0.30929500  0.88786700  1
  H  620  1  0.26325700  0.24535800  0.90422900  1
  H  621  1  0.26435500  0.16930600  0.85213200  1
  H  622  1  0.26361800  0.09957110  0.86993600  1
  H  623  1  0.18312700  0.07464910  0.89910900  1
  H  624  1  0.18401400  0.98081500  0.89929500  1
  H  625  1  0.34739500  0.07613910  0.89390300  1
  H  626  1  0.34828700  0.98203400  0.89399200  1
  H  627  1  0.26634700  0.10334300  0.92271300  1
  H  628  1  0.26610000  0.17423500  0.94009900  1
  H  629  1  0.26169700  0.45507900  0.92215500  1
  H  630  1  0.26311600  0.38542800  0.93996500  1
  H  631  1  0.34869700  0.27043300  0.94596700  1
  H  632  1  0.35167700  0.27120100  0.96947800  1
  H  633  1  0.18426800  0.28911200  0.94722900  1
  H  634  1  0.18722500  0.29025200  0.97067500  1
  H  635  1  0.18100200  0.47948900  0.89293900  1
  H  636  1  0.18136700  0.57361900  0.89285500  1
  H  637  1  0.34555100  0.57276200  0.89834700  1
  H  638  1  0.34516700  0.47898200  0.89834800  1
  H  691  1  0.27455000  0.36300200  0.32123800  1
  H  692  1  0.27593800  0.36642700  0.34475000  1
  H  693  1  0.27231100  0.19760800  0.32269400  1
  H  694  1  0.27357400  0.20094100  0.34623400  1
  H  695  1  0.38053800  0.28325200  0.35198200  1
  H  696  1  0.45142000  0.28480800  0.36937600  1
  H  697  1  0.30937000  0.29020900  0.38781500  1
  H  698  1  0.24540900  0.28872000  0.40416300  1
  H  699  1  0.16946700  0.28661100  0.35205800  1
  H  700  1  0.09968410  0.28751100  0.36985100  1
  H  701  1  0.07467610  0.36888600  0.39885500  1
  H  702  1  0.98085000  0.36797100  0.39905300  1
  H  703  1  0.07622910  0.20445400  0.39398700  1
  H  704  1  0.98212000  0.20352500  0.39408900  1
  H  705  1  0.10332700  0.28725200  0.42262800  1
  H  706  1  0.17414400  0.28859500  0.44002200  1
  H  707  1  0.45507800  0.29105700  0.42212600  1
  H  708  1  0.38535800  0.29072200  0.43992800  1
  H  709  1  0.26931500  0.20691600  0.44643600  1
  H  710  1  0.26841300  0.20641000  0.46988200  1
  H  711  1  0.28908300  0.37129100  0.44666500  1
  H  712  1  0.28854400  0.37080200  0.47019600  1
  H  713  1  0.47960200  0.37086300  0.39286500  1
  H  714  1  0.57373100  0.37043500  0.39278300  1
  H  715  1  0.57277000  0.20630500  0.39837100  1
  H  716  1  0.47898200  0.20675200  0.39837300  1
  H  727  1  0.32800700  0.33383800  0.25597600  1
  H  729  1  0.21292300  0.22042000  0.26508400  1
  H  730  1  0.31472300  0.33487700  0.30010500  1
  H  732  1  0.22547000  0.24914200  0.24203600  1
  H  739  1  0.21809100  0.32800200  0.75602100  1
  H  741  1  0.33151400  0.21295500  0.76515800  1
  H  742  1  0.21692700  0.31478700  0.80015100  1
  H  744  1  0.30297800  0.22552900  0.74210400  1
  H  751  1  0.20753600  0.28276200  0.03734610  1
  H  753  1  0.36637400  0.28209700  0.02557810  1
  H  754  1  0.20405800  0.28256000  0.99316100  1
  H  756  1  0.34533800  0.28436800  0.04900310  1
  H  763  1  0.27138600  0.21663600  0.53667100  1
  H  765  1  0.27864800  0.37699200  0.52642600  1
  H  766  1  0.27480100  0.21983200  0.49248600  1
  H  768  1  0.27459300  0.35262100  0.54959400  1
  H  775  1  0.21691100  0.83910900  0.14515800  1
  H  777  1  0.37720400  0.79768800  0.14682100  1
  H  778  1  0.21969900  0.66235400  0.14593400  1
  H  780  1  0.35303700  0.89043100  0.14591500  1
  H  787  1  0.71289200  0.21668300  0.64520300  1
  H  789  1  0.75433300  0.37697700  0.64682500  1
  H  790  1  0.88963100  0.21943200  0.64597300  1
  H  792  1  0.66157700  0.35281200  0.64589900  1
  H  799  1  0.33489600  0.83967400  0.89710000  1
  H  801  1  0.17460300  0.79829100  0.89538400  1
  H  802  1  0.33213000  0.66299100  0.89633400  1
  H  804  1  0.19881500  0.89107800  0.89628600  1
  H  811  1  0.83974400  0.21691900  0.39705500  1
  H  813  1  0.79831100  0.37720500  0.39537500  1
  H  814  1  0.66303200  0.21965200  0.39629500  1
  H  816  1  0.89108600  0.35302700  0.39627500  1
  H  865  1  0.64608900  0.54951100  0.24005000  1
  H  866  1  0.64686700  0.54719400  0.21650300  1
  H  867  1  0.48066200  0.55517300  0.23964400  1
  H  868  1  0.48136800  0.55255900  0.21615200  1
  H  869  1  0.56304800  0.65427100  0.20985300  1
  H  870  1  0.56263200  0.72517800  0.19247300  1
  H  871  1  0.56571300  0.58317300  0.17397800  1
  H  872  1  0.56375200  0.51926400  0.15763300  1
  H  873  1  0.56571500  0.44317300  0.20973200  1
  H  874  1  0.56488900  0.37343800  0.19192200  1
  H  875  1  0.64362700  0.34829200  0.16254900  1
  H  876  1  0.64241900  0.25447400  0.16234700  1
  H  877  1  0.47958000  0.35032300  0.16816000  1
  H  878  1  0.47836400  0.25621500  0.16805500  1
  H  879  1  0.55951000  0.37726100  0.13915800  1
  H  880  1  0.55925400  0.44815300  0.12177200  1
  H  881  1  0.56385100  0.72900300  0.13970100  1
  H  882  1  0.56206000  0.65934300  0.12189600  1
  H  883  1  0.47687800  0.54450400  0.11603100  1
  H  884  1  0.47331400  0.54533500  0.09252620  1
  H  885  1  0.64131300  0.56285700  0.11451300  1
  H  886  1  0.63777700  0.56400700  0.09106720  1
  H  887  1  0.64583900  0.75363900  0.16875300  1
  H  888  1  0.64521200  0.84776400  0.16884100  1
  H  889  1  0.48086200  0.84646100  0.16368400  1
  H  890  1  0.48150500  0.75267300  0.16368200  1
  H  943  1  0.55128100  0.64592500  0.74007400  1
  H  944  1  0.55356800  0.64656600  0.71652700  1
  H  945  1  0.54565300  0.48049700  0.73973000  1
  H  946  1  0.54823700  0.48106200  0.71623800  1
  H  947  1  0.44652500  0.56263600  0.70988300  1
  H  948  1  0.37568400  0.56217400  0.69248500  1
  H  949  1  0.51775900  0.56530200  0.67402400  1
  H  950  1  0.58171400  0.56301400  0.65769800  1
  H  951  1  0.65762500  0.56515000  0.70981300  1
  H  952  1  0.72742800  0.56424800  0.69201900  1
  H  953  1  0.75258500  0.64329100  0.66269800  1
  H  954  1  0.84640500  0.64217400  0.66248700  1
  H  955  1  0.75071400  0.47918400  0.66820400  1
  H  956  1  0.84482300  0.47805800  0.66809000  1
  H  957  1  0.72380700  0.55999300  0.63925100  1
  H  958  1  0.65300700  0.56023500  0.62184900  1
  H  959  1  0.37205800  0.56390100  0.63971000  1
  H  960  1  0.44180500  0.56256700  0.62191800  1
  H  961  1  0.55723900  0.47877600  0.61555800  1
  H  962  1  0.55751700  0.47769800  0.59203000  1
  H  963  1  0.53810500  0.64321900  0.61506500  1
  H  964  1  0.53797100  0.64215500  0.59161500  1
  H  965  1  0.34737100  0.64546400  0.66877300  1
  H  966  1  0.25324700  0.64489700  0.66886200  1
  H  967  1  0.25444700  0.48055200  0.66368700  1
  H  968  1  0.34823300  0.48114000  0.66368200  1
  H  1021  1  0.46310700  0.54906800  0.84087700  1
  H  1022  1  0.45957900  0.55038100  0.86439000  1
  H  1023  1  0.62849000  0.54655800  0.84237900  1
  H  1024  1  0.62505400  0.54774700  0.86591800  1
  H  1025  1  0.54264500  0.65484100  0.87162400  1
  H  1026  1  0.54126500  0.72576800  0.88900700  1
  H  1027  1  0.53599500  0.58376600  0.90747200  1
  H  1028  1  0.53772800  0.51982900  0.92383400  1
  H  1029  1  0.53882600  0.44377700  0.87173700  1
  H  1030  1  0.53808900  0.37404200  0.88954100  1
  H  1031  1  0.45759800  0.34912000  0.91871400  1
  H  1032  1  0.45848500  0.25528600  0.91890000  1
  H  1033  1  0.62186600  0.35061000  0.91350800  1
  H  1034  1  0.62275800  0.25650500  0.91359700  1
  H  1035  1  0.54081800  0.37781400  0.94231800  1
  H  1036  1  0.54057100  0.44870600  0.95970400  1
  H  1037  1  0.53616800  0.72955000  0.94176000  1
  H  1038  1  0.53758700  0.65989900  0.95957000  1
  H  1039  1  0.62316800  0.54490400  0.96557200  1
  H  1040  1  0.62614800  0.54567200  0.98908300  1
  H  1041  1  0.45873900  0.56358300  0.96683400  1
  H  1042  1  0.46169600  0.56472300  0.99028000  1
  H  1043  1  0.45547300  0.75396000  0.91254400  1
  H  1044  1  0.45583800  0.84809000  0.91246000  1
  H  1045  1  0.62002200  0.84723300  0.91795200  1
  H  1046  1  0.61963800  0.75345300  0.91795300  1
  H  1099  1  0.54902100  0.63747300  0.34084300  1
  H  1100  1  0.55040900  0.64089800  0.36435500  1
  H  1101  1  0.54678200  0.47207900  0.34229900  1
  H  1102  1  0.54804500  0.47541200  0.36583900  1
  H  1103  1  0.65500900  0.55772300  0.37158700  1
  H  1104  1  0.72589100  0.55927900  0.38898100  1
  H  1105  1  0.58384100  0.56468000  0.40742000  1
  H  1106  1  0.51988000  0.56319100  0.42376800  1
  H  1107  1  0.44393800  0.56108200  0.37166300  1
  H  1108  1  0.37415500  0.56198200  0.38945600  1
  H  1109  1  0.34914700  0.64335700  0.41846000  1
  H  1110  1  0.25532100  0.64244200  0.41865800  1
  H  1111  1  0.35070000  0.47892500  0.41359200  1
  H  1112  1  0.25659100  0.47799600  0.41369400  1
  H  1113  1  0.37779800  0.56172300  0.44223300  1
  H  1114  1  0.44861500  0.56306600  0.45962700  1
  H  1115  1  0.72954900  0.56552800  0.44173100  1
  H  1116  1  0.65982900  0.56519300  0.45953300  1
  H  1117  1  0.54378600  0.48138700  0.46604100  1
  H  1118  1  0.54288400  0.48088100  0.48948700  1
  H  1119  1  0.56355400  0.64576200  0.46627000  1
  H  1120  1  0.56301500  0.64527300  0.48980100  1
  H  1121  1  0.75407300  0.64533400  0.41247000  1
  H  1122  1  0.84820200  0.64490600  0.41238800  1
  H  1123  1  0.84724100  0.48077600  0.41797600  1
  H  1124  1  0.75345300  0.48122300  0.41797800  1
  H  1135  1  0.60247800  0.60830900  0.27558100  1
  H  1137  1  0.48739400  0.49489100  0.28468900  1
  H  1138  1  0.58919400  0.60934800  0.31971000  1
  H  1140  1  0.49994100  0.52361300  0.26164100  1
  H  1147  1  0.49256200  0.60247300  0.77562600  1
  H  1149  1  0.60598500  0.48742600  0.78476300  1
  H  1150  1  0.49139800  0.58925800  0.81975600  1
  H  1152  1  0.57744900  0.50000000  0.76170900  1
  H  1159  1  0.48200700  0.55723300  0.05695120  1
  H  1161  1  0.64084500  0.55656800  0.04518320  1
  H  1162  1  0.47852900  0.55703100  0.01276620  1
  H  1164  1  0.61980900  0.55883900  0.06860820  1
  H  1171  1  0.54585700  0.49110700  0.55627600  1
  H  1173  1  0.55311900  0.65146300  0.54603100  1
  H  1174  1  0.54927200  0.49430300  0.51209100  1
  H  1176  1  0.54906400  0.62709200  0.56919900  1
  H  1183  1  0.49138200  0.11358000  0.16476300  1
  H  1185  1  0.65167500  0.07215910  0.16642600  1
  H  1186  1  0.49417000  0.93682500  0.16553900  1
  H  1188  1  0.62750800  0.16490200  0.16552000  1
  H  1195  1  0.98736300  0.49115400  0.66480800  1
  H  1197  1  0.02880410  0.65144800  0.66643000  1
  H  1198  1  0.16410200  0.49390300  0.66557800  1
  H  1200  1  0.93604800  0.62728300  0.66550400  1
  H  1207  1  0.60936700  0.11414500  0.91670500  1
  H  1209  1  0.44907400  0.07276210  0.91498900  1
  H  1210  1  0.60660100  0.93746200  0.91593900  1
  H  1212  1  0.47328600  0.16554900  0.91589100  1
  H  1219  1  0.11421500  0.49139000  0.41666000  1
  H  1221  1  0.07278210  0.65167600  0.41498000  1
  H  1222  1  0.93750300  0.49412300  0.41590000  1
  H  1224  1  0.16555700  0.62749800  0.41588000  1
  C  1  1  0.01462400  0.09828600  0.16078000  1
  C  2  1  0.01445000  0.13693600  0.15130600  1
  C  3  1  0.01524700  0.11278400  0.13900900  1
  C  5  1  0.01535000  0.04958700  0.15449800  1
  C  6  1  0.01560100  0.00022800  0.16100100  1
  C  7  1  0.01556500  0.95085400  0.15458200  1
  C  9  1  0.01458300  0.88944000  0.13888800  1
  C  10  1  0.01561600  0.86399200  0.15101400  1
  C  11  1  0.01608400  0.90183800  0.16068700  1
  C  12  1  0.01360400  0.86481900  0.12640600  1
  C  13  1  0.01302200  0.89177300  0.11419300  1
  C  15  1  0.01241800  0.95496800  0.09869700  1
  C  16  1  0.01126500  0.90626500  0.09242300  1
  C  17  1  0.01146900  0.86761900  0.10190000  1
  C  18  1  0.01247300  0.00432400  0.09219000  1
  C  19  1  0.01359000  0.05369200  0.09861600  1
  C  21  1  0.01477900  0.11510500  0.11431600  1
  C  22  1  0.01466700  0.14056600  0.10219100  1
  C  23  1  0.01368800  0.10273300  0.09251900  1
  C  24  1  0.01514400  0.13974300  0.12679700  1
  C  25  1  0.01475700  0.19561400  0.12704700  1
  C  26  1  0.96722100  0.22345700  0.12562700  1
  C  27  1  0.96693100  0.27865100  0.12565200  1
  C  28  1  0.01412600  0.30730400  0.12714400  1
  C  29  1  0.06148300  0.27920700  0.12858700  1
  C  30  1  0.06192900  0.22400300  0.12854200  1
  C  31  1  0.01051300  0.00448800  0.07822000  1
  C  32  1  0.96205700  0.99952600  0.07162700  1
  C  33  1  0.96003700  0.00004700  0.05783600  1
  C  34  1  0.00615300  0.00559300  0.05030400  1
  C  35  1  0.05463800  0.01070000  0.05695300  1
  C  36  1  0.05680700  0.01007800  0.07074700  1
  C  37  1  0.01279100  0.80895700  0.12616800  1
  C  38  1  0.05967500  0.78025900  0.12449400  1
  C  39  1  0.05889200  0.72506300  0.12442300  1
  C  40  1  0.01125600  0.69729400  0.12607700  1
  C  41  1  0.96449200  0.72624300  0.12765700  1
  C  42  1  0.96512700  0.78143900  0.12772000  1
  C  43  1  0.01522300  0.00014900  0.17497200  1
  C  44  1  0.06270400  0.99929100  0.18210000  1
  C  45  1  0.96730700  0.00224900  0.18189800  1
  C  46  1  0.96693100  0.00342700  0.19569600  1
  C  47  1  0.01441900  0.00229400  0.20287600  1
  C  48  1  0.06219700  0.00067100  0.19590000  1
  C  79  1  0.90466500  0.01420700  0.66081000  1
  C  80  1  0.86605100  0.01400600  0.65132700  1
  C  81  1  0.89024700  0.01479700  0.63903600  1
  C  83  1  0.95338300  0.01494100  0.65454100  1
  C  84  1  0.00272100  0.01520700  0.66105500  1
  C  85  1  0.05212000  0.01511400  0.65464900  1
  C  87  1  0.11359100  0.01406200  0.63897000  1
  C  88  1  0.13899700  0.01502000  0.65110200  1
  C  89  1  0.10111100  0.01555400  0.66076500  1
  C  90  1  0.13825400  0.01316100  0.62649400  1
  C  91  1  0.11134500  0.01278500  0.61427500  1
  C  93  1  0.04821800  0.01258900  0.59876200  1
  C  94  1  0.09695400  0.01179500  0.59249900  1
  C  95  1  0.13555400  0.01170000  0.60198600  1
  C  96  1  0.99888700  0.01287900  0.59224000  1
  C  97  1  0.94949000  0.01369000  0.59865500  1
  C  99  1  0.88801200  0.01448500  0.61434100  1
  C  100  1  0.86260400  0.01459300  0.60220900  1
  C  101  1  0.90047700  0.01391800  0.59254400  1
  C  102  1  0.86333300  0.01473200  0.62681800  1
  C  103  1  0.80745900  0.01438100  0.62705500  1
  C  104  1  0.77958800  0.96686800  0.62563000  1
  C  105  1  0.72439200  0.96661300  0.62565400  1
  C  106  1  0.69576900  0.01382100  0.62715400  1
  C  107  1  0.72389800  0.06115900  0.62859900  1
  C  108  1  0.77910200  0.06156900  0.62855600  1
  C  109  1  0.99884000  0.01218000  0.57826200  1
  C  110  1  0.00430500  0.96445600  0.57136900  1
  C  111  1  0.00444800  0.96390000  0.55756600  1
  C  112  1  0.99919300  0.01079100  0.55032400  1
  C  113  1  0.99338600  0.05850400  0.55728000  1
  C  114  1  0.99332300  0.05921100  0.57108200  1
  C  115  1  0.19411700  0.01241700  0.62626600  1
  C  116  1  0.22277100  0.05934700  0.62462200  1
  C  117  1  0.27796600  0.05861400  0.62454300  1
  C  118  1  0.30577700  0.01098600  0.62616100  1
  C  119  1  0.27687500  0.96418200  0.62771700  1
  C  120  1  0.22168000  0.96476600  0.62778500  1
  C  121  1  0.00275100  0.01490700  0.67502700  1
  C  122  1  0.00361800  0.06243000  0.68213700  1
  C  123  1  0.00066300  0.96702900  0.68197000  1
  C  124  1  0.99951000  0.96673500  0.69576800  1
  C  125  1  0.00069100  0.01426500  0.70293100  1
  C  126  1  0.00224300  0.06200400  0.69593800  1
  C  157  1  0.99206400  0.09887700  0.84227100  1
  C  158  1  0.99118600  0.13752700  0.85174400  1
  C  159  1  0.98923700  0.11336900  0.86403300  1
  C  161  1  0.99064100  0.05018900  0.84854800  1
  C  162  1  0.99107200  0.00083200  0.84205000  1
  C  163  1  0.99039800  0.95145800  0.84847000  1
  C  165  1  0.98997000  0.89002800  0.86416300  1
  C  166  1  0.98958200  0.86459200  0.85203400  1
  C  167  1  0.99001400  0.90244600  0.84236400  1
  C  168  1  0.99008400  0.86538400  0.87664400  1
  C  169  1  0.99017000  0.89233300  0.88885900  1
  C  171  1  0.99032700  0.95552400  0.90435500  1
  C  172  1  0.99111500  0.90681700  0.91063100  1
  C  173  1  0.99113900  0.86817200  0.90115400  1
  C  174  1  0.99008800  0.00488300  0.91086000  1
  C  175  1  0.98907300  0.05424700  0.90443000  1
  C  177  1  0.98821800  0.11565700  0.88872700  1
  C  178  1  0.98773200  0.14111500  0.90085200  1
  C  179  1  0.98852000  0.10328700  0.91052600  1
  C  180  1  0.98837100  0.14030400  0.87624600  1
  C  181  1  0.98861000  0.19617000  0.87599900  1
  C  182  1  0.03602100  0.22414100  0.87751600  1
  C  183  1  0.03615900  0.27933400  0.87749100  1
  C  184  1  0.98893100  0.30785900  0.87590400  1
  C  185  1  0.94170300  0.27963000  0.87436700  1
  C  186  1  0.94141300  0.22442300  0.87440500  1
  C  187  1  0.99170400  0.00504100  0.92483300  1
  C  188  1  0.03998100  0.99997300  0.93150200  1
  C  189  1  0.04166000  0.00046300  0.94529700  1
  C  190  1  0.99536600  0.00602900  0.95276100  1
  C  191  1  0.94706700  0.01128100  0.94603000  1
  C  192  1  0.94523600  0.01069700  0.93223300  1
  C  193  1  0.99069200  0.80951700  0.87688100  1
  C  194  1  0.94364800  0.78097200  0.87843400  1
  C  195  1  0.94424000  0.72577200  0.87849700  1
  C  196  1  0.99184500  0.69785500  0.87695600  1
  C  197  1  0.03876600  0.72664700  0.87549600  1
  C  198  1  0.03831800  0.78184300  0.87544200  1
  C  199  1  0.99306000  0.00071000  0.82808800  1
  C  200  1  0.94640400  0.00113800  0.82062500  1
  C  201  1  0.04178900  0.99949100  0.82150600  1
  C  202  1  0.04376800  0.99875700  0.80771100  1
  C  203  1  0.99729100  0.00003600  0.80020900  1
  C  204  1  0.94852100  0.00068300  0.80683300  1
  C  235  1  0.09902100  0.01055700  0.34223200  1
  C  236  1  0.13764500  0.01147500  0.35171100  1
  C  237  1  0.11345700  0.01356800  0.36399600  1
  C  239  1  0.05031600  0.01200900  0.34850000  1
  C  240  1  0.00097700  0.01147300  0.34199400  1
  C  241  1  0.95158400  0.01211300  0.34840600  1
  C  243  1  0.89011400  0.01268900  0.36408800  1
  C  244  1  0.86470200  0.01271700  0.35195400  1
  C  245  1  0.90258300  0.01223100  0.34229100  1
  C  246  1  0.86544300  0.01291000  0.37656400  1
  C  247  1  0.89236500  0.01340100  0.38878100  1
  C  249  1  0.95550900  0.01419900  0.40428900  1
  C  250  1  0.90677800  0.01390500  0.41055700  1
  C  251  1  0.86816400  0.01323900  0.40107500  1
  C  252  1  0.00484900  0.01486600  0.41080500  1
  C  253  1  0.05423600  0.01531600  0.40438300  1
  C  255  1  0.11569200  0.01523800  0.38868900  1
  C  256  1  0.14111700  0.01612900  0.40081800  1
  C  257  1  0.10325600  0.01595300  0.41048700  1
  C  258  1  0.14036200  0.01462100  0.37621200  1
  C  259  1  0.19622800  0.01434100  0.37597200  1
  C  260  1  0.22416600  0.96693100  0.37752000  1
  C  261  1  0.27936000  0.96675400  0.37749200  1
  C  262  1  0.30791500  0.01394200  0.37587200  1
  C  263  1  0.27971800  0.06118100  0.37431300  1
  C  264  1  0.22451200  0.06150800  0.37435100  1
  C  265  1  0.00491100  0.01465400  0.42478400  1
  C  266  1  0.99906700  0.96716600  0.43175900  1
  C  267  1  0.99863200  0.96695400  0.44556000  1
  C  268  1  0.00423200  0.01418700  0.45272800  1
  C  269  1  0.01009800  0.06151000  0.44569200  1
  C  270  1  0.01043200  0.06187600  0.43188800  1
  C  271  1  0.80957600  0.01230000  0.37679700  1
  C  272  1  0.78101200  0.05938300  0.37825300  1
  C  273  1  0.72581200  0.05876700  0.37832900  1
  C  274  1  0.69791000  0.01109800  0.37689400  1
  C  275  1  0.72672500  0.96414700  0.37552000  1
  C  276  1  0.78191700  0.96461700  0.37545900  1
  C  277  1  0.00088700  0.00951800  0.32803100  1
  C  278  1  0.00121600  0.05620500  0.32058100  1
  C  279  1  0.99971400  0.96081400  0.32143600  1
  C  280  1  0.99893400  0.95889600  0.30764200  1
  C  281  1  0.00009800  0.00540900  0.30015100  1
  C  282  1  0.00072600  0.05415000  0.30678900  1
  C  313  1  0.03177800  0.03739400  0.24274600  1
  C  315  1  0.01066600  0.01870700  0.26498700  1
  C  317  1  0.96624800  0.97313400  0.24793500  1
  C  318  1  0.99469900  0.00038500  0.23816800  1
  C  320  1  0.01815300  0.02971700  0.27809200  1
  C  323  1  0.98441800  0.99213100  0.22493800  1
  C  325  1  0.96559000  0.03179500  0.74279500  1
  C  327  1  0.98419100  0.01068700  0.76504200  1
  C  329  1  0.02983100  0.96626800  0.74800200  1
  C  330  1  0.00259700  0.99469100  0.73822800  1
  C  332  1  0.97312600  0.01817400  0.77814500  1
  C  335  1  0.01091900  0.98442200  0.72500000  1
  C  337  1  0.96229200  0.00802800  0.01088700  1
  C  339  1  0.98445400  0.00763000  0.98821600  1
  C  341  1  0.05244200  0.00769800  0.00418800  1
  C  342  1  0.01578100  0.00791300  0.01460700  1
  C  344  1  0.96787600  0.00754700  0.97534200  1
  C  347  1  0.03260900  0.00818800  0.02760100  1
  C  349  1  0.99872200  0.97236100  0.51049600  1
  C  351  1  0.00152200  0.99790300  0.48805900  1
  C  353  1  0.00281100  0.06338300  0.50466100  1
  C  354  1  0.00049400  0.02521700  0.51472100  1
  C  356  1  0.00175100  0.98332400  0.47503100  1
  C  359  1  0.99990200  0.04012800  0.52785800  1
  C  361  1  0.97257300  0.53827300  0.12596900  1
  C  363  1  0.99788300  0.44849800  0.12662100  1
  C  365  1  0.06356700  0.51468800  0.12690600  1
  C  366  1  0.02549000  0.55500400  0.12637000  1
  C  368  1  0.98320300  0.39645000  0.12665800  1
  C  371  1  0.04053100  0.60748700  0.12622900  1
  C  373  1  0.46478600  0.97234600  0.62600600  1
  C  375  1  0.55456500  0.99764000  0.62664700  1
  C  377  1  0.48838600  0.06333700  0.62691900  1
  C  378  1  0.44806200  0.02526400  0.62639400  1
  C  380  1  0.60660900  0.98294400  0.62668600  1
  C  383  1  0.39558400  0.04030600  0.62625200  1
  C  385  1  0.03028400  0.53885000  0.87707000  1
  C  387  1  0.00496500  0.44908200  0.87641900  1
  C  389  1  0.93929100  0.51528400  0.87610300  1
  C  390  1  0.97737600  0.55559600  0.87664900  1
  C  392  1  0.01967400  0.39704600  0.87639100  1
  C  395  1  0.96236700  0.60808700  0.87678000  1
  C  397  1  0.53890800  0.97258100  0.37703300  1
  C  399  1  0.44912900  0.99787500  0.37638900  1
  C  401  1  0.51531200  0.06356800  0.37608700  1
  C  402  1  0.55563600  0.02549600  0.37662300  1
  C  404  1  0.39709300  0.98316400  0.37636000  1
  C  407  1  0.60812200  0.04052700  0.37675100  1
  C  409  1  0.28909500  0.37275700  0.18038500  1
  C  410  1  0.28892100  0.41140700  0.17091100  1
  C  411  1  0.28971800  0.38725500  0.15861400  1
  C  413  1  0.28982100  0.32405800  0.17410300  1
  C  414  1  0.29007200  0.27469900  0.18060600  1
  C  415  1  0.29003600  0.22532500  0.17418700  1
  C  417  1  0.28905400  0.16391100  0.15849300  1
  C  418  1  0.29008700  0.13846300  0.17061900  1
  C  419  1  0.29055500  0.17630900  0.18029200  1
  C  420  1  0.28807500  0.13929000  0.14601100  1
  C  421  1  0.28749300  0.16624400  0.13379800  1
  C  423  1  0.28688900  0.22943900  0.11830200  1
  C  424  1  0.28573600  0.18073600  0.11202800  1
  C  425  1  0.28594000  0.14209000  0.12150500  1
  C  426  1  0.28694400  0.27879500  0.11179500  1
  C  427  1  0.28806100  0.32816300  0.11822100  1
  C  429  1  0.28925000  0.38957600  0.13392100  1
  C  430  1  0.28913800  0.41503700  0.12179600  1
  C  431  1  0.28815900  0.37720400  0.11212400  1
  C  432  1  0.28961500  0.41421400  0.14640200  1
  C  433  1  0.28922800  0.47008500  0.14665200  1
  C  434  1  0.24169200  0.49792800  0.14523200  1
  C  435  1  0.24140200  0.55312200  0.14525700  1
  C  436  1  0.28859700  0.58177500  0.14674900  1
  C  437  1  0.33595400  0.55367800  0.14819200  1
  C  438  1  0.33640000  0.49847400  0.14814700  1
  C  439  1  0.28498400  0.27895900  0.09782510  1
  C  440  1  0.23652800  0.27399700  0.09123210  1
  C  441  1  0.23450800  0.27451800  0.07744110  1
  C  442  1  0.28062400  0.28006400  0.06990910  1
  C  443  1  0.32910900  0.28517100  0.07655810  1
  C  444  1  0.33127800  0.28454900  0.09035210  1
  C  445  1  0.28726200  0.08342810  0.14577300  1
  C  446  1  0.33414600  0.05473010  0.14409900  1
  C  447  1  0.33333333  0.99953400  0.14402800  1
  C  448  1  0.28572700  0.97176500  0.14568200  1
  C  449  1  0.23896300  0.00071406  0.14726200  1
  C  450  1  0.23959800  0.05591010  0.14732500  1
  C  451  1  0.28969400  0.27462000  0.19457700  1
  C  452  1  0.33717500  0.27376200  0.20170500  1
  C  453  1  0.24177800  0.27672000  0.20150300  1
  C  454  1  0.24140200  0.27789800  0.21530100  1
  C  455  1  0.28889000  0.27676500  0.22248100  1
  C  456  1  0.33666800  0.27514200  0.21550500  1
  C  487  1  0.17913600  0.28867800  0.68041500  1
  C  488  1  0.14052200  0.28847700  0.67093200  1
  C  489  1  0.16471800  0.28926800  0.65864100  1
  C  491  1  0.22785400  0.28941200  0.67414600  1
  C  492  1  0.27719200  0.28967800  0.68066000  1
  C  493  1  0.32659100  0.28958500  0.67425400  1
  C  495  1  0.38806200  0.28853300  0.65857500  1
  C  496  1  0.41346800  0.28949100  0.67070700  1
  C  497  1  0.37558200  0.29002500  0.68037000  1
  C  498  1  0.41272500  0.28763200  0.64609900  1
  C  499  1  0.38581600  0.28725600  0.63388000  1
  C  501  1  0.32268900  0.28706000  0.61836700  1
  C  502  1  0.37142500  0.28626600  0.61210400  1
  C  503  1  0.41002500  0.28617100  0.62159100  1
  C  504  1  0.27335800  0.28735000  0.61184500  1
  C  505  1  0.22396100  0.28816100  0.61826000  1
  C  507  1  0.16248300  0.28895600  0.63394600  1
  C  508  1  0.13707500  0.28906400  0.62181400  1
  C  509  1  0.17494800  0.28838900  0.61214900  1
  C  510  1  0.13780400  0.28920300  0.64642300  1
  C  511  1  0.08193010  0.28885200  0.64666000  1
  C  512  1  0.05405910  0.24133900  0.64523500  1
  C  513  1  0.99886300  0.24108400  0.64525900  1
  C  514  1  0.97024000  0.28829200  0.64675900  1
  C  515  1  0.99836900  0.33563000  0.64820400  1
  C  516  1  0.05357310  0.33604000  0.64816100  1
  C  517  1  0.27331100  0.28665100  0.59786700  1
  C  518  1  0.27877600  0.23892700  0.59097400  1
  C  519  1  0.27891900  0.23837100  0.57717100  1
  C  520  1  0.27366400  0.28526200  0.56992900  1
  C  521  1  0.26785700  0.33297500  0.57688500  1
  C  522  1  0.26779400  0.33368200  0.59068700  1
  C  523  1  0.46858800  0.28688800  0.64587100  1
  C  524  1  0.49724200  0.33381800  0.64422700  1
  C  525  1  0.55243700  0.33308500  0.64414800  1
  C  526  1  0.58024800  0.28545700  0.64576600  1
  C  527  1  0.55134600  0.23865300  0.64732200  1
  C  528  1  0.49615100  0.23923700  0.64739000  1
  C  529  1  0.27722200  0.28937800  0.69463200  1
  C  530  1  0.27808900  0.33690100  0.70174200  1
  C  531  1  0.27513400  0.24150000  0.70157500  1
  C  532  1  0.27398100  0.24120600  0.71537300  1
  C  533  1  0.27516200  0.28873600  0.72253600  1
  C  534  1  0.27671400  0.33647500  0.71554300  1
  C  565  1  0.26653500  0.37334800  0.86187600  1
  C  566  1  0.26565700  0.41199800  0.87134900  1
  C  567  1  0.26370800  0.38784000  0.88363800  1
  C  569  1  0.26511200  0.32466000  0.86815300  1
  C  570  1  0.26554300  0.27530300  0.86165500  1
  C  571  1  0.26486900  0.22592900  0.86807500  1
  C  573  1  0.26444100  0.16449900  0.88376800  1
  C  574  1  0.26405300  0.13906300  0.87163900  1
  C  575  1  0.26448500  0.17691700  0.86196900  1
  C  576  1  0.26455500  0.13985500  0.89624900  1
  C  577  1  0.26464100  0.16680400  0.90846400  1
  C  579  1  0.26479800  0.22999500  0.92396000  1
  C  580  1  0.26558600  0.18128800  0.93023600  1
  C  581  1  0.26561000  0.14264300  0.92075900  1
  C  582  1  0.26455900  0.27935400  0.93046500  1
  C  583  1  0.26354400  0.32871800  0.92403500  1
  C  585  1  0.26268900  0.39012800  0.90833200  1
  C  586  1  0.26220300  0.41558600  0.92045700  1
  C  587  1  0.26299100  0.37775800  0.93013100  1
  C  588  1  0.26284200  0.41477500  0.89585100  1
  C  589  1  0.26308100  0.47064100  0.89560400  1
  C  590  1  0.31049200  0.49861200  0.89712100  1
  C  591  1  0.31063000  0.55380500  0.89709600  1
  C  592  1  0.26340200  0.58233000  0.89550900  1
  C  593  1  0.21617400  0.55410100  0.89397200  1
  C  594  1  0.21588400  0.49889400  0.89401000  1
  C  595  1  0.26617500  0.27951200  0.94443800  1
  C  596  1  0.31445200  0.27444400  0.95110700  1
  C  597  1  0.31613100  0.27493400  0.96490200  1
  C  598  1  0.26983700  0.28050000  0.97236600  1
  C  599  1  0.22153800  0.28575200  0.96563500  1
  C  600  1  0.21970700  0.28516800  0.95183800  1
  C  601  1  0.26516300  0.08398810  0.89648600  1
  C  602  1  0.21811900  0.05544310  0.89803900  1
  C  603  1  0.21871100  0.00024305  0.89810200  1
  C  604  1  0.26631600  0.97232600  0.89656100  1
  C  605  1  0.31323700  0.00111806  0.89510100  1
  C  606  1  0.31278900  0.05631410  0.89504700  1
  C  607  1  0.26753100  0.27518100  0.84769300  1
  C  608  1  0.22087500  0.27560900  0.84023000  1
  C  609  1  0.31626000  0.27396200  0.84111100  1
  C  610  1  0.31823900  0.27322800  0.82731600  1
  C  611  1  0.27176200  0.27450700  0.81981400  1
  C  612  1  0.22299200  0.27515400  0.82643800  1
  C  643  1  0.37349200  0.28502800  0.36183700  1
  C  644  1  0.41211600  0.28594600  0.37131600  1
  C  645  1  0.38792800  0.28803900  0.38360100  1
  C  647  1  0.32478700  0.28648000  0.36810500  1
  C  648  1  0.27544800  0.28594400  0.36159900  1
  C  649  1  0.22605500  0.28658400  0.36801100  1
  C  651  1  0.16458500  0.28716000  0.38369300  1
  C  652  1  0.13917300  0.28718800  0.37155900  1
  C  653  1  0.17705400  0.28670200  0.36189600  1
  C  654  1  0.13991400  0.28738100  0.39616900  1
  C  655  1  0.16683600  0.28787200  0.40838600  1
  C  657  1  0.22998000  0.28867000  0.42389400  1
  C  658  1  0.18124900  0.28837600  0.43016200  1
  C  659  1  0.14263500  0.28771000  0.42068000  1
  C  660  1  0.27932000  0.28933700  0.43041000  1
  C  661  1  0.32870700  0.28978700  0.42398800  1
  C  663  1  0.39016300  0.28970900  0.40829400  1
  C  664  1  0.41558800  0.29060000  0.42042300  1
  C  665  1  0.37772700  0.29042400  0.43009200  1
  C  666  1  0.41483300  0.28909200  0.39581700  1
  C  667  1  0.47069900  0.28881200  0.39557700  1
  C  668  1  0.49863700  0.24140200  0.39712500  1
  C  669  1  0.55383100  0.24122500  0.39709700  1
  C  670  1  0.58238600  0.28841300  0.39547700  1
  C  671  1  0.55418900  0.33565200  0.39391800  1
  C  672  1  0.49898300  0.33597900  0.39395600  1
  C  673  1  0.27938200  0.28912500  0.44438900  1
  C  674  1  0.27353800  0.24163700  0.45136400  1
  C  675  1  0.27310300  0.24142500  0.46516500  1
  C  676  1  0.27870300  0.28865800  0.47233300  1
  C  677  1  0.28456900  0.33598100  0.46529700  1
  C  678  1  0.28490300  0.33634700  0.45149300  1
  C  679  1  0.08404710  0.28677100  0.39640200  1
  C  680  1  0.05548310  0.33385400  0.39785800  1
  C  681  1  0.00028305  0.33323800  0.39793400  1
  C  682  1  0.97238100  0.28556900  0.39649900  1
  C  683  1  0.00119606  0.23861800  0.39512500  1
  C  684  1  0.05638810  0.23908800  0.39506400  1
  C  685  1  0.27535800  0.28398900  0.34763600  1
  C  686  1  0.27568700  0.33067600  0.34018600  1
  C  687  1  0.27418500  0.23528500  0.34104100  1
  C  688  1  0.27340500  0.23336700  0.32724700  1
  C  689  1  0.27456900  0.27988000  0.31975600  1
  C  690  1  0.27519700  0.32862100  0.32639400  1
  C  721  1  0.30624900  0.31186500  0.26235100  1
  C  723  1  0.28513700  0.29317800  0.28459200  1
  C  725  1  0.24071900  0.24760500  0.26754000  1
  C  726  1  0.26917000  0.27485600  0.25777300  1
  C  728  1  0.29262400  0.30418800  0.29769700  1
  C  731  1  0.25888900  0.26660200  0.24454300  1
  C  733  1  0.24006100  0.30626600  0.76240000  1
  C  735  1  0.25866200  0.28515800  0.78464700  1
  C  737  1  0.30430200  0.24073900  0.76760700  1
  C  738  1  0.27706800  0.26916200  0.75783300  1
  C  740  1  0.24759700  0.29264500  0.79775000  1
  C  743  1  0.28539000  0.25889300  0.74460500  1
  C  745  1  0.23676300  0.28249900  0.03049210  1
  C  747  1  0.25892500  0.28210100  0.00782111  1
  C  749  1  0.32691300  0.28216900  0.02379310  1
  C  750  1  0.29025200  0.28238400  0.03421210  1
  C  752  1  0.24234700  0.28201800  0.99494700  1
  C  755  1  0.30708000  0.28265900  0.04720610  1
  C  757  1  0.27319300  0.24683200  0.53010100  1
  C  759  1  0.27599300  0.27237400  0.50766400  1
  C  761  1  0.27728200  0.33785400  0.52426600  1
  C  762  1  0.27496500  0.29968800  0.53432600  1
  C  764  1  0.27622200  0.25779500  0.49463600  1
  C  767  1  0.27437300  0.31459900  0.54746300  1
  C  769  1  0.24704400  0.81274400  0.14557400  1
  C  771  1  0.27235400  0.72296900  0.14622600  1
  C  773  1  0.33803800  0.78915900  0.14651100  1
  C  774  1  0.29996100  0.82947500  0.14597500  1
  C  776  1  0.25767400  0.67092100  0.14626300  1
  C  779  1  0.31500200  0.88195800  0.14583400  1
  C  781  1  0.73925700  0.24681700  0.64561100  1
  C  783  1  0.82903600  0.27211100  0.64625200  1
  C  785  1  0.76285700  0.33780800  0.64652400  1
  C  786  1  0.72253300  0.29973500  0.64599900  1
  C  788  1  0.88108000  0.25741500  0.64629100  1
  C  791  1  0.67005500  0.31477700  0.64585700  1
  C  793  1  0.30475500  0.81332100  0.89667500  1
  C  795  1  0.27943600  0.72355300  0.89602400  1
  C  797  1  0.21376200  0.78975500  0.89570800  1
  C  798  1  0.25184700  0.83006700  0.89625400  1
  C  800  1  0.29414500  0.67151700  0.89599600  1
  C  803  1  0.23683800  0.88255800  0.89638500  1
  C  805  1  0.81337900  0.24705200  0.39663800  1
  C  807  1  0.72360000  0.27234600  0.39599400  1
  C  809  1  0.78978300  0.33803900  0.39569200  1
  C  810  1  0.83010700  0.29996700  0.39622800  1
  C  812  1  0.67156400  0.25763500  0.39596500  1
  C  815  1  0.88259300  0.31499800  0.39635600  1
  C  817  1  0.56356600  0.64722800  0.19999000  1
  C  818  1  0.56339200  0.68587800  0.19051600  1
  C  819  1  0.56418900  0.66172600  0.17821900  1
  C  821  1  0.56429200  0.59852900  0.19370800  1
  C  822  1  0.56454300  0.54917000  0.20021100  1
  C  823  1  0.56450700  0.49979600  0.19379200  1
  C  825  1  0.56352500  0.43838200  0.17809800  1
  C  826  1  0.56455800  0.41293400  0.19022400  1
  C  827  1  0.56502600  0.45078000  0.19989700  1
  C  828  1  0.56254600  0.41376100  0.16561600  1
  C  829  1  0.56196400  0.44071500  0.15340300  1
  C  831  1  0.56136000  0.50391000  0.13790700  1
  C  832  1  0.56020700  0.45520700  0.13163300  1
  C  833  1  0.56041100  0.41656100  0.14111000  1
  C  834  1  0.56141500  0.55326600  0.13140000  1
  C  835  1  0.56253200  0.60263400  0.13782600  1
  C  837  1  0.56372100  0.66404700  0.15352600  1
  C  838  1  0.56360900  0.68950800  0.14140100  1
  C  839  1  0.56263000  0.65167500  0.13172900  1
  C  840  1  0.56408600  0.68868500  0.16600700  1
  C  841  1  0.56369900  0.74455600  0.16625700  1
  C  842  1  0.51616300  0.77239900  0.16483700  1
  C  843  1  0.51587300  0.82759300  0.16486200  1
  C  844  1  0.56306800  0.85624600  0.16635400  1
  C  845  1  0.61042500  0.82814900  0.16779700  1
  C  846  1  0.61087100  0.77294500  0.16775200  1
  C  847  1  0.55945500  0.55343000  0.11743000  1
  C  848  1  0.51099900  0.54846800  0.11083700  1
  C  849  1  0.50897900  0.54898900  0.09704620  1
  C  850  1  0.55509500  0.55453500  0.08951420  1
  C  851  1  0.60358000  0.55964200  0.09616320  1
  C  852  1  0.60574900  0.55902000  0.10995700  1
  C  853  1  0.56173300  0.35789900  0.16537800  1
  C  854  1  0.60861700  0.32920100  0.16370400  1
  C  855  1  0.60783400  0.27400500  0.16363300  1
  C  856  1  0.56019800  0.24623600  0.16528700  1
  C  857  1  0.51343400  0.27518500  0.16686700  1
  C  858  1  0.51406900  0.33038100  0.16693000  1
  C  859  1  0.56416500  0.54909100  0.21418200  1
  C  860  1  0.61164600  0.54823300  0.22131000  1
  C  861  1  0.51624900  0.55119100  0.22110800  1
  C  862  1  0.51587300  0.55236900  0.23490600  1
  C  863  1  0.56336100  0.55123600  0.24208600  1
  C  864  1  0.61113900  0.54961300  0.23511000  1
  C  895  1  0.45360700  0.56314900  0.70002000  1
  C  896  1  0.41499300  0.56294800  0.69053700  1
  C  897  1  0.43918900  0.56373900  0.67824600  1
  C  899  1  0.50232500  0.56388300  0.69375100  1
  C  900  1  0.55166300  0.56414900  0.70026500  1
  C  901  1  0.60106200  0.56405600  0.69385900  1
  C  903  1  0.66253300  0.56300400  0.67818000  1
  C  904  1  0.68793900  0.56396200  0.69031200  1
  C  905  1  0.65005300  0.56449600  0.69997500  1
  C  906  1  0.68719600  0.56210300  0.66570400  1
  C  907  1  0.66028700  0.56172700  0.65348500  1
  C  909  1  0.59716000  0.56153100  0.63797200  1
  C  910  1  0.64589600  0.56073700  0.63170900  1
  C  911  1  0.68449600  0.56064200  0.64119600  1
  C  912  1  0.54782900  0.56182100  0.63145000  1
  C  913  1  0.49843200  0.56263200  0.63786500  1
  C  915  1  0.43695400  0.56342700  0.65355100  1
  C  916  1  0.41154600  0.56353500  0.64141900  1
  C  917  1  0.44941900  0.56286000  0.63175400  1
  C  918  1  0.41227500  0.56367400  0.66602800  1
  C  919  1  0.35640100  0.56332300  0.66626500  1
  C  920  1  0.32853000  0.51581000  0.66484000  1
  C  921  1  0.27333400  0.51555500  0.66486400  1
  C  922  1  0.24471100  0.56276300  0.66636400  1
  C  923  1  0.27284000  0.61010100  0.66780900  1
  C  924  1  0.32804400  0.61051100  0.66776600  1
  C  925  1  0.54778200  0.56112200  0.61747200  1
  C  926  1  0.55324700  0.51339800  0.61057900  1
  C  927  1  0.55339000  0.51284200  0.59677600  1
  C  928  1  0.54813500  0.55973300  0.58953400  1
  C  929  1  0.54232800  0.60744600  0.59649000  1
  C  930  1  0.54226500  0.60815300  0.61029200  1
  C  931  1  0.74305900  0.56135900  0.66547600  1
  C  932  1  0.77171300  0.60828900  0.66383200  1
  C  933  1  0.82690800  0.60755600  0.66375300  1
  C  934  1  0.85471900  0.55992800  0.66537100  1
  C  935  1  0.82581700  0.51312400  0.66692700  1
  C  936  1  0.77062200  0.51370800  0.66699500  1
  C  937  1  0.55169300  0.56384900  0.71423700  1
  C  938  1  0.55256000  0.61137200  0.72134700  1
  C  939  1  0.54960500  0.51597100  0.72118000  1
  C  940  1  0.54845200  0.51567700  0.73497800  1
  C  941  1  0.54963300  0.56320700  0.74214100  1
  C  942  1  0.55118500  0.61094600  0.73514800  1
  C  973  1  0.54100600  0.64781900  0.88148100  1
  C  974  1  0.54012800  0.68646900  0.89095400  1
  C  975  1  0.53817900  0.66231100  0.90324300  1
  C  977  1  0.53958300  0.59913100  0.88775800  1
  C  978  1  0.54001400  0.54977400  0.88126000  1
  C  979  1  0.53934000  0.50040000  0.88768000  1
  C  981  1  0.53891200  0.43897000  0.90337300  1
  C  982  1  0.53852400  0.41353400  0.89124400  1
  C  983  1  0.53895600  0.45138800  0.88157400  1
  C  984  1  0.53902600  0.41432600  0.91585400  1
  C  985  1  0.53911200  0.44127500  0.92806900  1
  C  987  1  0.53926900  0.50446600  0.94356500  1
  C  988  1  0.54005700  0.45575900  0.94984100  1
  C  989  1  0.54008100  0.41711400  0.94036400  1
  C  990  1  0.53903000  0.55382500  0.95007000  1
  C  991  1  0.53801500  0.60318900  0.94364000  1
  C  993  1  0.53716000  0.66459900  0.92793700  1
  C  994  1  0.53667400  0.69005700  0.94006200  1
  C  995  1  0.53746200  0.65222900  0.94973600  1
  C  996  1  0.53731300  0.68924600  0.91545600  1
  C  997  1  0.53755200  0.74511200  0.91520900  1
  C  998  1  0.58496300  0.77308300  0.91672600  1
  C  999  1  0.58510100  0.82827600  0.91670100  1
  C  1000  1  0.53787300  0.85680100  0.91511400  1
  C  1001  1  0.49064500  0.82857200  0.91357700  1
  C  1002  1  0.49035500  0.77336500  0.91361500  1
  C  1003  1  0.54064600  0.55398300  0.96404300  1
  C  1004  1  0.58892300  0.54891500  0.97071200  1
  C  1005  1  0.59060200  0.54940500  0.98450700  1
  C  1006  1  0.54430800  0.55497100  0.99197100  1
  C  1007  1  0.49600900  0.56022300  0.98524000  1
  C  1008  1  0.49417800  0.55963900  0.97144300  1
  C  1009  1  0.53963400  0.35845900  0.91609100  1
  C  1010  1  0.49259000  0.32991400  0.91764400  1
  C  1011  1  0.49318200  0.27471400  0.91770700  1
  C  1012  1  0.54078700  0.24679700  0.91616600  1
  C  1013  1  0.58770800  0.27558900  0.91470600  1
  C  1014  1  0.58726000  0.33078500  0.91465200  1
  C  1015  1  0.54200200  0.54965200  0.86729800  1
  C  1016  1  0.49534600  0.55008000  0.85983500  1
  C  1017  1  0.59073100  0.54843300  0.86071600  1
  C  1018  1  0.59271000  0.54769900  0.84692100  1
  C  1019  1  0.54623300  0.54897800  0.83941900  1
  C  1020  1  0.49746300  0.54962500  0.84604300  1
  C  1051  1  0.64796300  0.55949900  0.38144200  1
  C  1052  1  0.68658700  0.56041700  0.39092100  1
  C  1053  1  0.66239900  0.56251000  0.40320600  1
  C  1055  1  0.59925800  0.56095100  0.38771000  1
  C  1056  1  0.54991900  0.56041500  0.38120400  1
  C  1057  1  0.50052600  0.56105500  0.38761600  1
  C  1059  1  0.43905600  0.56163100  0.40329800  1
  C  1060  1  0.41364400  0.56165900  0.39116400  1
  C  1061  1  0.45152500  0.56117300  0.38150100  1
  C  1062  1  0.41438500  0.56185200  0.41577400  1
  C  1063  1  0.44130700  0.56234300  0.42799100  1
  C  1065  1  0.50445100  0.56314100  0.44349900  1
  C  1066  1  0.45572000  0.56284700  0.44976700  1
  C  1067  1  0.41710600  0.56218100  0.44028500  1
  C  1068  1  0.55379100  0.56380800  0.45001500  1
  C  1069  1  0.60317800  0.56425800  0.44359300  1
  C  1071  1  0.66463400  0.56418000  0.42789900  1
  C  1072  1  0.69005900  0.56507100  0.44002800  1
  C  1073  1  0.65219800  0.56489500  0.44969700  1
  C  1074  1  0.68930400  0.56356300  0.41542200  1
  C  1075  1  0.74517000  0.56328300  0.41518200  1
  C  1076  1  0.77310800  0.51587300  0.41673000  1
  C  1077  1  0.82830200  0.51569600  0.41670200  1
  C  1078  1  0.85685700  0.56288400  0.41508200  1
  C  1079  1  0.82866000  0.61012300  0.41352300  1
  C  1080  1  0.77345400  0.61045000  0.41356100  1
  C  1081  1  0.55385300  0.56359600  0.46399400  1
  C  1082  1  0.54800900  0.51610800  0.47096900  1
  C  1083  1  0.54757400  0.51589600  0.48477000  1
  C  1084  1  0.55317400  0.56312900  0.49193800  1
  C  1085  1  0.55904000  0.61045200  0.48490200  1
  C  1086  1  0.55937400  0.61081800  0.47109800  1
  C  1087  1  0.35851800  0.56124200  0.41600700  1
  C  1088  1  0.32995400  0.60832500  0.41746300  1
  C  1089  1  0.27475400  0.60770900  0.41753900  1
  C  1090  1  0.24685200  0.56004000  0.41610400  1
  C  1091  1  0.27566700  0.51308900  0.41473000  1
  C  1092  1  0.33085900  0.51355900  0.41466900  1
  C  1093  1  0.54982900  0.55846000  0.36724100  1
  C  1094  1  0.55015800  0.60514700  0.35979100  1
  C  1095  1  0.54865600  0.50975600  0.36064600  1
  C  1096  1  0.54787600  0.50783800  0.34685200  1
  C  1097  1  0.54904000  0.55435100  0.33936100  1
  C  1098  1  0.54966800  0.60309200  0.34599900  1
  C  1129  1  0.58072000  0.58633600  0.28195600  1
  C  1131  1  0.55960800  0.56764900  0.30419700  1
  C  1133  1  0.51519000  0.52207600  0.28714500  1
  C  1134  1  0.54364100  0.54932700  0.27737800  1
  C  1136  1  0.56709500  0.57865900  0.31730200  1
  C  1139  1  0.53336000  0.54107300  0.26414800  1
  C  1141  1  0.51453200  0.58073700  0.78200500  1
  C  1143  1  0.53313300  0.55962900  0.80425200  1
  C  1145  1  0.57877300  0.51521000  0.78721200  1
  C  1146  1  0.55153900  0.54363300  0.77743800  1
  C  1148  1  0.52206800  0.56711600  0.81735500  1
  C  1151  1  0.55986100  0.53336400  0.76421000  1
  C  1153  1  0.51123400  0.55697000  0.05009720  1
  C  1155  1  0.53339600  0.55657200  0.02742620  1
  C  1157  1  0.60138400  0.55664000  0.04339820  1
  C  1158  1  0.56472300  0.55685500  0.05381720  1
  C  1160  1  0.51681800  0.55648900  0.01455220  1
  C  1163  1  0.58155100  0.55713000  0.06681120  1
  C  1165  1  0.54766400  0.52130300  0.54970600  1
  C  1167  1  0.55046400  0.54684500  0.52726900  1
  C  1169  1  0.55175300  0.61232500  0.54387100  1
  C  1170  1  0.54943600  0.57415900  0.55393100  1
  C  1172  1  0.55069300  0.53226600  0.51424100  1
  C  1175  1  0.54884400  0.58907000  0.56706800  1
  C  1177  1  0.52151500  0.08721510  0.16517900  1
  C  1179  1  0.54682500  0.99744000  0.16583100  1
  C  1181  1  0.61250900  0.06363010  0.16611600  1
  C  1182  1  0.57443200  0.10394600  0.16558000  1
  C  1184  1  0.53214500  0.94539200  0.16586800  1
  C  1187  1  0.58947300  0.15642900  0.16543900  1
  C  1189  1  0.01372810  0.52128800  0.66521600  1
  C  1191  1  0.10350700  0.54658200  0.66585700  1
  C  1193  1  0.03732810  0.61227900  0.66612900  1
  C  1194  1  0.99700400  0.57420600  0.66560400  1
  C  1196  1  0.15555100  0.53188600  0.66589600  1
  C  1199  1  0.94452600  0.58924800  0.66546200  1
  C  1201  1  0.57922600  0.08779210  0.91628000  1
  C  1203  1  0.55390700  0.99802400  0.91562900  1
  C  1205  1  0.48823300  0.06422610  0.91531300  1
  C  1206  1  0.52631800  0.10453800  0.91585900  1
  C  1208  1  0.56861600  0.94598800  0.91560100  1
  C  1211  1  0.51130900  0.15702900  0.91599000  1
  C  1213  1  0.08785010  0.52152300  0.41624300  1
  C  1215  1  0.99807100  0.54681700  0.41559900  1
  C  1217  1  0.06425410  0.61251000  0.41529700  1
  C  1218  1  0.10457800  0.57443800  0.41583300  1
  C  1220  1  0.94603500  0.53210600  0.41557000  1
  C  1223  1  0.15706400  0.58946900  0.41596100  1
  N  4  1  0.01581400  0.06054800  0.14148800  1
  N  8  1  0.01467400  0.94134600  0.14155000  1
  N  14  1  0.01361300  0.94400400  0.11170500  1
  N  20  1  0.01421800  0.06320000  0.11165000  1
  N  75  1  0.00050600  0.00597100  0.03731900  1
  N  76  1  0.00706100  0.64524600  0.12616800  1
  N  77  1  0.01683800  0.00573500  0.21588700  1
  N  78  1  0.01741600  0.35943200  0.12708200  1
  N  82  1  0.94247500  0.01538700  0.64152900  1
  N  86  1  0.06167600  0.01423100  0.64161900  1
  N  92  1  0.05912000  0.01325800  0.61177500  1
  N  98  1  0.93993000  0.01398900  0.61168800  1
  N  153  1  0.99964000  0.00664300  0.53729900  1
  N  154  1  0.35783000  0.00683000  0.62623900  1
  N  155  1  0.99720500  0.01675400  0.71594000  1
  N  156  1  0.64364300  0.01714400  0.62709600  1
  N  160  1  0.98882600  0.06113800  0.86155000  1
  N  164  1  0.99033900  0.94193800  0.86150400  1
  N  170  1  0.98961800  0.94456500  0.89134400  1
  N  176  1  0.98890400  0.06375400  0.89139400  1
  N  231  1  0.00065100  0.00641500  0.96576000  1
  N  232  1  0.99588700  0.64579500  0.87686600  1
  N  233  1  0.00172300  0.99792600  0.78721700  1
  N  234  1  0.98550800  0.35998300  0.87595900  1
  N  238  1  0.06123200  0.01392800  0.36150300  1
  N  242  1  0.94203200  0.01242200  0.36143800  1
  N  248  1  0.94459300  0.01397700  0.39127500  1
  N  254  1  0.06378000  0.01484200  0.39135000  1
  N  309  1  0.00374700  0.01751400  0.46577000  1
  N  310  1  0.64585400  0.00702900  0.37681400  1
  N  311  1  0.99797300  0.00104000  0.28715800  1
  N  312  1  0.36003900  0.01733700  0.37593000  1
  N  314  1  0.03839600  0.04551800  0.25579100  1
  N  316  1  0.97479600  0.98287700  0.26084500  1
  N  326  1  0.95741000  0.03841000  0.75583800  1
  N  328  1  0.02004600  0.97482800  0.76090900  1
  N  338  1  0.94843500  0.00789800  0.99803800  1
  N  340  1  0.03612600  0.00754900  0.99151900  1
  N  350  1  0.99925500  0.96046100  0.49752700  1
  N  352  1  0.00324400  0.04899700  0.49184900  1
  N  362  1  0.96052000  0.48644100  0.12609600  1
  N  364  1  0.04903200  0.46349600  0.12701000  1
  N  374  1  0.51661400  0.96028100  0.62613500  1
  N  376  1  0.53957900  0.04879500  0.62702500  1
  N  386  1  0.04233000  0.48702200  0.87695200  1
  N  388  1  0.95381900  0.46408400  0.87600900  1
  N  398  1  0.48708000  0.96052000  0.37691300  1
  N  400  1  0.46411900  0.04902700  0.37599200  1
  N  412  1  0.29028500  0.33501900  0.16109300  1
  N  416  1  0.28914500  0.21581700  0.16115500  1
  N  422  1  0.28808400  0.21847500  0.13131000  1
  N  428  1  0.28868900  0.33767100  0.13125500  1
  N  483  1  0.27497700  0.28044200  0.05692410  1
  N  484  1  0.28153200  0.91971700  0.14577300  1
  N  485  1  0.29130900  0.28020600  0.23549200  1
  N  486  1  0.29188700  0.63390300  0.14668700  1
  N  490  1  0.21694600  0.28985800  0.66113400  1
  N  494  1  0.33614700  0.28870200  0.66122400  1
  N  500  1  0.33359100  0.28772900  0.63138000  1
  N  506  1  0.21440100  0.28846000  0.63129300  1
  N  561  1  0.27411100  0.28111400  0.55690400  1
  N  562  1  0.63230100  0.28130100  0.64584400  1
  N  563  1  0.27167600  0.29122500  0.73554500  1
  N  564  1  0.91811400  0.29161500  0.64670100  1
  N  568  1  0.26329700  0.33560900  0.88115500  1
  N  572  1  0.26481000  0.21640900  0.88110900  1
  N  578  1  0.26408900  0.21903600  0.91094900  1
  N  584  1  0.26337500  0.33822500  0.91099900  1
  N  639  1  0.27512200  0.28088600  0.98536500  1
  N  640  1  0.27035800  0.92026600  0.89647100  1
  N  641  1  0.27619400  0.27239700  0.80682200  1
  N  642  1  0.25997900  0.63445400  0.89556400  1
  N  646  1  0.33570300  0.28839900  0.38110800  1
  N  650  1  0.21650300  0.28689300  0.38104300  1
  N  656  1  0.21906400  0.28844800  0.41088000  1
  N  662  1  0.33825100  0.28931300  0.41095500  1
  N  717  1  0.27821800  0.29198500  0.48537500  1
  N  718  1  0.92032500  0.28150000  0.39641900  1
  N  719  1  0.27244400  0.27551100  0.30676300  1
  N  720  1  0.63451000  0.29180800  0.39553500  1
  N  722  1  0.31286700  0.31998900  0.27539600  1
  N  724  1  0.24926700  0.25734800  0.28045000  1
  N  734  1  0.23188100  0.31288100  0.77544300  1
  N  736  1  0.29451700  0.24929900  0.78051400  1
  N  746  1  0.22290600  0.28236900  0.01764310  1
  N  748  1  0.31059700  0.28202000  0.01112410  1
  N  758  1  0.27372600  0.23493200  0.51713200  1
  N  760  1  0.27771500  0.32346800  0.51145400  1
  N  770  1  0.23499100  0.76091200  0.14570100  1
  N  772  1  0.32350300  0.73796700  0.14661500  1
  N  782  1  0.79108500  0.23475200  0.64574000  1
  N  784  1  0.81405000  0.32326600  0.64663000  1
  N  794  1  0.31680100  0.76149300  0.89655700  1
  N  796  1  0.22829000  0.73855500  0.89561400  1
  N  806  1  0.76155100  0.23499100  0.39651800  1
  N  808  1  0.73859000  0.32349800  0.39559700  1
  N  820  1  0.56475600  0.60949000  0.18069800  1
  N  824  1  0.56361600  0.49028800  0.18076000  1
  N  830  1  0.56255500  0.49294600  0.15091500  1
  N  836  1  0.56316000  0.61214200  0.15086000  1
  N  891  1  0.54944800  0.55491300  0.07652920  1
  N  892  1  0.55600300  0.19418800  0.16537800  1
  N  893  1  0.56578000  0.55467700  0.25509700  1
  N  894  1  0.56635800  0.90837400  0.16629200  1
  N  898  1  0.49141700  0.56432900  0.68073900  1
  N  902  1  0.61061800  0.56317300  0.68082900  1
  N  908  1  0.60806200  0.56220000  0.65098500  1
  N  914  1  0.48887200  0.56293100  0.65089800  1
  N  969  1  0.54858200  0.55558500  0.57650900  1
  N  970  1  0.90677200  0.55577200  0.66544900  1
  N  971  1  0.54614700  0.56569600  0.75515000  1
  N  972  1  0.19258500  0.56608600  0.66630600  1
  N  976  1  0.53776800  0.61008000  0.90076000  1
  N  980  1  0.53928100  0.49088000  0.90071400  1
  N  986  1  0.53856000  0.49350700  0.93055400  1
  N  992  1  0.53784600  0.61269600  0.93060400  1
  N  1047  1  0.54959300  0.55535700  0.00497023  1
  N  1048  1  0.54482900  0.19473700  0.91607600  1
  N  1049  1  0.55066500  0.54686800  0.82642700  1
  N  1050  1  0.53445000  0.90892500  0.91516900  1
  N  1054  1  0.61017400  0.56287000  0.40071300  1
  N  1058  1  0.49097400  0.56136400  0.40064800  1
  N  1064  1  0.49353500  0.56291900  0.43048500  1
  N  1070  1  0.61272200  0.56378400  0.43056000  1
  N  1125  1  0.55268900  0.56645600  0.50498000  1
  N  1126  1  0.19479600  0.55597100  0.41602400  1
  N  1127  1  0.54691500  0.54998200  0.32636800  1
  N  1128  1  0.90898100  0.56627900  0.41514000  1
  N  1130  1  0.58733800  0.59446000  0.29500100  1
  N  1132  1  0.52373800  0.53181900  0.30005500  1
  N  1142  1  0.50635200  0.58735200  0.79504800  1
  N  1144  1  0.56898800  0.52377000  0.80011900  1
  N  1154  1  0.49737700  0.55684000  0.03724820  1
  N  1156  1  0.58506800  0.55649100  0.03072920  1
  N  1166  1  0.54819700  0.50940300  0.53673700  1
  N  1168  1  0.55218600  0.59793900  0.53105900  1
  N  1178  1  0.50946200  0.03538310  0.16530600  1
  N  1180  1  0.59797400  0.01243810  0.16622000  1
  N  1190  1  0.06555610  0.50922300  0.66534500  1
  N  1192  1  0.08852110  0.59773700  0.66623500  1
  N  1202  1  0.59127200  0.03596410  0.91616200  1
  N  1204  1  0.50276100  0.01302610  0.91521900  1
  N  1214  1  0.03602210  0.50946200  0.41612300  1
  N  1216  1  0.01306110  0.59796900  0.41520200  1
