# generated using pymatgen
data_H27C41N6
_symmetry_space_group_name_H-M   'P 1'
_cell_length_a   34.36450000
_cell_length_b   34.36450000
_cell_length_c   68.72520000
_cell_angle_alpha   89.95050000
_cell_angle_beta   90.04950000
_cell_angle_gamma   90.00000000
_symmetry_Int_Tables_number   1
_chemical_formula_structural   H27C41N6
_chemical_formula_sum   'H324 C492 N72'
_cell_volume   81158.82427836
_cell_formula_units_Z   12
loop_
 _symmetry_equiv_pos_site_id
 _symmetry_equiv_pos_as_xyz
  1  'x, y, z'
loop_
 _atom_site_type_symbol
 _atom_site_label
 _atom_site_symmetry_multiplicity
 _atom_site_fract_x
 _atom_site_fract_y
 _atom_site_fract_z
 _atom_site_occupancy
  H  73  1  0.94785800  0.95152900  0.81843600  1
  H  74  1  0.94684200  0.95415400  0.85306700  1
  H  75  1  0.03666500  0.03597500  0.81733500  1
  H  76  1  0.03668100  0.03791800  0.85203100  1
  H  77  1  0.99867600  0.05850900  0.88045600  1
  H  78  1  0.99850900  0.05989800  0.91520800  1
  H  79  1  0.98427500  0.93649200  0.88185900  1
  H  80  1  0.98311200  0.93824900  0.91655400  1
  H  81  1  0.91243700  0.99961100  0.92599900  1
  H  82  1  0.85998100  0.99949100  0.95183400  1
  H  83  1  0.96548300  0.00090700  0.97915300  1
  H  84  1  0.01347400  0.99895000  0.00344900  1
  H  85  1  0.06924000  0.99864200  0.92599100  1
  H  86  1  0.12118800  0.99853200  0.95232100  1
  H  87  1  0.14132400  0.06031200  0.99170200  1
  H  88  1  0.21079300  0.05926900  0.99125900  1
  H  89  1  0.13932200  0.93766700  0.99156100  1
  H  90  1  0.20875700  0.93637100  0.99172600  1
  H  91  1  0.11905500  0.00106500  0.03068800  1
  H  92  1  0.06662100  0.00143300  0.05656700  1
  H  93  1  0.85778400  0.00065200  0.03030300  1
  H  94  1  0.90974800  0.00012600  0.05660700  1
  H  95  1  0.99759900  0.93951700  0.06674000  1
  H  96  1  0.99746700  0.93934800  0.10148900  1
  H  97  1  0.97935700  0.06081100  0.06671600  1
  H  98  1  0.98000600  0.06098400  0.10147200  1
  H  99  1  0.94255400  0.03997300  0.13029500  1
  H  100  1  0.94389200  0.04018100  0.16501000  1
  H  101  1  0.03704700  0.96045500  0.16427500  1
  H  102  1  0.03633200  0.96068800  0.12971000  1
  H  103  1  0.83886600  0.06088000  0.98519000  1
  H  104  1  0.76937600  0.06128800  0.98470500  1
  H  105  1  0.71083700  0.96328900  0.01373500  1
  H  106  1  0.64164500  0.96375400  0.01306700  1
  H  107  1  0.64363600  0.03997500  0.96501500  1
  H  108  1  0.71303100  0.03889400  0.96533000  1
  H  109  1  0.76856400  0.94032300  0.99552000  1
  H  110  1  0.83806000  0.94025300  0.99632800  1
  H  111  1  0.26587400  0.94904300  0.97193000  1
  H  112  1  0.33527500  0.94721300  0.97210400  1
  H  113  1  0.26831700  0.04428000  0.01068500  1
  H  114  1  0.33765200  0.04297400  0.01027500  1
  H  191  1  0.95726700  0.03676900  0.31739100  1
  H  192  1  0.95694600  0.03780900  0.35207300  1
  H  193  1  0.04345000  0.94961500  0.31821200  1
  H  194  1  0.04251400  0.94968100  0.35288200  1
  H  195  1  0.06062300  0.98845200  0.38121500  1
  H  196  1  0.06024900  0.98810300  0.41593700  1
  H  197  1  0.93827100  0.99995600  0.38093500  1
  H  198  1  0.93823900  0.00061500  0.41569100  1
  H  199  1  0.99872300  0.07248200  0.42597400  1
  H  200  1  0.99874500  0.12486100  0.45184700  1
  H  201  1  0.00006900  0.01927200  0.47909000  1
  H  202  1  0.99878400  0.97120700  0.50335600  1
  H  203  1  0.99835300  0.91569700  0.42584600  1
  H  204  1  0.99838100  0.86364700  0.45213800  1
  H  205  1  0.05985300  0.84344900  0.49174600  1
  H  206  1  0.05892400  0.77398700  0.49128400  1
  H  207  1  0.93724000  0.84531100  0.49116100  1
  H  208  1  0.93604300  0.77589300  0.49131100  1
  H  209  1  0.00063800  0.86555100  0.53052300  1
  H  210  1  0.00130300  0.91792000  0.55644000  1
  H  211  1  0.00049200  0.12682900  0.53030100  1
  H  212  1  0.00028500  0.07480900  0.55657300  1
  H  213  1  0.93986600  0.98690700  0.56680200  1
  H  214  1  0.94001900  0.98780200  0.60154800  1
  H  215  1  0.06108500  0.00561500  0.56650200  1
  H  216  1  0.06157300  0.00577100  0.60126200  1
  H  217  1  0.04043200  0.04418800  0.62979100  1
  H  218  1  0.04069000  0.04416300  0.66451100  1
  H  219  1  0.96163900  0.95040700  0.66459600  1
  H  220  1  0.96183300  0.94983500  0.63004700  1
  H  221  1  0.06036300  0.14578700  0.48525100  1
  H  222  1  0.06081000  0.21528100  0.48476400  1
  H  223  1  0.96287200  0.27386700  0.51372100  1
  H  224  1  0.96335400  0.34305600  0.51303700  1
  H  225  1  0.03948100  0.34100600  0.46501400  1
  H  226  1  0.03838700  0.27160800  0.46534400  1
  H  227  1  0.93984300  0.21616100  0.49547700  1
  H  228  1  0.93973400  0.14666400  0.49628900  1
  H  229  1  0.94885900  0.71878100  0.47161700  1
  H  230  1  0.94703400  0.64939300  0.47181500  1
  H  231  1  0.04388100  0.71638100  0.51058100  1
  H  232  1  0.04258200  0.64705100  0.51018500  1
  H  243  1  0.96322900  0.04862400  0.25232000  1
  H  245  1  0.00749100  0.92481200  0.27919800  1
  H  246  1  0.04798800  0.92189500  0.26340400  1
  H  247  1  0.00330900  0.89920000  0.25725600  1
  H  249  1  0.01995800  0.95712800  0.19722300  1
  H  251  1  0.95340500  0.01204200  0.28438000  1
  H  258  1  0.04718500  0.03152800  0.75209400  1
  H  260  1  0.92582700  0.98074900  0.77897300  1
  H  261  1  0.92717900  0.93857400  0.76423000  1
  H  262  1  0.90079400  0.98034400  0.75677800  1
  H  264  1  0.95998500  0.96650600  0.69748000  1
  H  266  1  0.01117400  0.03942000  0.78407900  1
  H  273  1  0.51099400  0.93991900  0.99683900  1
  H  275  1  0.56626000  0.07047600  0.99533000  1
  H  276  1  0.52378900  0.09316500  0.00386500  1
  H  277  1  0.53186400  0.08855700  0.97849300  1
  H  279  1  0.40044900  0.04688000  0.99170800  1
  H  281  1  0.57445200  0.97301100  0.00911800  1
  H  288  1  0.93952000  0.47373300  0.49677500  1
  H  290  1  0.07003300  0.41836400  0.49536500  1
  H  291  1  0.09280100  0.46088800  0.50379600  1
  H  292  1  0.08806300  0.45258300  0.47844100  1
  H  294  1  0.04656300  0.58417300  0.49164000  1
  H  296  1  0.97250700  0.41023400  0.50903400  1
  H  369  1  0.71506000  0.71873100  0.78933500  1
  H  370  1  0.71404400  0.72135600  0.82396600  1
  H  371  1  0.80386700  0.80317700  0.78823400  1
  H  372  1  0.80388300  0.80512000  0.82293000  1
  H  373  1  0.76587800  0.82571100  0.85135500  1
  H  374  1  0.76571100  0.82710000  0.88610700  1
  H  375  1  0.75147700  0.70369400  0.85275800  1
  H  376  1  0.75031400  0.70545100  0.88745300  1
  H  377  1  0.67963900  0.76681300  0.89689800  1
  H  378  1  0.62718300  0.76669300  0.92273260  1
  H  379  1  0.73268500  0.76810900  0.95005160  1
  H  380  1  0.78067600  0.76615200  0.97434760  1
  H  381  1  0.83644200  0.76584400  0.89689000  1
  H  382  1  0.88839000  0.76573400  0.92321960  1
  H  383  1  0.90852560  0.82751400  0.96260060  1
  H  384  1  0.97799460  0.82647100  0.96215760  1
  H  385  1  0.90652360  0.70486900  0.96245960  1
  H  386  1  0.97595860  0.70357300  0.96262460  1
  H  387  1  0.88625700  0.76826700  0.00158700  1
  H  388  1  0.83382300  0.76863500  0.02746600  1
  H  389  1  0.62498600  0.76785400  0.00120200  1
  H  390  1  0.67695000  0.76732800  0.02750600  1
  H  391  1  0.76480100  0.70671900  0.03763900  1
  H  392  1  0.76466900  0.70655000  0.07238800  1
  H  393  1  0.74655900  0.82801300  0.03761500  1
  H  394  1  0.74720800  0.82818600  0.07237100  1
  H  395  1  0.70975600  0.80717500  0.10119400  1
  H  396  1  0.71109400  0.80738300  0.13590900  1
  H  397  1  0.80424900  0.72765700  0.13517400  1
  H  398  1  0.80353400  0.72789000  0.10060900  1
  H  399  1  0.60606800  0.82808200  0.95608860  1
  H  400  1  0.53657800  0.82849000  0.95560360  1
  H  401  1  0.47803900  0.73049100  0.98463360  1
  H  402  1  0.40884700  0.73095600  0.98396560  1
  H  403  1  0.41083800  0.80717700  0.93591360  1
  H  404  1  0.48023300  0.80609600  0.93622860  1
  H  405  1  0.53576600  0.70752500  0.96641860  1
  H  406  1  0.60526200  0.70745500  0.96722660  1
  H  407  1  0.03307600  0.71624500  0.94282860  1
  H  408  1  0.10247700  0.71441500  0.94300260  1
  H  409  1  0.03551900  0.81148200  0.98158360  1
  H  410  1  0.10485400  0.81017600  0.98117360  1
  H  487  1  0.72446900  0.80397100  0.28829000  1
  H  488  1  0.72414800  0.80501100  0.32297200  1
  H  489  1  0.81065200  0.71681700  0.28911100  1
  H  490  1  0.80971600  0.71688300  0.32378100  1
  H  491  1  0.82782500  0.75565400  0.35211400  1
  H  492  1  0.82745100  0.75530500  0.38683600  1
  H  493  1  0.70547300  0.76715800  0.35183400  1
  H  494  1  0.70544100  0.76781700  0.38659000  1
  H  495  1  0.76592500  0.83968400  0.39687300  1
  H  496  1  0.76594700  0.89206300  0.42274600  1
  H  497  1  0.76727100  0.78647400  0.44998900  1
  H  498  1  0.76598600  0.73840900  0.47425500  1
  H  499  1  0.76555500  0.68289900  0.39674500  1
  H  500  1  0.76558300  0.63084900  0.42303700  1
  H  501  1  0.82705500  0.61065100  0.46264500  1
  H  502  1  0.82612600  0.54118900  0.46218300  1
  H  503  1  0.70444200  0.61251300  0.46206000  1
  H  504  1  0.70324500  0.54309500  0.46221000  1
  H  505  1  0.76784000  0.63275300  0.50142200  1
  H  506  1  0.76850500  0.68512200  0.52733900  1
  H  507  1  0.76769400  0.89403100  0.50120000  1
  H  508  1  0.76748700  0.84201100  0.52747200  1
  H  509  1  0.70706800  0.75410900  0.53770100  1
  H  510  1  0.70722100  0.75500400  0.57244700  1
  H  511  1  0.82828700  0.77281700  0.53740100  1
  H  512  1  0.82877500  0.77297300  0.57216100  1
  H  513  1  0.80763400  0.81139000  0.60069000  1
  H  514  1  0.80789200  0.81136500  0.63541000  1
  H  515  1  0.72884100  0.71760900  0.63549500  1
  H  516  1  0.72903500  0.71703700  0.60094600  1
  H  517  1  0.82756500  0.91298860  0.45615000  1
  H  518  1  0.82801200  0.98248260  0.45566300  1
  H  519  1  0.73007400  0.04106900  0.48462000  1
  H  520  1  0.73055600  0.11025800  0.48393600  1
  H  521  1  0.80668300  0.10820800  0.43591300  1
  H  522  1  0.80558900  0.03881000  0.43624300  1
  H  523  1  0.70704500  0.98336260  0.46637600  1
  H  524  1  0.70693600  0.91386560  0.46718800  1
  H  525  1  0.71606100  0.48598300  0.44251600  1
  H  526  1  0.71423600  0.41659500  0.44271400  1
  H  527  1  0.81108300  0.48358300  0.48148000  1
  H  528  1  0.80978400  0.41425300  0.48108400  1
  H  539  1  0.73043100  0.81582600  0.22321900  1
  H  541  1  0.77469300  0.69201400  0.25009700  1
  H  542  1  0.81519000  0.68909700  0.23430300  1
  H  543  1  0.77051100  0.66640200  0.22815500  1
  H  545  1  0.78716000  0.72433000  0.16812200  1
  H  547  1  0.72060700  0.77924400  0.25527900  1
  H  554  1  0.81438700  0.79873000  0.72299300  1
  H  556  1  0.69302900  0.74795100  0.74987200  1
  H  557  1  0.69438100  0.70577600  0.73512900  1
  H  558  1  0.66799600  0.74754600  0.72767700  1
  H  560  1  0.72718700  0.73370800  0.66837900  1
  H  562  1  0.77837600  0.80662200  0.75497800  1
  H  569  1  0.27819600  0.70712100  0.96773760  1
  H  571  1  0.33346200  0.83767800  0.96622860  1
  H  572  1  0.29099100  0.86036700  0.97476360  1
  H  573  1  0.29906600  0.85575900  0.94939160  1
  H  575  1  0.16765100  0.81408200  0.96260660  1
  H  577  1  0.34165400  0.74021300  0.98001660  1
  H  584  1  0.70672200  0.24093500  0.46767400  1
  H  586  1  0.83723500  0.18556600  0.46626400  1
  H  587  1  0.86000300  0.22809000  0.47469500  1
  H  588  1  0.85526500  0.21978500  0.44934000  1
  H  590  1  0.81376500  0.35137500  0.46253900  1
  H  592  1  0.73970900  0.17743600  0.47993300  1
  H  665  1  0.48226100  0.48593200  0.76023300  1
  H  666  1  0.48124500  0.48855700  0.79486400  1
  H  667  1  0.57106800  0.57037800  0.75913200  1
  H  668  1  0.57108400  0.57232100  0.79382800  1
  H  669  1  0.53307900  0.59291200  0.82225300  1
  H  670  1  0.53291200  0.59430100  0.85700500  1
  H  671  1  0.51867800  0.47089500  0.82365600  1
  H  672  1  0.51751500  0.47265200  0.85835100  1
  H  673  1  0.44684000  0.53401400  0.86779600  1
  H  674  1  0.39438400  0.53389400  0.89363100  1
  H  675  1  0.49988600  0.53531000  0.92095020  1
  H  676  1  0.54787700  0.53335300  0.94524620  1
  H  677  1  0.60364300  0.53304500  0.86778800  1
  H  678  1  0.65559100  0.53293500  0.89411800  1
  H  679  1  0.67572700  0.59471500  0.93349920  1
  H  680  1  0.74519600  0.59367200  0.93305620  1
  H  681  1  0.67372500  0.47207000  0.93335820  1
  H  682  1  0.74316000  0.47077400  0.93352320  1
  H  683  1  0.65345800  0.53546800  0.97248520  1
  H  684  1  0.60102400  0.53583600  0.99836419  1
  H  685  1  0.39218700  0.53505500  0.97210020  1
  H  686  1  0.44415100  0.53452900  0.99840419  1
  H  687  1  0.53200200  0.47392000  0.00853700  1
  H  688  1  0.53187000  0.47375100  0.04328600  1
  H  689  1  0.51376000  0.59521400  0.00851300  1
  H  690  1  0.51440900  0.59538700  0.04326900  1
  H  691  1  0.47695700  0.57437600  0.07209200  1
  H  692  1  0.47829500  0.57458400  0.10680700  1
  H  693  1  0.57145000  0.49485800  0.10607200  1
  H  694  1  0.57073500  0.49509100  0.07150700  1
  H  695  1  0.37326900  0.59528300  0.92698720  1
  H  696  1  0.30377900  0.59569100  0.92650220  1
  H  697  1  0.24524000  0.49769200  0.95553220  1
  H  698  1  0.17604800  0.49815700  0.95486420  1
  H  699  1  0.17803900  0.57437800  0.90681220  1
  H  700  1  0.24743400  0.57329700  0.90712720  1
  H  701  1  0.30296700  0.47472600  0.93731720  1
  H  702  1  0.37246300  0.47465600  0.93812520  1
  H  703  1  0.80027700  0.48344600  0.91372720  1
  H  704  1  0.86967800  0.48161600  0.91390120  1
  H  705  1  0.80272000  0.57868300  0.95248220  1
  H  706  1  0.87205500  0.57737700  0.95207220  1
  H  783  1  0.49167000  0.57117200  0.25918800  1
  H  784  1  0.49134900  0.57221200  0.29387000  1
  H  785  1  0.57785300  0.48401800  0.26000900  1
  H  786  1  0.57691700  0.48408400  0.29467900  1
  H  787  1  0.59502600  0.52285500  0.32301200  1
  H  788  1  0.59465200  0.52250600  0.35773400  1
  H  789  1  0.47267400  0.53435900  0.32273200  1
  H  790  1  0.47264200  0.53501800  0.35748800  1
  H  791  1  0.53312600  0.60688500  0.36777100  1
  H  792  1  0.53314800  0.65926400  0.39364400  1
  H  793  1  0.53447200  0.55367500  0.42088700  1
  H  794  1  0.53318700  0.50561000  0.44515300  1
  H  795  1  0.53275600  0.45010000  0.36764300  1
  H  796  1  0.53278400  0.39805000  0.39393500  1
  H  797  1  0.59425600  0.37785200  0.43354300  1
  H  798  1  0.59332700  0.30839000  0.43308100  1
  H  799  1  0.47164300  0.37971400  0.43295800  1
  H  800  1  0.47044600  0.31029600  0.43310800  1
  H  801  1  0.53504100  0.39995400  0.47232000  1
  H  802  1  0.53570600  0.45232300  0.49823700  1
  H  803  1  0.53489500  0.66123200  0.47209800  1
  H  804  1  0.53468800  0.60921200  0.49837000  1
  H  805  1  0.47426900  0.52131000  0.50859900  1
  H  806  1  0.47442200  0.52220500  0.54334500  1
  H  807  1  0.59548800  0.54001800  0.50829900  1
  H  808  1  0.59597600  0.54017400  0.54305900  1
  H  809  1  0.57483500  0.57859100  0.57158800  1
  H  810  1  0.57509300  0.57856600  0.60630800  1
  H  811  1  0.49604200  0.48481000  0.60639300  1
  H  812  1  0.49623600  0.48423800  0.57184400  1
  H  813  1  0.59476600  0.68019000  0.42704800  1
  H  814  1  0.59521300  0.74968400  0.42656100  1
  H  815  1  0.49727500  0.80827000  0.45551800  1
  H  816  1  0.49775700  0.87745900  0.45483400  1
  H  817  1  0.57388400  0.87540900  0.40681100  1
  H  818  1  0.57279000  0.80601100  0.40714100  1
  H  819  1  0.47424600  0.75056400  0.43727400  1
  H  820  1  0.47413700  0.68106700  0.43808600  1
  H  821  1  0.48326200  0.25318400  0.41341400  1
  H  822  1  0.48143700  0.18379600  0.41361200  1
  H  823  1  0.57828400  0.25078400  0.45237800  1
  H  824  1  0.57698500  0.18145400  0.45198200  1
  H  835  1  0.49763200  0.58302700  0.19411700  1
  H  837  1  0.54189400  0.45921500  0.22099500  1
  H  838  1  0.58239100  0.45629800  0.20520100  1
  H  839  1  0.53771200  0.43360300  0.19905300  1
  H  841  1  0.55436100  0.49153100  0.13902000  1
  H  843  1  0.48780800  0.54644500  0.22617700  1
  H  850  1  0.58158800  0.56593100  0.69389100  1
  H  852  1  0.46023000  0.51515200  0.72077000  1
  H  853  1  0.46158200  0.47297700  0.70602700  1
  H  854  1  0.43519700  0.51474700  0.69857500  1
  H  856  1  0.49438800  0.50090900  0.63927700  1
  H  858  1  0.54557700  0.57382300  0.72587600  1
  H  865  1  0.04539700  0.47432200  0.93863620  1
  H  867  1  0.10066300  0.60487900  0.93712720  1
  H  868  1  0.05819200  0.62756800  0.94566220  1
  H  869  1  0.06626700  0.62296000  0.92029020  1
  H  871  1  0.93485220  0.58128300  0.93350520  1
  H  873  1  0.10885500  0.50741400  0.95091520  1
  H  880  1  0.47392300  0.00813600  0.43857200  1
  H  882  1  0.60443600  0.95276720  0.43716200  1
  H  883  1  0.62720400  0.99529124  0.44559300  1
  H  884  1  0.62246600  0.98698620  0.42023800  1
  H  886  1  0.58096600  0.11857600  0.43343700  1
  H  888  1  0.50691000  0.94463720  0.45083100  1
  C  1  1  0.91776600  0.99994600  0.94062300  1
  C  2  1  0.88913700  0.99993400  0.95472800  1
  C  3  1  0.90705700  0.00042300  0.97299200  1
  C  5  1  0.95400800  0.00016600  0.94986300  1
  C  6  1  0.99059400  0.00001400  0.94007700  1
  C  7  1  0.02731900  0.99994800  0.94965600  1
  C  9  1  0.07328800  0.99967200  0.97295100  1
  C  10  1  0.09192400  0.99909800  0.95489900  1
  C  11  1  0.06367800  0.99920400  0.94058600  1
  C  12  1  0.09195800  0.99967800  0.99143800  1
  C  13  1  0.07189700  0.99999800  0.00959200  1
  C  15  1  0.02499300  0.00012700  0.03273100  1
  C  16  1  0.06126400  0.00080100  0.04194900  1
  C  17  1  0.08988000  0.00062400  0.02783500  1
  C  18  1  0.98840100  0.00013600  0.04251800  1
  C  19  1  0.95166400  0.00017900  0.03293500  1
  C  21  1  0.90563700  0.00027200  0.00963500  1
  C  22  1  0.88704200  0.00041800  0.02770100  1
  C  23  1  0.91530600  0.00016300  0.04201000  1
  C  24  1  0.88694000  0.00041200  0.99114400  1
  C  25  1  0.84518500  0.00054100  0.99081800  1
  C  26  1  0.82381900  0.96594500  0.99388500  1
  C  27  1  0.78277400  0.96616600  0.99354300  1
  C  28  1  0.76144200  0.00082100  0.99001600  1
  C  29  1  0.78325100  0.03534200  0.98693500  1
  C  30  1  0.82428800  0.03528900  0.98737800  1
  C  31  1  0.71950700  0.00095900  0.98957500  1
  C  32  1  0.69853900  0.02307800  0.97564300  1
  C  33  1  0.65748500  0.02343700  0.97529700  1
  C  34  1  0.63551200  0.00176300  0.98885700  1
  C  35  1  0.65620900  0.97957800  0.00281800  1
  C  36  1  0.69727200  0.97911800  0.00310300  1
  C  37  1  0.98847200  0.00016700  0.06338500  1
  C  38  1  0.99386100  0.96529000  0.07394400  1
  C  39  1  0.99407600  0.96537200  0.09446500  1
  C  40  1  0.98877600  0.00017000  0.10524600  1
  C  41  1  0.98323900  0.03495700  0.09445700  1
  C  42  1  0.98316400  0.03503400  0.07393300  1
  C  43  1  0.98921900  0.00019000  0.12621500  1
  C  44  1  0.01612600  0.97720300  0.13684700  1
  C  45  1  0.01670800  0.97716400  0.15736800  1
  C  46  1  0.99021400  0.00005600  0.16822000  1
  C  47  1  0.96354600  0.02324300  0.15771700  1
  C  48  1  0.96301200  0.02329900  0.13718000  1
  C  49  1  0.13365900  0.99906900  0.99171100  1
  C  50  1  0.15532700  0.03398500  0.99175800  1
  C  51  1  0.19637800  0.03324700  0.99166200  1
  C  52  1  0.21742300  0.99767800  0.99146500  1
  C  53  1  0.19519900  0.96286500  0.99146700  1
  C  54  1  0.15417200  0.96346200  0.99158000  1
  C  55  1  0.25940700  0.99698700  0.99123000  1
  C  56  1  0.28034800  0.96896400  0.98027000  1
  C  57  1  0.32140500  0.96800600  0.98019500  1
  C  58  1  0.34335300  0.99545100  0.99080600  1
  C  59  1  0.32281400  0.02336400  0.00190400  1
  C  60  1  0.28176300  0.02411500  0.00206200  1
  C  61  1  0.99059800  0.99924400  0.91921800  1
  C  62  1  0.99539200  0.03373800  0.90828100  1
  C  63  1  0.98632900  0.96378800  0.90906100  1
  C  64  1  0.98671900  0.96294000  0.88855000  1
  C  65  1  0.99146900  0.99734400  0.87735400  1
  C  66  1  0.99585400  0.03273100  0.88775900  1
  C  67  1  0.99170300  0.99630300  0.85637200  1
  C  68  1  0.01721000  0.01997500  0.84524600  1
  C  69  1  0.01742200  0.01876500  0.82470800  1
  C  70  1  0.99206400  0.99369800  0.81442200  1
  C  71  1  0.96677200  0.96988800  0.82537000  1
  C  72  1  0.96644200  0.97130100  0.84587300  1
  C  119  1  0.99904800  0.06711100  0.44059300  1
  C  120  1  0.99911900  0.09569500  0.45471900  1
  C  121  1  0.99965700  0.07771500  0.47296900  1
  C  123  1  0.99928800  0.03084300  0.44981100  1
  C  124  1  0.99919600  0.99428700  0.44000400  1
  C  125  1  0.99920900  0.95753000  0.44955200  1
  C  127  1  0.99908900  0.91148100  0.47281200  1
  C  128  1  0.99870900  0.89290600  0.45474100  1
  C  129  1  0.99874800  0.92120200  0.44044900  1
  C  130  1  0.99918800  0.89275900  0.49128700  1
  C  131  1  0.99957700  0.91276300  0.50945800  1
  C  133  1  0.99996100  0.95960900  0.53263200  1
  C  134  1  0.00057000  0.92331200  0.54182600  1
  C  135  1  0.00021700  0.89473400  0.52769000  1
  C  136  1  0.00017300  0.99617900  0.54244000  1
  C  137  1  0.00012100  0.03293700  0.53287700  1
  C  139  1  0.99992400  0.07902200  0.50960900  1
  C  140  1  0.00026100  0.09757700  0.52768400  1
  C  141  1  0.00019500  0.06927600  0.54197300  1
  C  142  1  0.99985100  0.09777100  0.49113400  1
  C  143  1  0.00002000  0.13951800  0.49083400  1
  C  144  1  0.96543500  0.16089200  0.49387400  1
  C  145  1  0.96567900  0.20193500  0.49352900  1
  C  146  1  0.00034700  0.22324200  0.49003100  1
  C  147  1  0.03486300  0.20142000  0.48699000  1
  C  148  1  0.03478500  0.16038200  0.48742500  1
  C  149  1  0.00050100  0.26517000  0.48957800  1
  C  150  1  0.02260400  0.28611400  0.47565000  1
  C  151  1  0.02295800  0.32716800  0.47529100  1
  C  152  1  0.00130200  0.34915600  0.48883300  1
  C  153  1  0.97914800  0.32848000  0.50279300  1
  C  154  1  0.97870600  0.28741700  0.50310000  1
  C  155  1  0.00046200  0.99611100  0.56330700  1
  C  156  1  0.96570400  0.99081800  0.57394600  1
  C  157  1  0.96597100  0.99108100  0.59446700  1
  C  158  1  0.00083700  0.99681900  0.60516600  1
  C  159  1  0.03551400  0.00220300  0.59430000  1
  C  160  1  0.03540600  0.00178200  0.57377800  1
  C  161  1  0.00100700  0.99707100  0.62613200  1
  C  162  1  0.97825200  0.97038800  0.63700300  1
  C  163  1  0.97826700  0.97056100  0.65752600  1
  C  164  1  0.00098900  0.99761200  0.66814800  1
  C  165  1  0.02392200  0.02408200  0.65740100  1
  C  166  1  0.02393000  0.02385900  0.63686100  1
  C  167  1  0.99865000  0.85104800  0.49152800  1
  C  168  1  0.03359600  0.82941700  0.49170000  1
  C  169  1  0.03288900  0.78836900  0.49157800  1
  C  170  1  0.99736600  0.76727800  0.49125900  1
  C  171  1  0.96251600  0.78945700  0.49114100  1
  C  172  1  0.96306600  0.83049400  0.49126300  1
  C  173  1  0.99669700  0.72528000  0.49102000  1
  C  174  1  0.96873300  0.70431400  0.48001000  1
  C  175  1  0.96777700  0.66326000  0.47994100  1
  C  176  1  0.99518600  0.64132000  0.49060400  1
  C  177  1  0.02302700  0.66187800  0.50176200  1
  C  178  1  0.02375500  0.70293100  0.50192800  1
  C  179  1  0.99922400  0.99439000  0.41914600  1
  C  180  1  0.03437000  0.99066300  0.40867500  1
  C  181  1  0.96419900  0.99806600  0.40852800  1
  C  182  1  0.96439400  0.99801200  0.38800000  1
  C  183  1  0.99946300  0.99416300  0.37727900  1
  C  184  1  0.03440700  0.99052600  0.38815700  1
  C  185  1  0.99963300  0.99379200  0.35629500  1
  C  186  1  0.02464900  0.96870500  0.34572100  1
  C  187  1  0.02507600  0.96840600  0.32520300  1
  C  188  1  0.00026800  0.99289200  0.31432400  1
  C  189  1  0.97522800  0.01810400  0.32470100  1
  C  190  1  0.97495800  0.01848700  0.34524300  1
  C  237  1  0.00444600  0.96020200  0.25325600  1
  C  238  1  0.98733500  0.99436000  0.26132900  1
  C  239  1  0.97614000  0.02342200  0.24775700  1
  C  241  1  0.99854900  0.98617000  0.22085100  1
  C  244  1  0.01638600  0.92479100  0.26402300  1
  C  248  1  0.00423300  0.98009400  0.20111000  1
  C  250  1  0.97888300  0.00012000  0.28101900  1
  C  252  1  0.96182900  0.98432600  0.75329400  1
  C  253  1  0.99464900  0.00411800  0.76126900  1
  C  254  1  0.02295200  0.01673600  0.74762400  1
  C  256  1  0.98755600  0.99069900  0.72088100  1
  C  259  1  0.92721200  0.97032900  0.76406300  1
  C  263  1  0.98192000  0.98379900  0.70119700  1
  C  265  1  0.99984000  0.01356700  0.78091300  1
  C  267  1  0.51333100  0.03706900  0.99243100  1
  C  268  1  0.52926100  0.99900000  0.99451900  1
  C  269  1  0.50198400  0.96804700  0.99499100  1
  C  271  1  0.44826000  0.01121200  0.99157300  1
  C  274  1  0.53531900  0.07413900  0.99254300  1
  C  278  1  0.40866600  0.01912600  0.99130400  1
  C  280  1  0.56840700  0.99072100  0.99809500  1
  C  282  1  0.03665300  0.47128700  0.49235200  1
  C  283  1  0.99858300  0.45541000  0.49448800  1
  C  284  1  0.96765000  0.48271100  0.49492000  1
  C  286  1  0.01084900  0.53638800  0.49145000  1
  C  289  1  0.07370600  0.44926700  0.49250600  1
  C  293  1  0.01880400  0.57597600  0.49118600  1
  C  295  1  0.99026200  0.41626700  0.49804300  1
  C  297  1  0.68496800  0.76714800  0.91152160  1
  C  298  1  0.65633900  0.76713600  0.92562660  1
  C  299  1  0.67425900  0.76762500  0.94389060  1
  C  301  1  0.72121000  0.76736800  0.92076160  1
  C  302  1  0.75779600  0.76721600  0.91097560  1
  C  303  1  0.79452100  0.76715000  0.92055460  1
  C  305  1  0.84049000  0.76687400  0.94384960  1
  C  306  1  0.85912600  0.76630000  0.92579760  1
  C  307  1  0.83088000  0.76640600  0.91148460  1
  C  308  1  0.85916000  0.76688000  0.96233660  1
  C  309  1  0.83909900  0.76720000  0.98049060  1
  C  311  1  0.79219500  0.76732900  0.00363000  1
  C  312  1  0.82846600  0.76800300  0.01284800  1
  C  313  1  0.85708200  0.76782600  0.99873359  1
  C  314  1  0.75560300  0.76733800  0.01341700  1
  C  315  1  0.71886600  0.76738100  0.00383400  1
  C  317  1  0.67283900  0.76747400  0.98053360  1
  C  318  1  0.65424400  0.76762000  0.99859959  1
  C  319  1  0.68250800  0.76736500  0.01290900  1
  C  320  1  0.65414200  0.76761400  0.96204260  1
  C  321  1  0.61238700  0.76774300  0.96171660  1
  C  322  1  0.59102100  0.73314700  0.96478360  1
  C  323  1  0.54997600  0.73336800  0.96444160  1
  C  324  1  0.52864400  0.76802300  0.96091460  1
  C  325  1  0.55045300  0.80254400  0.95783360  1
  C  326  1  0.59149000  0.80249100  0.95827660  1
  C  327  1  0.48670900  0.76816100  0.96047360  1
  C  328  1  0.46574100  0.79028000  0.94654160  1
  C  329  1  0.42468700  0.79063900  0.94619560  1
  C  330  1  0.40271400  0.76896500  0.95975560  1
  C  331  1  0.42341100  0.74678000  0.97371660  1
  C  332  1  0.46447400  0.74632000  0.97400160  1
  C  333  1  0.75567400  0.76736900  0.03428400  1
  C  334  1  0.76106300  0.73249200  0.04484300  1
  C  335  1  0.76127800  0.73257400  0.06536400  1
  C  336  1  0.75597800  0.76737200  0.07614500  1
  C  337  1  0.75044100  0.80215900  0.06535600  1
  C  338  1  0.75036600  0.80223600  0.04483200  1
  C  339  1  0.75642100  0.76739200  0.09711400  1
  C  340  1  0.78332800  0.74440500  0.10774600  1
  C  341  1  0.78391000  0.74436600  0.12826700  1
  C  342  1  0.75741600  0.76725800  0.13911900  1
  C  343  1  0.73074800  0.79044500  0.12861600  1
  C  344  1  0.73021400  0.79050100  0.10807900  1
  C  345  1  0.90086060  0.76627100  0.96260960  1
  C  346  1  0.92252860  0.80118700  0.96265660  1
  C  347  1  0.96357960  0.80044900  0.96256060  1
  C  348  1  0.98462460  0.76488000  0.96236360  1
  C  349  1  0.96240060  0.73006700  0.96236560  1
  C  350  1  0.92137360  0.73066400  0.96247860  1
  C  351  1  0.02660900  0.76418900  0.96212860  1
  C  352  1  0.04755000  0.73616600  0.95116860  1
  C  353  1  0.08860700  0.73520800  0.95109360  1
  C  354  1  0.11055500  0.76265300  0.96170460  1
  C  355  1  0.09001600  0.79056600  0.97280260  1
  C  356  1  0.04896500  0.79131700  0.97296060  1
  C  357  1  0.75780000  0.76644600  0.89011700  1
  C  358  1  0.76259400  0.80094000  0.87918000  1
  C  359  1  0.75353100  0.73099000  0.87996000  1
  C  360  1  0.75392100  0.73014200  0.85944900  1
  C  361  1  0.75867100  0.76454600  0.84825300  1
  C  362  1  0.76305600  0.79993300  0.85865800  1
  C  363  1  0.75890500  0.76350500  0.82727100  1
  C  364  1  0.78441200  0.78717700  0.81614500  1
  C  365  1  0.78462400  0.78596700  0.79560700  1
  C  366  1  0.75926600  0.76090000  0.78532100  1
  C  367  1  0.73397400  0.73709000  0.79626900  1
  C  368  1  0.73364400  0.73850300  0.81677200  1
  C  415  1  0.76625000  0.83431300  0.41149200  1
  C  416  1  0.76632100  0.86289700  0.42561800  1
  C  417  1  0.76685900  0.84491700  0.44386800  1
  C  419  1  0.76649000  0.79804500  0.42071000  1
  C  420  1  0.76639800  0.76148900  0.41090300  1
  C  421  1  0.76641100  0.72473200  0.42045100  1
  C  423  1  0.76629100  0.67868300  0.44371100  1
  C  424  1  0.76591100  0.66010800  0.42564000  1
  C  425  1  0.76595000  0.68840400  0.41134800  1
  C  426  1  0.76639000  0.65996100  0.46218600  1
  C  427  1  0.76677900  0.67996500  0.48035700  1
  C  429  1  0.76716300  0.72681100  0.50353100  1
  C  430  1  0.76777200  0.69051400  0.51272500  1
  C  431  1  0.76741900  0.66193600  0.49858900  1
  C  432  1  0.76737500  0.76338100  0.51333900  1
  C  433  1  0.76732300  0.80013900  0.50377600  1
  C  435  1  0.76712600  0.84622400  0.48050800  1
  C  436  1  0.76746300  0.86477900  0.49858300  1
  C  437  1  0.76739700  0.83647800  0.51287200  1
  C  438  1  0.76705300  0.86497300  0.46203300  1
  C  439  1  0.76722200  0.90671960  0.46173300  1
  C  440  1  0.73263700  0.92809360  0.46477300  1
  C  441  1  0.73288100  0.96913660  0.46442800  1
  C  442  1  0.76754900  0.99044362  0.46093000  1
  C  443  1  0.80206500  0.96862160  0.45788900  1
  C  444  1  0.80198700  0.92758360  0.45832400  1
  C  445  1  0.76770300  0.03237200  0.46047700  1
  C  446  1  0.78980600  0.05331600  0.44654900  1
  C  447  1  0.79016000  0.09437000  0.44619000  1
  C  448  1  0.76850400  0.11635800  0.45973200  1
  C  449  1  0.74635000  0.09568200  0.47369200  1
  C  450  1  0.74590800  0.05461900  0.47399900  1
  C  451  1  0.76766400  0.76331300  0.53420600  1
  C  452  1  0.73290600  0.75802000  0.54484500  1
  C  453  1  0.73317300  0.75828300  0.56536600  1
  C  454  1  0.76803900  0.76402100  0.57606500  1
  C  455  1  0.80271600  0.76940500  0.56519900  1
  C  456  1  0.80260800  0.76898400  0.54467700  1
  C  457  1  0.76820900  0.76427300  0.59703100  1
  C  458  1  0.74545400  0.73759000  0.60790200  1
  C  459  1  0.74546900  0.73776300  0.62842500  1
  C  460  1  0.76819100  0.76481400  0.63904700  1
  C  461  1  0.79112400  0.79128400  0.62830000  1
  C  462  1  0.79113200  0.79106100  0.60776000  1
  C  463  1  0.76585200  0.61825000  0.46242700  1
  C  464  1  0.80079800  0.59661900  0.46259900  1
  C  465  1  0.80009100  0.55557100  0.46247700  1
  C  466  1  0.76456800  0.53448000  0.46215800  1
  C  467  1  0.72971800  0.55665900  0.46204000  1
  C  468  1  0.73026800  0.59769600  0.46216200  1
  C  469  1  0.76389900  0.49248200  0.46191900  1
  C  470  1  0.73593500  0.47151600  0.45090900  1
  C  471  1  0.73497900  0.43046200  0.45084000  1
  C  472  1  0.76238800  0.40852200  0.46150300  1
  C  473  1  0.79022900  0.42908000  0.47266100  1
  C  474  1  0.79095700  0.47013300  0.47282700  1
  C  475  1  0.76642600  0.76159200  0.39004500  1
  C  476  1  0.80157200  0.75786500  0.37957400  1
  C  477  1  0.73140100  0.76526800  0.37942700  1
  C  478  1  0.73159600  0.76521400  0.35889900  1
  C  479  1  0.76666500  0.76136500  0.34817800  1
  C  480  1  0.80160900  0.75772800  0.35905600  1
  C  481  1  0.76683500  0.76099400  0.32719400  1
  C  482  1  0.79185100  0.73590700  0.31662000  1
  C  483  1  0.79227800  0.73560800  0.29610200  1
  C  484  1  0.76747000  0.76009400  0.28522300  1
  C  485  1  0.74243000  0.78530600  0.29560000  1
  C  486  1  0.74216000  0.78568900  0.31614200  1
  C  533  1  0.77164800  0.72740400  0.22415500  1
  C  534  1  0.75453700  0.76156200  0.23222800  1
  C  535  1  0.74334200  0.79062400  0.21865600  1
  C  537  1  0.76575100  0.75337200  0.19175000  1
  C  540  1  0.78358800  0.69199300  0.23492200  1
  C  544  1  0.77143500  0.74729600  0.17200900  1
  C  546  1  0.74608500  0.76732200  0.25191800  1
  C  548  1  0.72903100  0.75152800  0.72419300  1
  C  549  1  0.76185100  0.77132000  0.73216800  1
  C  550  1  0.79015400  0.78393800  0.71852300  1
  C  552  1  0.75475800  0.75790100  0.69178000  1
  C  555  1  0.69441400  0.73753100  0.73496200  1
  C  559  1  0.74912200  0.75100100  0.67209600  1
  C  561  1  0.76704200  0.78076900  0.75181200  1
  C  563  1  0.28053300  0.80427100  0.96332960  1
  C  564  1  0.29646300  0.76620200  0.96541760  1
  C  565  1  0.26918600  0.73524900  0.96588960  1
  C  567  1  0.21546200  0.77841400  0.96247160  1
  C  570  1  0.30252100  0.84134100  0.96344160  1
  C  574  1  0.17586800  0.78632800  0.96220260  1
  C  576  1  0.33560900  0.75792300  0.96899360  1
  C  578  1  0.80385500  0.23848900  0.46325100  1
  C  579  1  0.76578500  0.22261200  0.46538700  1
  C  580  1  0.73485200  0.24991300  0.46581900  1
  C  582  1  0.77805100  0.30359000  0.46234900  1
  C  585  1  0.84090800  0.21646900  0.46340500  1
  C  589  1  0.78600600  0.34317800  0.46208500  1
  C  591  1  0.75746400  0.18346900  0.46894200  1
  C  593  1  0.45216900  0.53434900  0.88242000  1
  C  594  1  0.42354000  0.53433700  0.89652500  1
  C  595  1  0.44146000  0.53482600  0.91478920  1
  C  597  1  0.48841100  0.53456900  0.89166000  1
  C  598  1  0.52499700  0.53441700  0.88187400  1
  C  599  1  0.56172200  0.53435100  0.89145300  1
  C  601  1  0.60769100  0.53407500  0.91474820  1
  C  602  1  0.62632700  0.53350100  0.89669600  1
  C  603  1  0.59808100  0.53360700  0.88238300  1
  C  604  1  0.62636100  0.53408100  0.93323520  1
  C  605  1  0.60630000  0.53440100  0.95138920  1
  C  607  1  0.55939600  0.53453000  0.97452820  1
  C  608  1  0.59566700  0.53520400  0.98374620  1
  C  609  1  0.62428300  0.53502700  0.96963220  1
  C  610  1  0.52280400  0.53453900  0.98431520  1
  C  611  1  0.48606700  0.53458200  0.97473220  1
  C  613  1  0.44004000  0.53467500  0.95143220  1
  C  614  1  0.42144500  0.53482100  0.96949820  1
  C  615  1  0.44970900  0.53456600  0.98380720  1
  C  616  1  0.42134300  0.53481500  0.93294120  1
  C  617  1  0.37958800  0.53494400  0.93261520  1
  C  618  1  0.35822200  0.50034800  0.93568220  1
  C  619  1  0.31717700  0.50056900  0.93534020  1
  C  620  1  0.29584500  0.53522400  0.93181320  1
  C  621  1  0.31765400  0.56974500  0.92873220  1
  C  622  1  0.35869100  0.56969200  0.92917520  1
  C  623  1  0.25391000  0.53536200  0.93137220  1
  C  624  1  0.23294200  0.55748100  0.91744020  1
  C  625  1  0.19188800  0.55784000  0.91709420  1
  C  626  1  0.16991500  0.53616600  0.93065420  1
  C  627  1  0.19061200  0.51398100  0.94461520  1
  C  628  1  0.23167500  0.51352100  0.94490020  1
  C  629  1  0.52287500  0.53457000  0.00518200  1
  C  630  1  0.52826400  0.49969300  0.01574100  1
  C  631  1  0.52847900  0.49977500  0.03626200  1
  C  632  1  0.52317900  0.53457300  0.04704300  1
  C  633  1  0.51764200  0.56936000  0.03625400  1
  C  634  1  0.51756700  0.56943700  0.01573000  1
  C  635  1  0.52362200  0.53459300  0.06801200  1
  C  636  1  0.55052900  0.51160600  0.07864400  1
  C  637  1  0.55111100  0.51156700  0.09916500  1
  C  638  1  0.52461700  0.53445900  0.11001700  1
  C  639  1  0.49794900  0.55764600  0.09951400  1
  C  640  1  0.49741500  0.55770200  0.07897700  1
  C  641  1  0.66806200  0.53347200  0.93350820  1
  C  642  1  0.68973000  0.56838800  0.93355520  1
  C  643  1  0.73078100  0.56765000  0.93345920  1
  C  644  1  0.75182600  0.53208100  0.93326220  1
  C  645  1  0.72960200  0.49726800  0.93326420  1
  C  646  1  0.68857500  0.49786500  0.93337720  1
  C  647  1  0.79381000  0.53139000  0.93302720  1
  C  648  1  0.81475100  0.50336700  0.92206720  1
  C  649  1  0.85580800  0.50240900  0.92199220  1
  C  650  1  0.87775600  0.52985400  0.93260320  1
  C  651  1  0.85721700  0.55776700  0.94370120  1
  C  652  1  0.81616600  0.55851800  0.94385920  1
  C  653  1  0.52500100  0.53364700  0.86101500  1
  C  654  1  0.52979500  0.56814100  0.85007800  1
  C  655  1  0.52073200  0.49819100  0.85085800  1
  C  656  1  0.52112200  0.49734300  0.83034700  1
  C  657  1  0.52587200  0.53174700  0.81915100  1
  C  658  1  0.53025700  0.56713400  0.82955600  1
  C  659  1  0.52610600  0.53070600  0.79816900  1
  C  660  1  0.55161300  0.55437800  0.78704300  1
  C  661  1  0.55182500  0.55316800  0.76650500  1
  C  662  1  0.52646700  0.52810100  0.75621900  1
  C  663  1  0.50117500  0.50429100  0.76716700  1
  C  664  1  0.50084500  0.50570400  0.78767000  1
  C  711  1  0.53345100  0.60151400  0.38239000  1
  C  712  1  0.53352200  0.63009800  0.39651600  1
  C  713  1  0.53406000  0.61211800  0.41476600  1
  C  715  1  0.53369100  0.56524600  0.39160800  1
  C  716  1  0.53359900  0.52869000  0.38180100  1
  C  717  1  0.53361200  0.49193300  0.39134900  1
  C  719  1  0.53349200  0.44588400  0.41460900  1
  C  720  1  0.53311200  0.42730900  0.39653800  1
  C  721  1  0.53315100  0.45560500  0.38224600  1
  C  722  1  0.53359100  0.42716200  0.43308400  1
  C  723  1  0.53398000  0.44716600  0.45125500  1
  C  725  1  0.53436400  0.49401200  0.47442900  1
  C  726  1  0.53497300  0.45771500  0.48362300  1
  C  727  1  0.53462000  0.42913700  0.46948700  1
  C  728  1  0.53457600  0.53058200  0.48423700  1
  C  729  1  0.53452400  0.56734000  0.47467400  1
  C  731  1  0.53432700  0.61342500  0.45140600  1
  C  732  1  0.53466400  0.63198000  0.46948100  1
  C  733  1  0.53459800  0.60367900  0.48377000  1
  C  734  1  0.53425400  0.63217400  0.43293100  1
  C  735  1  0.53442300  0.67392100  0.43263100  1
  C  736  1  0.49983800  0.69529500  0.43567100  1
  C  737  1  0.50008200  0.73633800  0.43532600  1
  C  738  1  0.53475000  0.75764500  0.43182800  1
  C  739  1  0.56926600  0.73582300  0.42878700  1
  C  740  1  0.56918800  0.69478500  0.42922200  1
  C  741  1  0.53490400  0.79957300  0.43137500  1
  C  742  1  0.55700700  0.82051700  0.41744700  1
  C  743  1  0.55736100  0.86157100  0.41708800  1
  C  744  1  0.53570500  0.88355900  0.43063000  1
  C  745  1  0.51355100  0.86288300  0.44459000  1
  C  746  1  0.51310900  0.82182000  0.44489700  1
  C  747  1  0.53486500  0.53051400  0.50510400  1
  C  748  1  0.50010700  0.52522100  0.51574300  1
  C  749  1  0.50037400  0.52548400  0.53626400  1
  C  750  1  0.53524000  0.53122200  0.54696300  1
  C  751  1  0.56991700  0.53660600  0.53609700  1
  C  752  1  0.56980900  0.53618500  0.51557500  1
  C  753  1  0.53541000  0.53147400  0.56792900  1
  C  754  1  0.51265500  0.50479100  0.57880000  1
  C  755  1  0.51267000  0.50496400  0.59932300  1
  C  756  1  0.53539200  0.53201500  0.60994500  1
  C  757  1  0.55832500  0.55848500  0.59919800  1
  C  758  1  0.55833300  0.55826200  0.57865800  1
  C  759  1  0.53305300  0.38545100  0.43332500  1
  C  760  1  0.56799900  0.36382000  0.43349700  1
  C  761  1  0.56729200  0.32277200  0.43337500  1
  C  762  1  0.53176900  0.30168100  0.43305600  1
  C  763  1  0.49691900  0.32386000  0.43293800  1
  C  764  1  0.49746900  0.36489700  0.43306000  1
  C  765  1  0.53110000  0.25968300  0.43281700  1
  C  766  1  0.50313600  0.23871700  0.42180700  1
  C  767  1  0.50218000  0.19766300  0.42173800  1
  C  768  1  0.52958900  0.17572300  0.43240100  1
  C  769  1  0.55743000  0.19628100  0.44355900  1
  C  770  1  0.55815800  0.23733400  0.44372500  1
  C  771  1  0.53362700  0.52879300  0.36094300  1
  C  772  1  0.56877300  0.52506600  0.35047200  1
  C  773  1  0.49860200  0.53246900  0.35032500  1
  C  774  1  0.49879700  0.53241500  0.32979700  1
  C  775  1  0.53386600  0.52856600  0.31907600  1
  C  776  1  0.56881000  0.52492900  0.32995400  1
  C  777  1  0.53403600  0.52819500  0.29809200  1
  C  778  1  0.55905200  0.50310800  0.28751800  1
  C  779  1  0.55947900  0.50280900  0.26700000  1
  C  780  1  0.53467100  0.52729500  0.25612100  1
  C  781  1  0.50963100  0.55250700  0.26649800  1
  C  782  1  0.50936100  0.55289000  0.28704000  1
  C  829  1  0.53884900  0.49460500  0.19505300  1
  C  830  1  0.52173800  0.52876300  0.20312600  1
  C  831  1  0.51054300  0.55782500  0.18955400  1
  C  833  1  0.53295200  0.52057300  0.16264800  1
  C  836  1  0.55078900  0.45919400  0.20582000  1
  C  840  1  0.53863600  0.51449700  0.14290700  1
  C  842  1  0.51328600  0.53452300  0.22281600  1
  C  844  1  0.49623200  0.51872900  0.69509100  1
  C  845  1  0.52905200  0.53852100  0.70306600  1
  C  846  1  0.55735500  0.55113900  0.68942100  1
  C  848  1  0.52195900  0.52510200  0.66267800  1
  C  851  1  0.46161500  0.50473200  0.70586000  1
  C  855  1  0.51632300  0.51820200  0.64299400  1
  C  857  1  0.53424300  0.54797000  0.72271000  1
  C  859  1  0.04773400  0.57147200  0.93422820  1
  C  860  1  0.06366400  0.53340300  0.93631620  1
  C  861  1  0.03638700  0.50245000  0.93678820  1
  C  863  1  0.98266320  0.54561500  0.93337020  1
  C  866  1  0.06972200  0.60854200  0.93434020  1
  C  870  1  0.94306920  0.55352900  0.93310120  1
  C  872  1  0.10281000  0.52512400  0.93989220  1
  C  874  1  0.57105600  0.00569000  0.43414900  1
  C  875  1  0.53298600  0.98981320  0.43628500  1
  C  876  1  0.50205300  0.01711400  0.43671700  1
  C  878  1  0.54525200  0.07079100  0.43324700  1
  C  881  1  0.60810900  0.98367020  0.43430300  1
  C  885  1  0.55320700  0.11037900  0.43298300  1
  C  887  1  0.52466500  0.95067020  0.43984000  1
  N  4  1  0.94586600  0.00054600  0.96920700  1
  N  8  1  0.03468000  0.00020600  0.96901200  1
  N  14  1  0.03309600  0.99973600  0.01338700  1
  N  20  1  0.94426100  0.00019500  0.01357600  1
  N  115  1  0.59661200  0.00482300  0.98793800  1
  N  116  1  0.99039200  0.99070800  0.79501100  1
  N  117  1  0.38225900  0.99251200  0.99066400  1
  N  118  1  0.98891100  0.00155000  0.18774300  1
  N  122  1  0.99968500  0.03891900  0.46915900  1
  N  126  1  0.99939100  0.95010400  0.46890300  1
  N  132  1  0.99943600  0.95155200  0.51328300  1
  N  138  1  0.99990200  0.04038800  0.51352400  1
  N  233  1  0.00438500  0.38804900  0.48791400  1
  N  234  1  0.00229400  0.99062500  0.29489300  1
  N  235  1  0.99221700  0.60240800  0.49047800  1
  N  236  1  0.00239400  0.99980100  0.68766200  1
  N  240  1  0.98180800  0.01869500  0.22831300  1
  N  242  1  0.00933200  0.95795400  0.23361700  1
  N  255  1  0.01877400  0.00997700  0.72823000  1
  N  257  1  0.96009800  0.97848800  0.73370900  1
  N  270  1  0.46306900  0.97478300  0.99363300  1
  N  272  1  0.47398000  0.04123000  0.99110300  1
  N  285  1  0.97441900  0.52161300  0.49353000  1
  N  287  1  0.04084100  0.51063600  0.49100100  1
  N  300  1  0.71306800  0.76774800  0.94010560  1
  N  304  1  0.80188200  0.76740800  0.93991060  1
  N  310  1  0.80029800  0.76693800  0.98428560  1
  N  316  1  0.71146300  0.76739700  0.98447460  1
  N  411  1  0.36381400  0.77202500  0.95883660  1
  N  412  1  0.75759400  0.75791000  0.76591000  1
  N  413  1  0.14946100  0.75971400  0.96156260  1
  N  414  1  0.75611300  0.76875200  0.15864200  1
  N  418  1  0.76688700  0.80612100  0.44005800  1
  N  422  1  0.76659300  0.71730600  0.43980200  1
  N  428  1  0.76663800  0.71875400  0.48418200  1
  N  434  1  0.76710400  0.80759000  0.48442300  1
  N  529  1  0.77158700  0.15525100  0.45881300  1
  N  530  1  0.76949600  0.75782700  0.26579200  1
  N  531  1  0.75941900  0.36961000  0.46137700  1
  N  532  1  0.76959600  0.76700300  0.65856100  1
  N  536  1  0.74901000  0.78589700  0.19921200  1
  N  538  1  0.77653400  0.72515600  0.20451600  1
  N  551  1  0.78597600  0.77717900  0.69912900  1
  N  553  1  0.72730000  0.74569000  0.70460800  1
  N  566  1  0.23027100  0.74198500  0.96453160  1
  N  568  1  0.24118200  0.80843200  0.96200160  1
  N  581  1  0.74162100  0.28881500  0.46442900  1
  N  583  1  0.80804300  0.27783800  0.46190000  1
  N  596  1  0.48026900  0.53494900  0.91100420  1
  N  600  1  0.56908300  0.53460900  0.91080920  1
  N  606  1  0.56749900  0.53413900  0.95518420  1
  N  612  1  0.47866400  0.53459800  0.95537320  1
  N  707  1  0.13101500  0.53922600  0.92973520  1
  N  708  1  0.52479500  0.52511100  0.73680800  1
  N  709  1  0.91666220  0.52691500  0.93246120  1
  N  710  1  0.52331400  0.53595300  0.12954000  1
  N  714  1  0.53408800  0.57332200  0.41095600  1
  N  718  1  0.53379400  0.48450700  0.41070000  1
  N  724  1  0.53383900  0.48595500  0.45508000  1
  N  730  1  0.53430500  0.57479100  0.45532100  1
  N  825  1  0.53878800  0.92245220  0.42971100  1
  N  826  1  0.53669700  0.52502800  0.23669000  1
  N  827  1  0.52662000  0.13681100  0.43227500  1
  N  828  1  0.53679700  0.53420400  0.62945900  1
  N  832  1  0.51621100  0.55309800  0.17011000  1
  N  834  1  0.54373500  0.49235700  0.17541400  1
  N  847  1  0.55317700  0.54438000  0.67002700  1
  N  849  1  0.49450100  0.51289100  0.67550600  1
  N  862  1  0.99747224  0.50918600  0.93543020  1
  N  864  1  0.00838300  0.57563300  0.93290020  1
  N  877  1  0.50882200  0.05601600  0.43532700  1
  N  879  1  0.57524400  0.04503900  0.43279800  1
