# generated using pymatgen
data_H8C14N5O4
_symmetry_space_group_name_H-M   'P 1'
_cell_length_a   55.99893466
_cell_length_b   55.99893466
_cell_length_c   55.99893466
_cell_angle_alpha   109.47122063
_cell_angle_beta   109.47122063
_cell_angle_gamma   109.47122063
_symmetry_Int_Tables_number   1
_chemical_formula_structural   H8C14N5O4
_chemical_formula_sum   'H384 C672 N240 O192'
_cell_volume   135181.54448276
_cell_formula_units_Z   48
loop_
 _symmetry_equiv_pos_site_id
 _symmetry_equiv_pos_as_xyz
  1  'x, y, z'
loop_
 _atom_site_type_symbol
 _atom_site_label
 _atom_site_symmetry_multiplicity
 _atom_site_fract_x
 _atom_site_fract_y
 _atom_site_fract_z
 _atom_site_occupancy
  C  1  1  0.41207250  0.90518500  0.75902050  1
  C  2  1  0.39407050  0.91667550  0.76384000  1
  C  3  1  0.36640600  0.89942550  0.75965050  1
  C  4  1  0.35682950  0.86981350  0.75287200  1
  C  5  1  0.37604200  0.85852250  0.75137550  1
  C  6  1  0.40225800  0.87585600  0.75299100  1
  C  9  1  0.43820650  0.92212250  0.75902700  1
  C  10  1  0.44199100  0.94541850  0.75299250  1
  C  11  1  0.46660150  0.96114150  0.75139600  1
  C  12  1  0.48730400  0.95133950  0.75288250  1
  C  13  1  0.48451250  0.92852150  0.75968100  1
  C  14  1  0.46104350  0.91547300  0.76388650  1
  C  23  1  0.49998950  0.91402150  0.75620100  1
  C  24  1  0.37119900  0.83164150  0.74966750  1
  C  25  1  0.34741700  0.91039700  0.75614900  1
  C  26  1  0.46974150  0.98631800  0.74969750  1
  C  31  1  0.74750150  0.42672900  0.57291150  1
  C  32  1  0.76548300  0.44956250  0.60240150  1
  C  33  1  0.79315450  0.47302400  0.61281450  1
  C  34  1  0.80274450  0.47583200  0.59279150  1
  C  35  1  0.78352850  0.45512750  0.56228800  1
  C  36  1  0.75732050  0.43051550  0.55340200  1
  C  39  1  0.72137350  0.40059600  0.56371450  1
  C  40  1  0.71758450  0.39078300  0.58322750  1
  C  41  1  0.69297450  0.36457500  0.57434150  1
  C  42  1  0.67227050  0.34535800  0.54383850  1
  C  43  1  0.67507600  0.35493150  0.52380250  1
  C  44  1  0.69855150  0.38259700  0.53422150  1
  C  53  1  0.65958100  0.33595650  0.49383650  1
  C  54  1  0.78836150  0.45826350  0.54024900  1
  C  55  1  0.81212650  0.48851950  0.64278400  1
  C  56  1  0.68983400  0.35974800  0.59638200  1
  C  61  1  0.93361600  0.23141600  0.56371600  1
  C  62  1  0.92697450  0.21989950  0.53423300  1
  C  63  1  0.93999700  0.23715450  0.52380050  1
  C  64  1  0.96282150  0.26677200  0.54382750  1
  C  65  1  0.97262550  0.27806800  0.57433350  1
  C  66  1  0.95690600  0.26074700  0.58322400  1
  C  69  1  0.91667650  0.21448200  0.57291050  1
  C  70  1  0.88735050  0.19117950  0.55339200  1
  C  71  1  0.87002000  0.17545800  0.56227300  1
  C  72  1  0.88130250  0.18525550  0.59277600  1
  C  73  1  0.91091200  0.20809250  0.61281250  1
  C  74  1  0.92817050  0.22114600  0.60240150  1
  C  83  1  0.92187900  0.22257050  0.64277150  1
  C  84  1  0.99778900  0.30495750  0.59636750  1
  C  85  1  0.92552150  0.22613050  0.49382400  1
  C  86  1  0.84314250  0.15027750  0.54023200  1
  C  91  1  0.22597750  0.70989400  0.37760350  1
  C  92  1  0.23264150  0.68706600  0.37276950  1
  C  93  1  0.21959150  0.66360100  0.37697550  1
  C  94  1  0.19674750  0.66079350  0.38373800  1
  C  95  1  0.18694200  0.68149300  0.38521300  1
  C  96  1  0.20267200  0.70610450  0.38362050  1
  C  99  1  0.24290950  0.73602200  0.37759950  1
  C  100  1  0.27224150  0.74584500  0.38363850  1
  C  101  1  0.28956200  0.77205600  0.38524000  1
  C  102  1  0.27826850  0.79126800  0.38374550  1
  C  103  1  0.24865250  0.78167500  0.37696750  1
  C  104  1  0.23139550  0.75399300  0.37273150  1
  C  113  1  0.23765100  0.80064400  0.38041400  1
  C  114  1  0.16175550  0.67834800  0.38688850  1
  C  115  1  0.23406650  0.64811150  0.38046500  1
  C  116  1  0.31645050  0.77690850  0.38696400  1
  C  121  1  0.72137350  0.37761450  0.21449600  1
  C  122  1  0.69855150  0.37279150  0.22116700  1
  C  123  1  0.67507600  0.37698100  0.20811000  1
  C  124  1  0.67227050  0.38375050  0.18527000  1
  C  125  1  0.69297450  0.38523600  0.17546950  1
  C  126  1  0.71758350  0.38363700  0.19119350  1
  C  129  1  0.74750150  0.37760950  0.23142700  1
  C  130  1  0.75732100  0.38364350  0.26075650  1
  C  131  1  0.78352850  0.38523750  0.27807700  1
  C  132  1  0.80274350  0.38374800  0.26678950  1
  C  133  1  0.79315400  0.37696700  0.23717700  1
  C  134  1  0.76548300  0.37275800  0.21991900  1
  C  143  1  0.81212600  0.38044300  0.22617900  1
  C  144  1  0.68983400  0.38692300  0.15028900  1
  C  145  1  0.65958050  0.38046250  0.22258200  1
  C  146  1  0.78836200  0.38693450  0.30494950  1
  C  151  1  0.24290950  0.56372550  0.92214800  1
  C  152  1  0.23139550  0.53423950  0.91550100  1
  C  153  1  0.24865450  0.52381550  0.92852300  1
  C  154  1  0.27826850  0.54383700  0.95135950  1
  C  155  1  0.28956200  0.57434350  0.96115950  1
  C  156  1  0.27224150  0.58323250  0.94543800  1
  C  159  1  0.22597850  0.57292200  0.90521150  1
  C  160  1  0.20267350  0.55340600  0.87588850  1
  C  161  1  0.18694400  0.56228700  0.85856700  1
  C  162  1  0.19674750  0.59279100  0.86984650  1
  C  163  1  0.21959150  0.61282800  0.89945350  1
  C  164  1  0.23264150  0.60241250  0.91670900  1
  C  173  1  0.23406650  0.64279200  0.91043850  1
  C  174  1  0.31645050  0.59637900  0.98632350  1
  C  175  1  0.23765200  0.49384400  0.91407300  1
  C  176  1  0.16175600  0.54024500  0.83170400  1
  C  181  1  0.43820650  0.57292050  0.73601600  1
  C  182  1  0.46104350  0.60240800  0.75399450  1
  C  183  1  0.48451250  0.61282800  0.78166850  1
  C  184  1  0.48730400  0.59280150  0.79125850  1
  C  185  1  0.46660150  0.56229700  0.77204250  1
  C  186  1  0.44199150  0.55341000  0.74583550  1
  C  189  1  0.41207250  0.56372400  0.70988850  1
  C  190  1  0.40225800  0.58323850  0.70610350  1
  C  191  1  0.37604200  0.57435650  0.68150350  1
  C  192  1  0.35682950  0.54385250  0.66079400  1
  C  193  1  0.36640600  0.52381800  0.66359300  1
  C  194  1  0.39407050  0.53423200  0.68706750  1
  C  203  1  0.34741800  0.49385800  0.64810500  1
  C  204  1  0.46974150  0.54026050  0.77688100  1
  C  205  1  0.49998950  0.64280550  0.80062600  1
  C  206  1  0.37119900  0.59639450  0.67836850  1
  C  211  1  0.91667650  0.75903100  0.40060250  1
  C  212  1  0.92817050  0.76386150  0.38260600  1
  C  213  1  0.91091250  0.75965600  0.35493650  1
  C  214  1  0.88130250  0.75288400  0.34536350  1
  C  215  1  0.87002000  0.75139900  0.36458400  1
  C  216  1  0.88735050  0.75300700  0.39079450  1
  C  219  1  0.93361600  0.75903700  0.42673700  1
  C  220  1  0.95690600  0.75299600  0.43051900  1
  C  221  1  0.97262500  0.75139400  0.45512900  1
  C  222  1  0.96282150  0.75288600  0.47583050  1
  C  223  1  0.93999700  0.75967950  0.47303350  1
  C  224  1  0.92697500  0.76391200  0.44957900  1
  C  233  1  0.92552150  0.75622850  0.48853500  1
  C  234  1  0.84314250  0.74970100  0.35974650  1
  C  235  1  0.92187800  0.75614550  0.33594350  1
  C  236  1  0.99778900  0.74966900  0.45825900  1
  C  241  1  0.57520200  0.92214800  0.23143700  1
  C  242  1  0.54571500  0.91549200  0.21993600  1
  C  243  1  0.53528550  0.92851950  0.23718800  1
  C  244  1  0.55532000  0.95136800  0.26679600  1
  C  245  1  0.58582600  0.96116800  0.27808800  1
  C  246  1  0.59471350  0.94544350  0.26076700  1
  C  249  1  0.58439550  0.90521150  0.21450100  1
  C  250  1  0.56487900  0.87588650  0.19119650  1
  C  251  1  0.57375900  0.85856700  0.17546100  1
  C  252  1  0.60426350  0.86984500  0.18526450  1
  C  253  1  0.62430000  0.89945050  0.20811250  1
  C  254  1  0.61388450  0.91671000  0.22115750  1
  C  263  1  0.65426600  0.91043750  0.22258750  1
  C  264  1  0.60786500  0.98634100  0.30496900  1
  C  265  1  0.50531900  0.91407150  0.22619250  1
  C  266  1  0.55171600  0.83170700  0.15027200  1
  C  271  1  0.38908650  0.21449700  0.70989650  1
  C  272  1  0.38424200  0.22115850  0.68706650  1
  C  273  1  0.38844650  0.20810800  0.66360250  1
  C  274  1  0.39523050  0.18527900  0.66079550  1
  C  275  1  0.39672000  0.17547900  0.68150100  1
  C  276  1  0.39511650  0.19119750  0.70610900  1
  C  279  1  0.38908650  0.23142700  0.73602750  1
  C  280  1  0.39511750  0.26075550  0.74584400  1
  C  281  1  0.39672000  0.27807800  0.77205600  1
  C  282  1  0.39523050  0.26678850  0.79127200  1
  C  283  1  0.38844700  0.23717650  0.78168150  1
  C  284  1  0.38424300  0.21992150  0.75401250  1
  C  293  1  0.39192300  0.22617900  0.80065300  1
  C  294  1  0.39842050  0.15030700  0.67836550  1
  C  295  1  0.39192200  0.22258100  0.64810600  1
  C  296  1  0.39842050  0.30495200  0.77689350  1
  C  301  1  0.77051050  0.40060700  0.90520550  1
  C  302  1  0.77535900  0.38262300  0.91671000  1
  C  303  1  0.77116150  0.35495350  0.89945800  1
  C  304  1  0.76434800  0.34535950  0.86983750  1
  C  305  1  0.76285300  0.36456950  0.85854250  1
  C  306  1  0.76447350  0.39078850  0.87587500  1
  C  309  1  0.77051050  0.42673900  0.92214050  1
  C  310  1  0.76447350  0.43052050  0.94543400  1
  C  311  1  0.76285300  0.45512050  0.96114750  1
  C  312  1  0.76434800  0.47582500  0.95134700  1
  C  313  1  0.77116150  0.47304450  0.92854000  1
  C  314  1  0.77535900  0.44957200  0.91548500  1
  C  323  1  0.76765900  0.48851200  0.91403800  1
  C  324  1  0.76112700  0.35971350  0.83165250  1
  C  325  1  0.76765900  0.33598350  0.91045750  1
  C  326  1  0.76112700  0.45825000  0.98631100  1
  C  331  1  0.58439550  0.73602200  0.42673250  1
  C  332  1  0.61388500  0.75401150  0.44956450  1
  C  333  1  0.62430100  0.78168650  0.47302550  1
  C  334  1  0.60426350  0.79125550  0.47583600  1
  C  335  1  0.57375850  0.77202950  0.45513500  1
  C  336  1  0.56487900  0.74582900  0.43052000  1
  C  339  1  0.57520200  0.70989050  0.40060150  1
  C  340  1  0.59471350  0.70610650  0.39078300  1
  C  341  1  0.58582600  0.68149450  0.36457450  1
  C  342  1  0.55532000  0.66078950  0.34536150  1
  C  343  1  0.53528550  0.66360350  0.35493500  1
  C  344  1  0.54571500  0.68706000  0.38261600  1
  C  353  1  0.50531900  0.64808450  0.33596350  1
  C  354  1  0.55171600  0.77684700  0.45828200  1
  C  355  1  0.65426600  0.80066600  0.48851600  1
  C  356  1  0.60786500  0.67836050  0.35973250  1
  C  721  1  0.74976700  0.23415100  0.38251100  1
  C  722  1  0.76748900  0.22289950  0.37636350  1
  C  723  1  0.79359150  0.24003350  0.37791100  1
  C  724  1  0.80209500  0.26940600  0.38415800  1
  C  725  1  0.78354000  0.28077150  0.38844650  1
  C  726  1  0.75862550  0.26334950  0.38860000  1
  C  729  1  0.72400150  0.21666750  0.38249900  1
  C  730  1  0.72123150  0.19357050  0.38860800  1
  C  731  1  0.69615150  0.17599350  0.38843600  1
  C  732  1  0.67330600  0.18306750  0.38413050  1
  C  733  1  0.67555650  0.20617100  0.37784950  1
  C  734  1  0.70012050  0.22175300  0.37631050  1
  C  743  1  0.65430950  0.21425350  0.37271500  1
  C  744  1  0.78755450  0.30783950  0.39133800  1
  C  745  1  0.80972550  0.22683800  0.37279250  1
  C  746  1  0.69503150  0.15183850  0.39136700  1
  C  751  1  0.40979450  0.71255100  0.56416950  1
  C  752  1  0.39209400  0.68867700  0.53519900  1
  C  753  1  0.36599700  0.66411000  0.52621900  1
  C  754  1  0.35747950  0.66184400  0.54707750  1
  C  755  1  0.37602200  0.68468950  0.57699850  1
  C  756  1  0.40092500  0.70977350  0.58450050  1
  C  759  1  0.43555650  0.73831250  0.57246000  1
  C  760  1  0.43833400  0.74718450  0.55213050  1
  C  761  1  0.46341500  0.77208900  0.55963100  1
  C  762  1  0.48626000  0.79062950  0.58955150  1
  C  763  1  0.48399350  0.78211600  0.61041050  1
  C  764  1  0.45942900  0.75601450  0.60143150  1
  C  773  1  0.50526100  0.79821350  0.63973250  1
  C  774  1  0.37198450  0.68356100  0.60003750  1
  C  775  1  0.34990650  0.64283750  0.49690100  1
  C  776  1  0.46454200  0.77612350  0.53659050  1
  C  781  1  0.22812100  0.90250150  0.57244750  1
  C  782  1  0.23320350  0.91376200  0.60141350  1
  C  783  1  0.21762000  0.89663200  0.61038700  1
  C  784  1  0.19452400  0.86724500  0.58952700  1
  C  785  1  0.18744200  0.85587750  0.55960450  1
  C  786  1  0.20501950  0.87329850  0.55211200  1
  C  789  1  0.24560950  0.91998150  0.56417600  1
  C  790  1  0.27481050  0.94308500  0.58452050  1
  C  791  1  0.29223950  0.96066200  0.57703450  1
  C  792  1  0.28088300  0.95358600  0.54711400  1
  C  793  1  0.25150350  0.93047600  0.52624250  1
  C  794  1  0.23436450  0.91489000  0.53520750  1
  C  803  1  0.23833200  0.92236350  0.49690250  1
  C  804  1  0.16328150  0.82879200  0.53656050  1
  C  805  1  0.22573050  0.90982500  0.63972550  1
  C  806  1  0.31931450  0.98482450  0.60008600  1
  C  811  1  0.93143500  0.42410250  0.75412050  1
  C  812  1  0.92634450  0.44798100  0.76029250  1
  C  813  1  0.94192750  0.47253850  0.75874800  1
  C  814  1  0.96504250  0.47479200  0.75248350  1
  C  815  1  0.97211800  0.45194650  0.74819150  1
  C  816  1  0.95453550  0.42686900  0.74801850  1
  C  819  1  0.91395600  0.39834500  0.75412100  1
  C  820  1  0.88475800  0.38948450  0.74803450  1
  C  821  1  0.86734200  0.36457750  0.74820150  1
  C  822  1  0.87870800  0.34602050  0.75248450  1
  C  823  1  0.90808600  0.35453300  0.75874600  1
  C  824  1  0.92521450  0.38063300  0.76028450  1
  C  833  1  0.92129350  0.33841200  0.76388150  1
  C  834  1  0.99627400  0.45306150  0.74526550  1
  C  835  1  0.93384850  0.49378900  0.76387250  1
  C  836  1  0.84026600  0.36055100  0.74529900  1
  C  841  1  0.43555550  0.75407950  0.91993300  1
  C  842  1  0.45942850  0.76025100  0.91483450  1
  C  843  1  0.48399350  0.75871450  0.93042000  1
  C  844  1  0.48625950  0.75246650  0.95354500  1
  C  845  1  0.46341450  0.74816250  0.96062100  1
  C  846  1  0.43833350  0.74798600  0.94304050  1
  C  849  1  0.40979450  0.75408050  0.90246200  1
  C  850  1  0.40092400  0.74798800  0.87326200  1
  C  851  1  0.37602100  0.74816850  0.85585950  1
  C  852  1  0.35747900  0.75247250  0.86723850  1
  C  853  1  0.36599700  0.75872400  0.89661500  1
  C  854  1  0.39209400  0.76025400  0.91373200  1
  C  863  1  0.34990700  0.76390600  0.90984200  1
  C  864  1  0.46454150  0.74525500  0.98478850  1
  C  865  1  0.50526100  0.76388350  0.92236650  1
  C  866  1  0.37198450  0.74526050  0.82878400  1
  C  871  1  0.91395800  0.57244850  0.21667050  1
  C  872  1  0.92521600  0.60141900  0.22176600  1
  C  873  1  0.90808650  0.61038950  0.20617600  1
  C  874  1  0.87870850  0.58952400  0.18305950  1
  C  875  1  0.86734250  0.55960100  0.17597650  1
  C  876  1  0.88475950  0.55211100  0.19355950  1
  C  879  1  0.93143650  0.56417000  0.23415050  1
  C  880  1  0.95453750  0.58450400  0.26335450  1
  C  881  1  0.97211700  0.57700850  0.28076450  1
  C  882  1  0.96504000  0.54708750  0.26939650  1
  C  883  1  0.94192700  0.52622550  0.24001650  1
  C  884  1  0.92634700  0.53520100  0.22288900  1
  C  893  1  0.93384700  0.49689650  0.22681250  1
  C  894  1  0.84026700  0.53655200  0.15180400  1
  C  895  1  0.92129450  0.63972000  0.21424950  1
  C  896  1  0.99627200  0.60004850  0.30784850  1
  C  901  1  0.72400150  0.56417050  0.39833900  1
  C  902  1  0.70012050  0.53520450  0.38064700  1
  C  903  1  0.67555700  0.52622250  0.35454350  1
  C  904  1  0.67330600  0.54707600  0.34601300  1
  C  905  1  0.69615150  0.57699500  0.36455250  1
  C  906  1  0.72123150  0.58449900  0.38946150  1
  C  909  1  0.74976700  0.57245200  0.42409200  1
  C  910  1  0.75862550  0.55211300  0.42686250  1
  C  911  1  0.78354000  0.55960600  0.45193100  1
  C  912  1  0.80209500  0.58952600  0.47477400  1
  C  913  1  0.79359150  0.61039550  0.47251800  1
  C  914  1  0.76748850  0.60142600  0.44796250  1
  C  923  1  0.80972550  0.63972450  0.49377000  1
  C  924  1  0.69503200  0.60002950  0.36050150  1
  C  925  1  0.65430950  0.49689300  0.33843150  1
  C  926  1  0.78755450  0.53655200  0.45305350  1
  C  931  1  0.24561000  0.38246500  0.73827000  1
  C  932  1  0.23436500  0.37631400  0.75599400  1
  C  933  1  0.25150600  0.37787150  0.78210050  1
  C  934  1  0.28088500  0.38414000  0.79060900  1
  C  935  1  0.29224100  0.38841800  0.77204400  1
  C  936  1  0.27481050  0.38856300  0.74712750  1
  C  939  1  0.22811900  0.38245400  0.71250800  1
  C  940  1  0.20501850  0.38855600  0.70974350  1
  C  941  1  0.18744200  0.38839950  0.68467450  1
  C  942  1  0.19452250  0.38411450  0.66183200  1
  C  943  1  0.21761950  0.37782450  0.66406900  1
  C  944  1  0.23320250  0.37627600  0.68862550  1
  C  953  1  0.22573050  0.37274050  0.64284000  1
  C  954  1  0.31931800  0.39133200  0.77606900  1
  C  955  1  0.23833350  0.37280600  0.79826750  1
  C  956  1  0.16328200  0.39132550  0.68355850  1
  C  961  1  0.58392750  0.21667400  0.90247750  1
  C  962  1  0.61289750  0.22177050  0.91373300  1
  C  963  1  0.62186900  0.20618200  0.89660500  1
  C  964  1  0.60100150  0.18305800  0.86722850  1
  C  965  1  0.57107800  0.17597700  0.85586300  1
  C  966  1  0.56358950  0.19356100  0.87328050  1
  C  969  1  0.57564650  0.23415200  0.91995550  1
  C  970  1  0.59598100  0.26335450  0.94305850  1
  C  971  1  0.58848650  0.28076250  0.96064300  1
  C  972  1  0.55856700  0.26939500  0.95356900  1
  C  973  1  0.53770300  0.24001700  0.93045000  1
  C  974  1  0.54667750  0.22289050  0.91486400  1
  C  983  1  0.50837600  0.22681150  0.92237550  1
  C  984  1  0.54802750  0.15180050  0.82879100  1
  C  985  1  0.65119800  0.21425800  0.90980800  1
  C  986  1  0.61152850  0.30784200  0.98480250  1
  C  991  1  0.76556050  0.91993400  0.42407850  1
  C  992  1  0.77173650  0.91483900  0.44795450  1
  C  993  1  0.77020450  0.93042600  0.47252050  1
  C  994  1  0.76394650  0.95354600  0.47478350  1
  C  995  1  0.75964200  0.96061950  0.45193750  1
  C  996  1  0.75946350  0.94303900  0.42685450  1
  C  999  1  0.76556050  0.90246250  0.39831800  1
  C  1000  1  0.75946450  0.87326100  0.38944650  1
  C  1001  1  0.75964300  0.85585950  0.36454250  1
  C  1002  1  0.76394650  0.86723750  0.34600000  1
  C  1003  1  0.77020350  0.89661550  0.35452000  1
  C  1004  1  0.77173650  0.91373450  0.38061900  1
  C  1013  1  0.77537650  0.90984050  0.33842600  1
  C  1014  1  0.75672700  0.98478400  0.45306300  1
  C  1015  1  0.77537650  0.92237300  0.49378750  1
  C  1016  1  0.75672700  0.82878000  0.36050100  1
  C  1021  1  0.39394000  0.73826650  0.23413050  1
  C  1022  1  0.38777100  0.75597800  0.22287300  1
  C  1023  1  0.38932450  0.78208450  0.24000700  1
  C  1024  1  0.39560900  0.79060600  0.26939100  1
  C  1025  1  0.39989950  0.77205300  0.28075850  1
  C  1026  1  0.40004300  0.74713250  0.26333250  1
  C  1029  1  0.39393900  0.71250950  0.21664650  1
  C  1030  1  0.40004300  0.70974800  0.19354800  1
  C  1031  1  0.39989850  0.68468350  0.17597700  1
  C  1032  1  0.39560900  0.66184000  0.18305500  1
  C  1033  1  0.38932450  0.66407700  0.20615450  1
  C  1034  1  0.38777000  0.68863000  0.22173400  1
  C  1043  1  0.38424400  0.64284550  0.21426050  1
  C  1044  1  0.40282000  0.77608800  0.30784000  1
  C  1045  1  0.38424400  0.79823500  0.22682000  1
  C  1046  1  0.40282000  0.68356850  0.15181650  1
  C  1051  1  0.57564650  0.39833200  0.71252850  1
  C  1052  1  0.54667750  0.38062350  0.68865000  1
  C  1053  1  0.53770300  0.35452300  0.66409000  1
  C  1054  1  0.55856750  0.34600900  0.66183550  1
  C  1055  1  0.58848650  0.36456150  0.68468100  1
  C  1056  1  0.59598150  0.38946500  0.70976050  1
  C  1059  1  0.58392650  0.42409100  0.73828650  1
  C  1060  1  0.56358950  0.42686550  0.74714600  1
  C  1061  1  0.57107800  0.45193800  0.77205200  1
  C  1062  1  0.60100150  0.47478050  0.79061000  1
  C  1063  1  0.62186900  0.47252400  0.78210100  1
  C  1064  1  0.61289800  0.44796450  0.75600150  1
  C  1073  1  0.65119800  0.49377700  0.79822700  1
  C  1074  1  0.61152850  0.36052350  0.68356300  1
  C  1075  1  0.50837600  0.33840200  0.64283800  1
  C  1076  1  0.54802650  0.45306400  0.77607450  1
  C  1441  1  0.35913250  0.80379250  0.77321400  1
  C  1443  1  0.37576700  0.77190300  0.78374100  1
  C  1444  1  0.36257950  0.77117700  0.80140850  1
  C  1446  1  0.34399650  0.80078150  0.78871400  1
  C  1447  1  0.32701800  0.81365550  0.79129850  1
  C  1448  1  0.39204150  0.75823850  0.78050800  1
  C  1457  1  0.80045750  0.49387150  0.52446300  1
  C  1459  1  0.78383100  0.48776650  0.47594150  1
  C  1460  1  0.79701550  0.51862050  0.48840400  1
  C  1462  1  0.81559750  0.52450700  0.53658850  1
  C  1463  1  0.83257400  0.54406700  0.56644300  1
  C  1464  1  0.76757300  0.46826450  0.44600250  1
  C  1473  1  0.04918750  0.33281000  0.61215050  1
  C  1475  1  0.09161050  0.36470900  0.66066850  1
  C  1476  1  0.10999900  0.36542750  0.64820350  1
  C  1478  1  0.06769550  0.33582100  0.60002150  1
  C  1479  1  0.05739750  0.32294850  0.57016700  1
  C  1480  1  0.10205200  0.37840100  0.69060800  1
  C  1489  1  0.11037000  0.64275100  0.36341400  1
  C  1491  1  0.06796150  0.64887000  0.35290150  1
  C  1492  1  0.04956350  0.61801500  0.33524150  1
  C  1494  1  0.09185600  0.61211650  0.34792750  1
  C  1495  1  0.10214200  0.59254950  0.34533250  1
  C  1496  1  0.05753300  0.66838000  0.35613000  1
  C  1505  1  0.65422850  0.36341750  0.09889800  1
  C  1507  1  0.66034450  0.35289850  0.05648800  1
  C  1508  1  0.62949100  0.33523500  0.03809200  1
  C  1510  1  0.62359450  0.34792450  0.08038500  1
  C  1511  1  0.60402850  0.34533300  0.09067350  1
  C  1512  1  0.67985550  0.35612900  0.04606050  1
  C  1521  1  0.34430300  0.61216400  0.03772200  1
  C  1523  1  0.37619700  0.66068450  0.08013950  1
  C  1524  1  0.37691750  0.64822150  0.09853000  1
  C  1526  1  0.34731300  0.60003650  0.05623050  1
  C  1527  1  0.33443900  0.57018250  0.04593650  1
  C  1528  1  0.38988150  0.69062350  0.09057800  1
  C  1537  1  0.50535150  0.52447550  0.78897800  1
  C  1539  1  0.49925300  0.47595650  0.77235750  1
  C  1540  1  0.53010800  0.48842250  0.78554350  1
  C  1542  1  0.53598800  0.53660500  0.80412100  1
  C  1543  1  0.55554400  0.56645900  0.82110000  1
  C  1544  1  0.47975400  0.44601750  0.75610750  1
  C  1553  1  0.81526800  0.77321800  0.34765800  1
  C  1555  1  0.78337300  0.78373800  0.36428800  1
  C  1556  1  0.78264350  0.80140200  0.35109750  1
  C  1558  1  0.81224950  0.78871050  0.33251600  1
  C  1559  1  0.82512600  0.79129800  0.31553900  1
  C  1560  1  0.76971100  0.78050800  0.38056400  1
  C  1569  1  0.62364550  0.03773550  0.33282800  1
  C  1571  1  0.67216900  0.08015050  0.36471950  1
  C  1572  1  0.65970750  0.09854350  0.36544700  1
  C  1574  1  0.61152000  0.05624700  0.33584300  1
  C  1575  1  0.58166700  0.04595600  0.32296800  1
  C  1576  1  0.70210750  0.09058200  0.37838150  1
  C  1585  1  0.37490850  0.09891250  0.64276200  1
  C  1587  1  0.36438850  0.05650000  0.64887250  1
  C  1588  1  0.34671900  0.03810800  0.61801900  1
  C  1590  1  0.35941150  0.08040150  0.61212700  1
  C  1591  1  0.35682500  0.09069200  0.59256500  1
  C  1592  1  0.36763400  0.04606600  0.66837600  1
  C  1601  1  0.78468500  0.34765550  0.80380950  1
  C  1603  1  0.79521150  0.36427800  0.77191350  1
  C  1604  1  0.81288400  0.35109600  0.77119700  1
  C  1606  1  0.80018500  0.33251950  0.80080250  1
  C  1607  1  0.80275850  0.31553700  0.81367450  1
  C  1608  1  0.79195900  0.38052250  0.75821850  1
  C  1617  1  0.53593300  0.78897700  0.49388300  1
  C  1619  1  0.48740600  0.77234700  0.48777000  1
  C  1620  1  0.49986650  0.78554250  0.51862500  1
  C  1622  1  0.54805500  0.80412450  0.52451750  1
  C  1623  1  0.57790850  0.82109700  0.54408050  1
  C  1624  1  0.45746750  0.75606550  0.46826100  1
  C  1633  1  0.35913250  0.61217650  0.64275500  1
  C  1635  1  0.37576700  0.66070100  0.64886300  1
  C  1636  1  0.36257900  0.64823900  0.61800800  1
  C  1638  1  0.34399700  0.60005300  0.61212000  1
  C  1639  1  0.32701800  0.57019950  0.59255650  1
  C  1640  1  0.39204150  0.69063950  0.66837000  1
  C  1649  1  0.80045750  0.36342300  0.33283150  1
  C  1651  1  0.78383100  0.35290150  0.36472650  1
  C  1652  1  0.79701550  0.33523100  0.36544750  1
  C  1654  1  0.81559750  0.34792700  0.33584550  1
  C  1655  1  0.83257400  0.34534400  0.32296800  1
  C  1656  1  0.76757300  0.35614600  0.37840800  1
  C  1665  1  0.04918850  0.77321450  0.49387500  1
  C  1667  1  0.09161050  0.78373800  0.48777850  1
  C  1668  1  0.11000000  0.80140850  0.51863350  1
  C  1670  1  0.06769500  0.78871150  0.52451150  1
  C  1671  1  0.05739750  0.79128600  0.54406750  1
  C  1672  1  0.10205250  0.78048850  0.46828100  1
  C  1681  1  0.11037100  0.52445750  0.80379350  1
  C  1683  1  0.06796250  0.47593050  0.77189800  1
  C  1684  1  0.04956400  0.48838700  0.77116000  1
  C  1686  1  0.09185750  0.53657850  0.80076700  1
  C  1687  1  0.10214450  0.56643050  0.81364700  1
  C  1688  1  0.05753350  0.44599050  0.75824100  1
  C  1697  1  0.65422850  0.34764650  0.61216600  1
  C  1699  1  0.66034450  0.36428300  0.66069350  1
  C  1700  1  0.62949100  0.35109250  0.64823550  1
  C  1702  1  0.62359450  0.33250700  0.60004650  1
  C  1703  1  0.60402850  0.31553350  0.57019300  1
  C  1704  1  0.67985500  0.38056250  0.69063150  1
  C  1713  1  0.34430300  0.78897650  0.36341850  1
  C  1715  1  0.37619650  0.77234900  0.35289450  1
  C  1716  1  0.37691750  0.78553250  0.33522400  1
  C  1718  1  0.34731300  0.80411250  0.34791850  1
  C  1719  1  0.33443900  0.82109350  0.34533950  1
  C  1720  1  0.38988150  0.75609500  0.35614050  1
  C  1729  1  0.50535150  0.03771300  0.77321050  1
  C  1731  1  0.49925300  0.08013300  0.78373200  1
  C  1732  1  0.53010800  0.09852250  0.80140150  1
  C  1734  1  0.53598800  0.05622000  0.78870400  1
  C  1735  1  0.55554400  0.04592150  0.79128050  1
  C  1736  1  0.47975400  0.09057400  0.78048400  1
  C  1745  1  0.81526800  0.09888650  0.52444650  1
  C  1747  1  0.78337350  0.05647150  0.47592200  1
  C  1748  1  0.78264300  0.03807900  0.48838300  1
  C  1750  1  0.81224950  0.08037550  0.53657000  1
  C  1751  1  0.82512600  0.09066550  0.56642450  1
  C  1752  1  0.76971200  0.04604050  0.44598350  1
  C  1761  1  0.62364550  0.64274650  0.34765400  1
  C  1763  1  0.67217000  0.64885550  0.36428750  1
  C  1764  1  0.65970650  0.61800000  0.35109550  1
  C  1766  1  0.61152000  0.61211000  0.33251400  1
  C  1767  1  0.58166700  0.59254850  0.31553650  1
  C  1768  1  0.70210750  0.66836250  0.38056300  1
  C  1777  1  0.37490800  0.33283250  0.78898250  1
  C  1779  1  0.36439000  0.36472700  0.77235300  1
  C  1780  1  0.34671950  0.36545000  0.78553650  1
  C  1782  1  0.35941000  0.33584750  0.80411950  1
  C  1783  1  0.35682400  0.32297000  0.82109600  1
  C  1784  1  0.36763400  0.37840550  0.75609350  1
  C  1793  1  0.78468450  0.49386600  0.03771250  1
  C  1795  1  0.79521150  0.48777100  0.08013550  1
  C  1796  1  0.81288400  0.51862500  0.09852400  1
  C  1798  1  0.80018500  0.52450150  0.05621850  1
  C  1799  1  0.80275850  0.54405850  0.04592100  1
  C  1800  1  0.79195850  0.46827250  0.09057700  1
  C  1809  1  0.53593250  0.80379350  0.09888700  1
  C  1811  1  0.48740600  0.77189600  0.05647300  1
  C  1812  1  0.49986650  0.77116150  0.03807900  1
  C  1814  1  0.54805500  0.80076750  0.08037450  1
  C  1815  1  0.57790850  0.81364850  0.09066500  1
  C  1816  1  0.45746750  0.75823900  0.04604350  1
  C  2209  1  0.27256450  0.91789350  0.67976600  1
  C  2211  1  0.31381600  0.91031550  0.68836550  1
  C  2212  1  0.31880250  0.91632750  0.71681100  1
  C  2214  1  0.27903050  0.92615700  0.70894550  1
  C  2215  1  0.26372150  0.93555750  0.72108500  1
  C  2216  1  0.32931250  0.90169250  0.67560400  1
  C  2225  1  0.88702100  0.48702250  0.72511650  1
  C  2227  1  0.84575550  0.45434300  0.67629350  1
  C  2228  1  0.84075050  0.47779250  0.67731200  1
  C  2230  1  0.88053600  0.50972400  0.72690300  1
  C  2231  1  0.89584050  0.53718400  0.75159550  1
  C  2232  1  0.83024400  0.42607100  0.65219700  1
  C  2241  1  0.84172200  0.21876050  0.41153750  1
  C  2243  1  0.85785000  0.22628450  0.46034950  1
  C  2244  1  0.88027350  0.22025100  0.45932350  1
  C  2246  1  0.86263250  0.21048400  0.40974550  1
  C  2247  1  0.86540850  0.20110300  0.38505650  1
  C  2248  1  0.85363900  0.23482600  0.48442800  1
  C  2257  1  0.31787300  0.64956850  0.45682950  1
  C  2259  1  0.30174300  0.68226700  0.44827800  1
  C  2260  1  0.27930900  0.65883200  0.41982000  1
  C  2262  1  0.29694900  0.62688000  0.42764100  1
  C  2263  1  0.29415550  0.59940800  0.41546550  1
  C  2264  1  0.30592000  0.71054100  0.46105000  1
  C  2273  1  0.66107250  0.45685050  0.30641000  1
  C  2275  1  0.69374750  0.44827700  0.29025450  1
  C  2276  1  0.67030150  0.41982250  0.26782500  1
  C  2278  1  0.63837150  0.42766750  0.28549000  1
  C  2279  1  0.61091500  0.41551150  0.28273150  1
  C  2280  1  0.72201500  0.46104450  0.29441750  1
  C  2289  1  0.23020700  0.41153400  0.83021000  1
  C  2291  1  0.23773200  0.46034600  0.84636800  1
  C  2292  1  0.23170650  0.45930550  0.86879100  1
  C  2294  1  0.22192550  0.40971950  0.85111100  1
  C  2295  1  0.21253550  0.38501200  0.85385450  1
  C  2296  1  0.24629900  0.48444450  0.84219150  1
  C  2305  1  0.49852700  0.72510900  0.87556900  1
  C  2307  1  0.46582250  0.67628800  0.83430150  1
  C  2308  1  0.48925600  0.67729350  0.82927350  1
  C  2310  1  0.52121700  0.72687650  0.86906750  1
  C  2311  1  0.54868900  0.75155300  0.88436400  1
  C  2312  1  0.43753400  0.65220900  0.81878200  1
  C  2321  1  0.92938000  0.67979000  0.26108000  1
  C  2323  1  0.92180150  0.68836300  0.30233350  1
  C  2324  1  0.92781350  0.71681400  0.30733450  1
  C  2326  1  0.93764300  0.70897450  0.26756650  1
  C  2327  1  0.94702600  0.72113200  0.25226000  1
  C  2328  1  0.91318850  0.67559750  0.31783000  1
  C  2337  1  0.42300000  0.83021100  0.21874500  1
  C  2339  1  0.47182100  0.84637700  0.22629400  1
  C  2340  1  0.47078350  0.86880150  0.22026900  1
  C  2342  1  0.42119400  0.85111800  0.21047100  1
  C  2343  1  0.39648250  0.85385500  0.20107150  1
  C  2344  1  0.49592650  0.84221350  0.23488300  1
  C  2353  1  0.46831200  0.30640850  0.64959950  1
  C  2355  1  0.45972850  0.29026650  0.68228100  1
  C  2356  1  0.43127350  0.26783600  0.65883350  1
  C  2358  1  0.43912550  0.28549350  0.62690100  1
  C  2359  1  0.42696750  0.28272250  0.59943900  1
  C  2360  1  0.47248950  0.29444250  0.71055400  1
  C  2369  1  0.69126300  0.26108250  0.91787750  1
  C  2371  1  0.69984600  0.30235150  0.91032450  1
  C  2372  1  0.72830000  0.30736000  0.91634500  1
  C  2374  1  0.72044950  0.26757050  0.92614500  1
  C  2375  1  0.73261150  0.25226500  0.93552550  1
  C  2376  1  0.68708450  0.31786750  0.90174800  1
  C  2385  1  0.73661250  0.87557000  0.48705350  1
  C  2387  1  0.68778400  0.83432000  0.45435800  1
  C  2388  1  0.68878700  0.82929850  0.47779450  1
  C  2390  1  0.73837950  0.86907250  0.50974500  1
  C  2391  1  0.76305900  0.88436900  0.53721500  1
  C  2392  1  0.66368600  0.81882000  0.42608500  1
  C  2401  1  0.27256450  0.41150800  0.64963550  1
  C  2403  1  0.31381600  0.46033750  0.68228750  1
  C  2404  1  0.31880250  0.45931200  0.65882850  1
  C  2406  1  0.27903050  0.40971050  0.62692200  1
  C  2407  1  0.26372250  0.38500050  0.59947400  1
  C  2408  1  0.32931250  0.48445600  0.71054450  1
  C  2417  1  0.88702000  0.45683550  0.21874250  1
  C  2419  1  0.84575450  0.44824850  0.22629900  1
  C  2420  1  0.84074850  0.41979450  0.22027400  1
  C  2422  1  0.88053450  0.42764950  0.21047000  1
  C  2423  1  0.89584000  0.41549400  0.20108200  1
  C  2424  1  0.83024200  0.46100950  0.23488350  1
  C  2433  1  0.84172200  0.67979800  0.48702100  1
  C  2435  1  0.85785000  0.68840250  0.45433750  1
  C  2436  1  0.88027350  0.71685950  0.47778700  1
  C  2438  1  0.86263250  0.70898500  0.50972350  1
  C  2439  1  0.86540850  0.72114250  0.53718800  1
  C  2440  1  0.85363900  0.67565050  0.42604850  1
  C  2449  1  0.31787300  0.72514150  0.91788050  1
  C  2451  1  0.30174300  0.67631300  0.91030200  1
  C  2452  1  0.27930900  0.67731400  0.91632600  1
  C  2454  1  0.29694900  0.72690600  0.92614500  1
  C  2455  1  0.29415550  0.75158350  0.93552600  1
  C  2456  1  0.30591850  0.65221550  0.90170500  1
  C  2465  1  0.66107250  0.26105900  0.41149950  1
  C  2467  1  0.69374750  0.30230800  0.46033050  1
  C  2468  1  0.67030150  0.30731650  0.45931400  1
  C  2470  1  0.63837150  0.26754150  0.40971900  1
  C  2471  1  0.61091500  0.25224100  0.38502100  1
  C  2472  1  0.72201500  0.31780800  0.48443500  1
  C  2481  1  0.23020650  0.87550950  0.45683600  1
  C  2483  1  0.23773200  0.83422150  0.44819950  1
  C  2484  1  0.23170800  0.82924050  0.41975250  1
  C  2486  1  0.22192650  0.86904450  0.42765400  1
  C  2487  1  0.21253400  0.88436250  0.41552250  1
  C  2488  1  0.24629950  0.81869200  0.46094450  1
  C  2497  1  0.49852700  0.83025450  0.67979550  1
  C  2499  1  0.46582150  0.84637000  0.68835750  1
  C  2500  1  0.48925600  0.86880050  0.71682050  1
  C  2502  1  0.52121550  0.85117550  0.70898500  1
  C  2503  1  0.54868850  0.85397200  0.72116150  1
  C  2504  1  0.43753400  0.84216200  0.67558900  1
  C  2513  1  0.92937950  0.30642700  0.72513650  1
  C  2515  1  0.92180150  0.29027550  0.67630500  1
  C  2516  1  0.92781350  0.26783700  0.67731650  1
  C  2518  1  0.93764300  0.28550600  0.72691400  1
  C  2519  1  0.94702500  0.28272900  0.75160200  1
  C  2520  1  0.91318850  0.29442750  0.65219500  1
  C  2529  1  0.42300000  0.64962700  0.26109300  1
  C  2531  1  0.47182100  0.68228100  0.30236400  1
  C  2532  1  0.47078350  0.65881900  0.30735150  1
  C  2534  1  0.42119400  0.62691250  0.26755950  1
  C  2535  1  0.39648300  0.59946400  0.25224800  1
  C  2536  1  0.49592500  0.71054900  0.31788000  1
  C  2545  1  0.46831200  0.21873900  0.87554800  1
  C  2547  1  0.45972850  0.22629900  0.83428450  1
  C  2548  1  0.43127350  0.22027450  0.82927700  1
  C  2550  1  0.43912550  0.21046950  0.86906200  1
  C  2551  1  0.42696850  0.20108100  0.88436550  1
  C  2552  1  0.47248950  0.23488400  0.81877250  1
  C  2561  1  0.69126200  0.48701550  0.83022150  1
  C  2563  1  0.69984550  0.45433050  0.84635900  1
  C  2564  1  0.72830000  0.47777700  0.86879200  1
  C  2566  1  0.72044950  0.50971650  0.85114200  1
  C  2567  1  0.73261150  0.53718250  0.85392200  1
  C  2568  1  0.68708400  0.42605500  0.84217600  1
  C  2577  1  0.73661250  0.91788000  0.30639650  1
  C  2579  1  0.68778400  0.91030100  0.29026300  1
  C  2580  1  0.68878700  0.91632600  0.26783000  1
  C  2582  1  0.73837950  0.92614400  0.28547150  1
  C  2583  1  0.76305800  0.93552650  0.28267950  1
  C  2584  1  0.66368700  0.90170450  0.29443850  1
  H  7  1  0.40037000  0.93793750  0.76912650  1
  H  16  1  0.46001400  0.89948200  0.76915300  1
  H  17  1  0.50866350  0.97539150  0.73848900  1
  H  18  1  0.52279150  0.95618700  0.74739550  1
  H  19  1  0.32107750  0.83137200  0.73849150  1
  H  20  1  0.31586650  0.85949000  0.74742450  1
  H  21  1  0.41434950  0.86637300  0.74931450  1
  H  22  1  0.42622400  0.95122550  0.74931250  1
  H  27  1  0.52140450  0.92365400  0.76927650  1
  H  28  1  0.37787500  0.81988600  0.73884900  1
  H  29  1  0.33942600  0.91427400  0.76949300  1
  H  30  1  0.45226250  0.98724200  0.73881250  1
  H  37  1  0.75918550  0.44853950  0.61736300  1
  H  46  1  0.69956700  0.38890150  0.51926250  1
  H  47  1  0.65093900  0.30961550  0.54654150  1
  H  48  1  0.63679300  0.30437450  0.51320050  1
  H  49  1  0.83849650  0.49719200  0.59009850  1
  H  50  1  0.84371050  0.51131500  0.62343250  1
  H  51  1  0.74523550  0.41474750  0.53182700  1
  H  52  1  0.73334750  0.40287500  0.60480350  1
  H  57  1  0.63820700  0.32779650  0.48201750  1
  H  58  1  0.78176900  0.44078650  0.52184750  1
  H  59  1  0.82029700  0.50989700  0.65460100  1
  H  60  1  0.70731150  0.36634600  0.61478750  1
  H  67  1  0.91098950  0.19864100  0.51927450  1
  H  76  1  0.94942450  0.23714000  0.61736850  1
  H  77  1  0.84285950  0.16118900  0.59007750  1
  H  78  1  0.87097250  0.18038400  0.62341150  1
  H  79  1  0.98686000  0.30522000  0.54651600  1
  H  80  1  0.96765450  0.27710950  0.51318300  1
  H  81  1  0.96270550  0.27023950  0.60479600  1
  H  82  1  0.87786800  0.18537550  0.53181850  1
  H  87  1  0.92574650  0.21310350  0.65464200  1
  H  88  1  0.99873400  0.31672650  0.61479650  1
  H  89  1  0.93517750  0.22272600  0.48206050  1
  H  90  1  0.83137050  0.14938250  0.52183400  1
  H  97  1  0.24863400  0.68809500  0.36750700  1
  H  106  1  0.21013300  0.74768900  0.36744800  1
  H  107  1  0.31671600  0.82702750  0.39815250  1
  H  108  1  0.28859750  0.83224100  0.38924650  1
  H  109  1  0.17270550  0.63946400  0.39814450  1
  H  110  1  0.19190950  0.62532200  0.38925350  1
  H  111  1  0.19686100  0.72186900  0.38729300  1
  H  112  1  0.28173450  0.73376700  0.38733450  1
  H  117  1  0.23404550  0.80883500  0.36722050  1
  H  118  1  0.16086750  0.69583350  0.39782600  1
  H  119  1  0.22451200  0.62673500  0.36726000  1
  H  120  1  0.32821850  0.77024750  0.39778600  1
  H  127  1  0.69956700  0.36750300  0.23714200  1
  H  136  1  0.75918450  0.36748200  0.19865950  1
  H  137  1  0.83849650  0.39814100  0.30523450  1
  H  138  1  0.84371050  0.38923250  0.27711500  1
  H  139  1  0.65093900  0.39816050  0.16123450  1
  H  140  1  0.63679300  0.38925600  0.18043000  1
  H  141  1  0.73334750  0.38730950  0.18538100  1
  H  142  1  0.74523450  0.38732350  0.27024500  1
  H  147  1  0.82029700  0.36723700  0.22253300  1
  H  148  1  0.70731150  0.39780200  0.14936050  1
  H  149  1  0.63820650  0.36724700  0.21302650  1
  H  150  1  0.78176900  0.39781950  0.31675850  1
  H  157  1  0.21013300  0.51928050  0.89952350  1
  H  166  1  0.24863400  0.61737700  0.93796500  1
  H  167  1  0.17270650  0.59007950  0.83139800  1
  H  168  1  0.19190950  0.62342400  0.85949250  1
  H  169  1  0.31671500  0.54652450  0.97539850  1
  H  170  1  0.28859700  0.51319250  0.95618750  1
  H  171  1  0.28173450  0.60480500  0.95123750  1
  H  172  1  0.19686100  0.53182850  0.86640450  1
  H  177  1  0.22451150  0.65461400  0.91408850  1
  H  178  1  0.32821850  0.61480750  0.98726900  1
  H  179  1  0.23404550  0.48204750  0.92366000  1
  H  180  1  0.16086850  0.52187200  0.81987850  1
  H  187  1  0.46001400  0.61736950  0.74769850  1
  H  196  1  0.40037000  0.51927000  0.68808100  1
  H  197  1  0.32107750  0.54654250  0.63942300  1
  H  198  1  0.31586650  0.51321350  0.62527900  1
  H  199  1  0.50866350  0.59010950  0.82701200  1
  H  200  1  0.52279150  0.62344150  0.83223300  1
  H  201  1  0.42622400  0.53183500  0.73374800  1
  H  202  1  0.41434950  0.60481350  0.72187200  1
  H  207  1  0.33942600  0.48198900  0.62677000  1
  H  208  1  0.45226250  0.52185750  0.77028700  1
  H  209  1  0.52140300  0.65458700  0.80896400  1
  H  210  1  0.37787500  0.61482450  0.69586150  1
  H  217  1  0.94942450  0.76912100  0.38889250  1
  H  226  1  0.91098950  0.76918600  0.44855250  1
  H  227  1  0.98686000  0.73847750  0.49718150  1
  H  228  1  0.96765450  0.74738250  0.51130900  1
  H  229  1  0.84285850  0.73850750  0.30961800  1
  H  230  1  0.87097250  0.74742550  0.30439800  1
  H  231  1  0.87786800  0.74932850  0.40288550  1
  H  232  1  0.96270550  0.74930350  0.41474700  1
  H  237  1  0.93517750  0.76928800  0.50995350  1
  H  238  1  0.83137050  0.73882450  0.36637300  1
  H  239  1  0.92574650  0.76947950  0.32794100  1
  H  240  1  0.99873400  0.73884400  0.44077400  1
  H  247  1  0.53075300  0.89951150  0.19867550  1
  H  256  1  0.62885350  0.93795950  0.23716100  1
  H  257  1  0.60155100  0.83139300  0.16124100  1
  H  258  1  0.63489800  0.85949250  0.18045250  1
  H  259  1  0.55801950  0.97537400  0.30524950  1
  H  260  1  0.52467850  0.95617050  0.27714500  1
  H  261  1  0.61628550  0.95124650  0.27025500  1
  H  262  1  0.54330400  0.86640200  0.18538800  1
  H  267  1  0.66608750  0.91408950  0.21303300  1
  H  268  1  0.62630000  0.98729200  0.31673200  1
  H  269  1  0.49351800  0.92365000  0.22257100  1
  H  270  1  0.53333950  0.81988300  0.14938050  1
  H  277  1  0.37895100  0.23713200  0.68808400  1
  H  286  1  0.37895050  0.19865600  0.74770350  1
  H  287  1  0.40960050  0.30522950  0.82701900  1
  H  288  1  0.40069050  0.27711500  0.83223750  1
  H  289  1  0.40960150  0.16120900  0.63941850  1
  H  290  1  0.40069050  0.18041250  0.62529000  1
  H  291  1  0.39879700  0.18539100  0.72187500  1
  H  292  1  0.39879600  0.27024350  0.73375850  1
  H  297  1  0.37871650  0.22253300  0.80882350  1
  H  298  1  0.40931150  0.14938450  0.69584300  1
  H  299  1  0.37871650  0.21302100  0.62673050  1
  H  300  1  0.40931100  0.31676400  0.77030500  1
  H  307  1  0.78063700  0.38892450  0.93797150  1
  H  316  1  0.78063700  0.44854950  0.89950250  1
  H  317  1  0.75000800  0.49724200  0.97544300  1
  H  318  1  0.75894400  0.51137300  0.95625500  1
  H  319  1  0.75000800  0.30960300  0.83140200  1
  H  320  1  0.75894350  0.30440700  0.85952550  1
  H  321  1  0.76079000  0.40287600  0.86638900  1
  H  322  1  0.76079000  0.41475150  0.95123850  1
  H  327  1  0.78086300  0.50988750  0.92358150  1
  H  328  1  0.75029850  0.36637850  0.81989300  1
  H  329  1  0.78086250  0.32781200  0.91411750  1
  H  330  1  0.75029850  0.44075700  0.98724250  1
  H  337  1  0.62885350  0.74773100  0.44852950  1
  H  346  1  0.53075300  0.68807700  0.38891300  1
  H  347  1  0.55801950  0.63948250  0.30960700  1
  H  348  1  0.52467850  0.62534600  0.30437150  1
  H  349  1  0.60154950  0.82699450  0.49714500  1
  H  350  1  0.63489800  0.83224300  0.51128300  1
  H  351  1  0.54330400  0.73373850  0.41475250  1
  H  352  1  0.61628550  0.72187600  0.40286750  1
  H  357  1  0.49351800  0.62670500  0.32778400  1
  H  358  1  0.53333950  0.77029300  0.44079550  1
  H  359  1  0.66608750  0.80883550  0.50989200  1
  H  360  1  0.62630000  0.69584350  0.36640350  1
  H  727  1  0.76126900  0.20148700  0.37037900  1
  H  736  1  0.70035100  0.23716350  0.37030050  1
  H  737  1  0.64939350  0.15492650  0.39374700  1
  H  738  1  0.63487550  0.17381300  0.38470350  1
  H  739  1  0.83561200  0.30716800  0.39377000  1
  H  740  1  0.84110350  0.27925000  0.38473550  1
  H  741  1  0.74664350  0.27250350  0.39348400  1
  H  742  1  0.73810250  0.18930650  0.39351400  1
  H  747  1  0.63505600  0.20091750  0.35449650  1
  H  748  1  0.78391500  0.32016950  0.40548350  1
  H  749  1  0.81064650  0.22182900  0.35450950  1
  H  750  1  0.71278250  0.15368550  0.40560100  1
  H  757  1  0.39833200  0.68891400  0.52001800  1
  H  766  1  0.45919150  0.74978000  0.61661450  1
  H  767  1  0.51016400  0.82414350  0.58531350  1
  H  768  1  0.52468750  0.82963700  0.61872750  1
  H  769  1  0.32396200  0.63792200  0.55131200  1
  H  770  1  0.31848200  0.62342250  0.51790250  1
  H  771  1  0.41289150  0.72663900  0.60563650  1
  H  772  1  0.42146750  0.73521550  0.53099400  1
  H  777  1  0.52446950  0.79914900  0.64562450  1
  H  778  1  0.37547600  0.70130800  0.61592700  1
  H  779  1  0.34897650  0.62363150  0.49101600  1
  H  780  1  0.44679350  0.77262450  0.52069700  1
  H  787  1  0.24861900  0.93518000  0.61660000  1
  H  796  1  0.21295100  0.89946500  0.52001100  1
  H  797  1  0.31866100  0.98171300  0.55136400  1
  H  798  1  0.29074500  0.96284400  0.51795400  1
  H  799  1  0.16642900  0.82946600  0.58530100  1
  H  800  1  0.18529650  0.85739100  0.61870450  1
  H  801  1  0.20075800  0.86413950  0.53097850  1
  H  802  1  0.28396200  0.94734700  0.60565400  1
  H  807  1  0.23333200  0.93561900  0.49092900  1
  H  808  1  0.16506850  0.81650250  0.52054200  1
  H  809  1  0.21240800  0.91470150  0.64567550  1
  H  810  1  0.33163700  0.98300250  0.61605550  1
  H  817  1  0.91092750  0.44775100  0.76629350  1
  H  826  1  0.94662950  0.38686000  0.76627750  1
  H  827  1  0.84093550  0.31248000  0.74282450  1
  H  828  1  0.86886150  0.30699700  0.75185650  1
  H  829  1  0.99316600  0.49867250  0.74284350  1
  H  830  1  0.97428600  0.51320700  0.75187800  1
  H  831  1  0.95879900  0.40999800  0.74311900  1
  H  832  1  0.87560000  0.40146150  0.74314350  1
  H  837  1  0.92624100  0.33744500  0.78213700  1
  H  838  1  0.99441250  0.43530700  0.73101850  1
  H  839  1  0.94715300  0.51301650  0.78212650  1
  H  840  1  0.82796350  0.36425100  0.73120050  1
  H  847  1  0.45919150  0.76624550  0.89941300  1
  H  856  1  0.39833200  0.76625550  0.93515150  1
  H  857  1  0.32396200  0.74287700  0.82948700  1
  H  858  1  0.31848200  0.75189650  0.85741650  1
  H  859  1  0.51016450  0.74285750  0.98168700  1
  H  860  1  0.52468750  0.75188700  0.96279650  1
  H  861  1  0.42146750  0.74308950  0.94731100  1
  H  862  1  0.41289100  0.74308950  0.86409250  1
  H  867  1  0.34897650  0.78218150  0.91479700  1
  H  868  1  0.44679250  0.73100600  0.98293250  1
  H  869  1  0.52446850  0.78215800  0.93568150  1
  H  870  1  0.37547450  0.73100500  0.81638550  1
  H  877  1  0.94663100  0.61660750  0.23718750  1
  H  886  1  0.91092950  0.52001500  0.20147050  1
  H  887  1  0.99319600  0.55132950  0.30715550  1
  H  888  1  0.97430600  0.51792050  0.27923650  1
  H  889  1  0.84093550  0.58529250  0.15494900  1
  H  890  1  0.86886150  0.61870100  0.17384150  1
  H  891  1  0.87560200  0.53097550  0.18929350  1
  H  892  1  0.95880250  0.60563950  0.27251700  1
  H  897  1  0.94715050  0.49097250  0.22186200  1
  H  898  1  0.82796450  0.52055000  0.15360050  1
  H  899  1  0.92624300  0.64563500  0.20094100  1
  H  900  1  0.99440950  0.61593900  0.32023550  1
  H  907  1  0.70035100  0.52002450  0.38688750  1
  H  916  1  0.76126900  0.61661850  0.44772650  1
  H  917  1  0.83561200  0.58528150  0.49867950  1
  H  918  1  0.84110350  0.61869050  0.51320500  1
  H  919  1  0.64939350  0.55130300  0.31248250  1
  H  920  1  0.63487550  0.51789850  0.30700800  1
  H  921  1  0.73810250  0.60563350  0.40142600  1
  H  922  1  0.74664350  0.53097700  0.40999650  1
  H  927  1  0.81064650  0.64565500  0.51297450  1
  H  928  1  0.71278350  0.61593400  0.36401950  1
  H  929  1  0.63505650  0.49097650  0.33739700  1
  H  930  1  0.78391500  0.52058250  0.43526850  1
  H  937  1  0.21295300  0.37032500  0.74977700  1
  H  946  1  0.24861800  0.37027350  0.68885450  1
  H  947  1  0.16642900  0.39380000  0.63796500  1
  H  948  1  0.18529750  0.38474250  0.62343000  1
  H  949  1  0.31865600  0.39374950  0.82413050  1
  H  950  1  0.29073600  0.38471150  0.82961550  1
  H  951  1  0.28396200  0.39344950  0.73514450  1
  H  952  1  0.20075850  0.39345450  0.72661500  1
  H  957  1  0.21240800  0.35454400  0.62356800  1
  H  958  1  0.33164250  0.40548050  0.77242800  1
  H  959  1  0.23333050  0.35454550  0.79923200  1
  H  960  1  0.16506900  0.40540250  0.70136450  1
  H  967  1  0.62808750  0.23719500  0.93514750  1
  H  976  1  0.53149100  0.20147300  0.89944800  1
  H  977  1  0.56280800  0.30716500  0.98167400  1
  H  978  1  0.52939050  0.27924550  0.96278400  1
  H  979  1  0.59676900  0.15498000  0.82945100  1
  H  980  1  0.63018150  0.17386250  0.85737000  1
  H  981  1  0.54245200  0.18929200  0.86412300  1
  H  982  1  0.61711700  0.27251750  0.94732450  1
  H  987  1  0.50245800  0.22185900  0.93568100  1
  H  988  1  0.53201650  0.15359200  0.81649250  1
  H  989  1  0.65711700  0.20095450  0.91476150  1
  H  990  1  0.62742400  0.32022950  0.98294450  1
  H  997  1  0.77773550  0.89942000  0.44771650  1
  H  1006  1  0.77773550  0.93515250  0.38685600  1
  H  1007  1  0.75437450  0.82949350  0.31249100  1
  H  1008  1  0.76339950  0.85741650  0.30700800  1
  H  1009  1  0.75437450  0.98171850  0.49872100  1
  H  1010  1  0.76340100  0.96282050  0.51322950  1
  H  1011  1  0.75456500  0.94730950  0.40998850  1
  H  1012  1  0.75456500  0.86409300  0.40141400  1
  H  1017  1  0.79364850  0.91479300  0.33748750  1
  H  1018  1  0.74246750  0.98292350  0.43531700  1
  H  1019  1  0.79364800  0.93569200  0.51299800  1
  H  1020  1  0.74246900  0.81638150  0.36398850  1
  H  1027  1  0.38177400  0.74975050  0.20145650  1
  H  1036  1  0.38177400  0.68885950  0.23715350  1
  H  1037  1  0.40520400  0.63790950  0.15488750  1
  H  1038  1  0.39615050  0.62338150  0.17375700  1
  H  1039  1  0.40520300  0.82413050  0.30715350  1
  H  1040  1  0.39615050  0.82960600  0.27923050  1
  H  1041  1  0.40493650  0.73515600  0.27249050  1
  H  1042  1  0.40493650  0.72661800  0.18928350  1
  H  1047  1  0.36601800  0.62359600  0.20097000  1
  H  1048  1  0.41695200  0.77243200  0.32016300  1
  H  1049  1  0.36601700  0.79925850  0.22188550  1
  H  1050  1  0.41695200  0.70135750  0.15362650  1
  H  1057  1  0.53149100  0.38685500  0.68888000  1
  H  1066  1  0.62808750  0.44772950  0.74977700  1
  H  1067  1  0.59676900  0.49862550  0.82415450  1
  H  1068  1  0.63018150  0.51315600  0.82964850  1
  H  1069  1  0.56280800  0.31248000  0.63797100  1
  H  1070  1  0.52939100  0.30698250  0.62344450  1
  H  1071  1  0.61711700  0.40143600  0.72662900  1
  H  1072  1  0.54245200  0.40999700  0.73516600  1
  H  1077  1  0.65711800  0.51300150  0.79919350  1
  H  1078  1  0.62742500  0.36403300  0.70131700  1
  H  1079  1  0.50245800  0.33743650  0.62361450  1
  H  1080  1  0.53201700  0.43526150  0.77236150  1
  H  1451  1  0.29809350  0.79357100  0.75135650  1
  H  1454  1  0.36399200  0.71951150  0.76705850  1
  H  1467  1  0.86149600  0.53304550  0.57528250  1
  H  1470  1  0.79565150  0.48286650  0.43535700  1
  H  1483  1  0.03753950  0.34303450  0.56133700  1
  H  1486  1  0.12728750  0.41712400  0.70123650  1
  H  1499  1  0.12204750  0.60359350  0.38527700  1
  H  1502  1  0.03224400  0.65378350  0.36956950  1
  H  1515  1  0.61506700  0.38527600  0.11056800  1
  H  1518  1  0.66525650  0.36956850  0.02077200  1
  H  1531  1  0.35452500  0.56134750  0.02607950  1
  H  1534  1  0.42860600  0.70126600  0.11582500  1
  H  1547  1  0.54451450  0.57529250  0.85001500  1
  H  1550  1  0.49435800  0.43538500  0.78419900  1
  H  1563  1  0.80504950  0.75135550  0.28661800  1
  H  1566  1  0.73098450  0.76706100  0.35252050  1
  H  1579  1  0.57281600  0.02606050  0.34301850  1
  H  1582  1  0.71278900  0.11586000  0.41711100  1
  H  1595  1  0.39676500  0.11054950  0.60357850  1
  H  1598  1  0.38109800  0.02080600  0.65376900  1
  H  1611  1  0.76281900  0.28659700  0.79355400  1
  H  1614  1  0.77847250  0.35242800  0.71949750  1
  H  1627  1  0.58676900  0.84999450  0.53303150  1
  H  1630  1  0.44678100  0.78410850  0.48285350  1
  H  1643  1  0.29809350  0.56135900  0.60357350  1
  H  1646  1  0.36399200  0.70131750  0.65377050  1
  H  1659  1  0.86149500  0.38528700  0.34304900  1
  H  1662  1  0.79565150  0.36962250  0.41713200  1
  H  1675  1  0.03753950  0.75134150  0.53303900  1
  H  1678  1  0.12728750  0.76700100  0.48288750  1
  H  1691  1  0.12204850  0.57529150  0.79360700  1
  H  1694  1  0.03224350  0.43529900  0.71951150  1
  H  1707  1  0.61506700  0.28662750  0.56133550  1
  H  1710  1  0.66525600  0.35252450  0.70132150  1
  H  1723  1  0.35452500  0.85001400  0.38528200  1
  H  1726  1  0.42860500  0.78417550  0.36961750  1
  H  1739  1  0.54451450  0.02605950  0.75133700  1
  H  1742  1  0.49435800  0.11580900  0.76699500  1
  H  1755  1  0.80505100  0.11053150  0.57526850  1
  H  1758  1  0.73098450  0.02076050  0.43530100  1
  H  1771  1  0.57281600  0.60359300  0.28663500  1
  H  1774  1  0.71278800  0.65376600  0.35251400  1
  H  1787  1  0.39676350  0.34305250  0.85002200  1
  H  1790  1  0.38109750  0.41712900  0.78416450  1
  H  1803  1  0.76281900  0.53305850  0.02610150  1
  H  1806  1  0.77847300  0.48288150  0.11581250  1
  H  1819  1  0.58676800  0.79361150  0.11057350  1
  H  1822  1  0.44678100  0.71950950  0.02076450  1
  H  2219  1  0.22440450  0.90762250  0.69242400  1
  H  2222  1  0.36661350  0.91639900  0.70666650  1
  H  2235  1  0.93516550  0.54784200  0.76302850  1
  H  2238  1  0.79296600  0.41981250  0.62951750  1
  H  2251  1  0.86458900  0.22896400  0.37359100  1
  H  2254  1  0.87015100  0.22035500  0.50719900  1
  H  2267  1  0.29496650  0.58874550  0.44413500  1
  H  2270  1  0.28952550  0.71681400  0.43003050  1
  H  2283  1  0.60025250  0.44417200  0.28348550  1
  H  2286  1  0.72828000  0.43001200  0.27804000  1
  H  2299  1  0.24045000  0.37361050  0.85309650  1
  H  2302  1  0.23175500  0.50715150  0.85866350  1
  H  2315  1  0.55934900  0.76304350  0.92369650  1
  H  2318  1  0.43125300  0.62946650  0.78151350  1
  H  2331  1  0.91914100  0.69246150  0.21293550  1
  H  2334  1  0.92786650  0.70664600  0.35512850  1
  H  2347  1  0.38509250  0.85311500  0.22899850  1
  H  2350  1  0.51859450  0.85863900  0.22027850  1
  H  2363  1  0.45563400  0.28350000  0.58877900  1
  H  2366  1  0.44147050  0.27802450  0.71681500  1
  H  2379  1  0.70393600  0.21293800  0.90765900  1
  H  2382  1  0.71809900  0.35514050  0.91632550  1
  H  2395  1  0.77452950  0.92370050  0.54787600  1
  H  2398  1  0.64102200  0.78152600  0.41981200  1
  H  2411  1  0.22440450  0.37362000  0.58881850  1
  H  2414  1  0.36661350  0.50705150  0.71678400  1
  H  2427  1  0.93516500  0.44416100  0.22897500  1
  H  2430  1  0.79296350  0.42998800  0.22028550  1
  H  2443  1  0.86458900  0.69246200  0.54783500  1
  H  2446  1  0.87015150  0.70663350  0.41978900  1
  H  2459  1  0.29496700  0.76305800  0.90766900  1
  H  2462  1  0.28952650  0.62954850  0.91633300  1
  H  2475  1  0.60025250  0.21291750  0.37360400  1
  H  2478  1  0.72828000  0.35510450  0.50707650  1
  H  2491  1  0.24045300  0.92367850  0.44419550  1
  H  2494  1  0.23175500  0.78143950  0.42992550  1
  H  2507  1  0.55934800  0.85314100  0.69248700  1
  H  2510  1  0.43125300  0.85862400  0.70657700  1
  H  2523  1  0.91914150  0.28351650  0.76304300  1
  H  2526  1  0.92786650  0.27805750  0.62957500  1
  H  2539  1  0.38509150  0.58881350  0.21293100  1
  H  2542  1  0.51859600  0.71679300  0.35515300  1
  H  2555  1  0.45563300  0.22897050  0.92369050  1
  H  2558  1  0.44146950  0.22028150  0.78149200  1
  H  2571  1  0.70393600  0.54783500  0.85311500  1
  H  2574  1  0.71810000  0.41979650  0.85860950  1
  H  2587  1  0.77452950  0.90766700  0.28349150  1
  H  2590  1  0.64102100  0.91633100  0.27804600  1
  N  8  1  0.32935950  0.85233900  0.74679550  1
  N  15  1  0.50868600  0.96272550  0.74678950  1
  N  38  1  0.83021100  0.49722950  0.60278150  1
  N  45  1  0.65086850  0.31789300  0.53384550  1
  N  68  1  0.97419800  0.28425300  0.53382800  1
  N  75  1  0.86382450  0.17385750  0.60276700  1
  N  98  1  0.18533550  0.63939500  0.38980350  1
  N  105  1  0.29574600  0.81873800  0.38982600  1
  N  128  1  0.65086950  0.38981350  0.17386000  1
  N  135  1  0.83021100  0.38981800  0.28426600  1
  N  158  1  0.29574600  0.53384450  0.96275650  1
  N  165  1  0.18533550  0.60277750  0.85236900  1
  N  188  1  0.50868600  0.60279700  0.81873300  1
  N  195  1  0.32935950  0.53385700  0.63940050  1
  N  218  1  0.86382550  0.74680500  0.31789450  1
  N  225  1  0.97419800  0.74678200  0.49720700  1
  N  248  1  0.54533200  0.96278100  0.28427400  1
  N  255  1  0.61424400  0.85236650  0.17384150  1
  N  278  1  0.40130850  0.17388250  0.63940400  1
  N  285  1  0.40130850  0.28426300  0.81874150  1
  N  308  1  0.75823300  0.31787650  0.85236050  1
  N  315  1  0.75823300  0.49719350  0.96270950  1
  N  338  1  0.61424400  0.81871450  0.49723950  1
  N  345  1  0.54533200  0.63938800  0.31789500  1
  N  728  1  0.82790100  0.28640700  0.38675100  1
  N  735  1  0.65009200  0.16867000  0.38672900  1
  N  758  1  0.33168650  0.63861250  0.53827300  1
  N  765  1  0.50949200  0.81642500  0.59836200  1
  N  788  1  0.18014700  0.85023000  0.59834200  1
  N  795  1  0.29789800  0.96798100  0.53831200  1
  N  818  1  0.97945250  0.49800950  0.74989800  1
  N  825  1  0.86170400  0.32021150  0.74988550  1
  N  848  1  0.50949200  0.74990400  0.96796700  1
  N  855  1  0.33168650  0.74991100  0.85025050  1
  N  878  1  0.86170400  0.59832950  0.16865550  1
  N  885  1  0.97944300  0.53827950  0.28639750  1
  N  908  1  0.65009200  0.53826000  0.32020100  1
  N  915  1  0.82790100  0.59833100  0.49798700  1
  N  938  1  0.29790500  0.38677150  0.81643050  1
  N  945  1  0.18014800  0.38675300  0.63864200  1
  N  968  1  0.60980600  0.16864600  0.85022800  1
  N  975  1  0.54976550  0.28639150  0.96799200  1
  N  998  1  0.76137250  0.96795950  0.49800900  1
  N  1005  1  0.76137200  0.85024950  0.32020050  1
  N  1028  1  0.39825000  0.81643550  0.28640550  1
  N  1035  1  0.39825000  0.63865150  0.16868150  1
  N  1058  1  0.54976650  0.32021100  0.63861150  1
  N  1065  1  0.60980600  0.49799650  0.81641450  1
  N  1442  1  0.37416600  0.78913850  0.77143650  1
  N  1445  1  0.34731550  0.78542250  0.80259100  1
  N  1455  1  0.36277400  0.82467300  0.76623900  1
  N  1456  1  0.36654650  0.76296250  0.82131900  1
  N  1458  1  0.78542400  0.47706000  0.49477500  1
  N  1461  1  0.81228100  0.53506750  0.51791350  1
  N  1471  1  0.79678800  0.48325500  0.54169400  1
  N  1472  1  0.79306400  0.53456700  0.47622100  1
  N  1474  1  0.06207050  0.34747150  0.64183900  1
  N  1477  1  0.09693250  0.35118200  0.61869350  1
  N  1487  1  0.02133250  0.31192750  0.59491600  1
  N  1488  1  0.13813400  0.37367650  0.66038450  1
  N  1490  1  0.09749850  0.65956700  0.36519050  1
  N  1493  1  0.06262100  0.60156300  0.33405700  1
  N  1503  1  0.13820950  0.65335750  0.37033300  1
  N  1504  1  0.02144100  0.60207700  0.31532900  1
  N  1506  1  0.67104400  0.36519450  0.08602650  1
  N  1509  1  0.61303950  0.33405000  0.05114950  1
  N  1519  1  0.66484050  0.37036200  0.12674550  1
  N  1520  1  0.61355100  0.31532100  0.00996900  1
  N  1522  1  0.35896100  0.64185300  0.05059900  1
  N  1525  1  0.36267250  0.61871250  0.08546700  1
  N  1535  1  0.32342000  0.59492750  0.00986650  1
  N  1536  1  0.38515550  0.66040450  0.12666100  1
  N  1538  1  0.48854350  0.49478750  0.77394700  1
  N  1541  1  0.54655050  0.51793150  0.80080900  1
  N  1551  1  0.49473300  0.54170600  0.78530600  1
  N  1552  1  0.54605950  0.47624100  0.78160450  1
  N  1554  1  0.80061500  0.77144150  0.36269450  1
  N  1557  1  0.79688800  0.80258550  0.33583250  1
  N  1567  1  0.83616500  0.76626650  0.35131950  1
  N  1568  1  0.77442900  0.82131250  0.35506450  1
  N  1570  1  0.65333250  0.05061150  0.34748000  1
  N  1573  1  0.63019950  0.08548350  0.35120400  1
  N  1583  1  0.60640550  0.00988050  0.31194300  1
  N  1584  1  0.67189000  0.12667100  0.37366800  1
  N  1586  1  0.37668700  0.08603850  0.65957550  1
  N  1589  1  0.34553450  0.05116500  0.60156850  1
  N  1599  1  0.38185200  0.12675950  0.65337550  1
  N  1600  1  0.32681950  0.00997900  0.60207650  1
  N  1602  1  0.78290450  0.36268200  0.78914750  1
  N  1605  1  0.81406250  0.33583200  0.78544350  1
  N  1615  1  0.77770700  0.35130050  0.82468850  1
  N  1616  1  0.83277200  0.35503150  0.76295350  1
  N  1618  1  0.50624500  0.77393650  0.47706950  1
  N  1621  1  0.52937500  0.80080850  0.53507250  1
  N  1631  1  0.55316400  0.78528850  0.48327350  1
  N  1632  1  0.48768450  0.78157250  0.53456800  1
  N  1634  1  0.37416700  0.64186550  0.65956650  1
  N  1637  1  0.34731550  0.61873000  0.60156150  1
  N  1647  1  0.36277400  0.59493850  0.65337250  1
  N  1648  1  0.36654650  0.66042100  0.60206450  1
  N  1650  1  0.78542500  0.36520000  0.34748600  1
  N  1653  1  0.81228100  0.33405100  0.35120500  1
  N  1663  1  0.79678800  0.37036950  0.31193050  1
  N  1664  1  0.79306400  0.31533400  0.37368000  1
  N  1666  1  0.06207050  0.77143550  0.47706800  1
  N  1669  1  0.09693200  0.80258650  0.53507550  1
  N  1679  1  0.02133250  0.76624150  0.48325300  1
  N  1680  1  0.13813400  0.82129350  0.53458550  1
  N  1682  1  0.09749950  0.49477050  0.78914600  1
  N  1685  1  0.06262150  0.51789650  0.78540200  1
  N  1695  1  0.13821050  0.54169000  0.82471350  1
  N  1696  1  0.02144150  0.47620350  0.76295100  1
  N  1698  1  0.67104400  0.36268650  0.64185450  1
  N  1701  1  0.61303950  0.33582650  0.61872700  1
  N  1711  1  0.66484050  0.35131450  0.59493100  1
  N  1712  1  0.61355000  0.35506600  0.66041900  1
  N  1714  1  0.35896100  0.77394550  0.36519950  1
  N  1717  1  0.36267250  0.80079700  0.33404250  1
  N  1727  1  0.32342000  0.78533000  0.37039100  1
  N  1728  1  0.38515550  0.78158800  0.31533150  1
  N  1730  1  0.48854350  0.05059250  0.77143300  1
  N  1733  1  0.54655050  0.08545700  0.80257950  1
  N  1743  1  0.49473300  0.00986350  0.76626350  1
  N  1744  1  0.54605950  0.12665550  0.82129200  1
  N  1746  1  0.80061500  0.08601100  0.49475800  1
  N  1749  1  0.79688800  0.05113900  0.51789200  1
  N  1759  1  0.83616500  0.12673550  0.54168250  1
  N  1760  1  0.77442900  0.00995300  0.47620100  1
  N  1762  1  0.65333200  0.65955750  0.36268850  1
  N  1765  1  0.63019950  0.60155350  0.33583300  1
  N  1775  1  0.60640550  0.65336250  0.35130000  1
  N  1776  1  0.67189000  0.60205600  0.35505900  1
  N  1778  1  0.37668750  0.34748600  0.77394850  1
  N  1781  1  0.34553500  0.35120700  0.80080200  1
  N  1791  1  0.38185050  0.31192950  0.78531300  1
  N  1792  1  0.32682000  0.37367950  0.78157950  1
  N  1794  1  0.78290450  0.47705850  0.05059300  1
  N  1797  1  0.81406200  0.53506700  0.08545600  1
  N  1807  1  0.77770650  0.48324300  0.00985550  1
  N  1808  1  0.83277350  0.53457800  0.12665650  1
  N  1810  1  0.50624500  0.78914600  0.08601300  1
  N  1813  1  0.52937500  0.78540350  0.05113950  1
  N  1823  1  0.55316400  0.82471350  0.12672850  1
  N  1824  1  0.48768450  0.76294850  0.00995300  1
  N  2210  1  0.29029800  0.91073200  0.67125500  1
  N  2213  1  0.30156900  0.92428400  0.72587000  1
  N  2223  1  0.24897500  0.91358900  0.65907100  1
  N  2224  1  0.33758850  0.91093250  0.73228400  1
  N  2226  1  0.86928800  0.46076850  0.70023050  1
  N  2229  1  0.85798200  0.50409150  0.70249450  1
  N  2239  1  0.91062400  0.48996950  0.74443850  1
  N  2240  1  0.82191500  0.47445900  0.65314600  1
  N  2242  1  0.84034650  0.22589700  0.43641950  1
  N  2245  1  0.88139450  0.21231450  0.43414400  1
  N  2255  1  0.82534600  0.22304450  0.39221950  1
  N  2256  1  0.90107550  0.22551550  0.48347100  1
  N  2258  1  0.31925250  0.67583050  0.46537300  1
  N  2261  1  0.27817950  0.63252750  0.41073500  1
  N  2271  1  0.33424850  0.64657650  0.47744400  1
  N  2272  1  0.25848350  0.66217700  0.40432150  1
  N  2274  1  0.68732450  0.46537800  0.30777350  1
  N  2277  1  0.64400400  0.41075000  0.26671000  1
  N  2287  1  0.65813300  0.47750100  0.32280300  1
  N  2288  1  0.67363900  0.40431850  0.24699550  1
  N  2290  1  0.23734400  0.43642450  0.82885350  1
  N  2293  1  0.22376850  0.43411650  0.86989500  1
  N  2303  1  0.23454100  0.39226900  0.81383500  1
  N  2304  1  0.23704250  0.48346600  0.88963550  1
  N  2306  1  0.47226350  0.70023100  0.85783950  1
  N  2309  1  0.51556250  0.70246600  0.84650150  1
  N  2319  1  0.50151350  0.74447700  0.89917150  1
  N  2320  1  0.48589450  0.65313950  0.81038000  1
  N  2322  1  0.92221750  0.67126050  0.27880800  1
  N  2325  1  0.93576850  0.72588500  0.29010750  1
  N  2335  1  0.92509050  0.65912850  0.23747600  1
  N  2336  1  0.92241800  0.73228200  0.32612400  1
  N  2338  1  0.44789300  0.82885700  0.22589300  1
  N  2341  1  0.44559500  0.86990400  0.21232100  1
  N  2351  1  0.40371950  0.81382050  0.22305200  1
  N  2352  1  0.49494450  0.88964050  0.22559800  1
  N  2354  1  0.47683600  0.30777950  0.67585650  1
  N  2357  1  0.42220550  0.26671800  0.63253450  1
  N  2367  1  0.48896250  0.32278250  0.64664600  1
  N  2368  1  0.41577200  0.24700350  0.66216850  1
  N  2370  1  0.68274100  0.27881800  0.91072900  1
  N  2373  1  0.73736750  0.29012550  0.92429000  1
  N  2383  1  0.67060700  0.23747950  0.91359850  1
  N  2384  1  0.74380250  0.32619850  0.91101600  1
  N  2386  1  0.71172950  0.85785150  0.46079300  1
  N  2389  1  0.71396350  0.84651950  0.50409900  1
  N  2399  1  0.75597450  0.89917500  0.49003950  1
  N  2400  1  0.66461700  0.81045550  0.47445050  1
  N  2402  1  0.29029850  0.43640250  0.67588000  1
  N  2405  1  0.30156850  0.43412100  0.63253550  1
  N  2415  1  0.24897600  0.39222350  0.64674250  1
  N  2416  1  0.33758850  0.48349250  0.66214100  1
  N  2418  1  0.86928600  0.46535600  0.22589400  1
  N  2421  1  0.85798150  0.41072700  0.21232450  1
  N  2431  1  0.91062250  0.47749200  0.22302250  1
  N  2432  1  0.82191400  0.40429200  0.22560600  1
  N  2434  1  0.84034750  0.67128700  0.46076350  1
  N  2437  1  0.88139450  0.72591700  0.50408750  1
  N  2447  1  0.82534500  0.65913750  0.48996150  1
  N  2448  1  0.90107550  0.73239750  0.47444200  1
  N  2450  1  0.31925250  0.70025900  0.91071650  1
  N  2453  1  0.27818000  0.70248950  0.92428150  1
  N  2463  1  0.33424900  0.74450950  0.91364250  1
  N  2464  1  0.25848350  0.65314350  0.91099900  1
  N  2466  1  0.68732450  0.27878400  0.43638850  1
  N  2469  1  0.64400400  0.29009050  0.43413050  1
  N  2479  1  0.65813300  0.23746850  0.39216650  1
  N  2480  1  0.67363900  0.32615750  0.48348050  1
  N  2482  1  0.23734400  0.85775450  0.46532650  1
  N  2485  1  0.22376750  0.84649000  0.41071150  1
  N  2495  1  0.23454600  0.89910600  0.47755100  1
  N  2496  1  0.23704200  0.81041400  0.40424300  1
  N  2498  1  0.47226350  0.82886750  0.67125900  1
  N  2501  1  0.51556150  0.86993250  0.72589800  1
  N  2511  1  0.50151400  0.81387350  0.65917950  1
  N  2512  1  0.48589600  0.88959300  0.73235200  1
  N  2514  1  0.92221700  0.30779400  0.70024700  1
  N  2517  1  0.93576850  0.26672050  0.70249800  1
  N  2527  1  0.92509150  0.32279850  0.74445400  1
  N  2528  1  0.92241850  0.24697350  0.65313100  1
  N  2530  1  0.44789300  0.67587300  0.27883700  1
  N  2533  1  0.44559500  0.63252700  0.29011000  1
  N  2543  1  0.40372050  0.64673800  0.23750550  1
  N  2544  1  0.49494450  0.66214000  0.32618250  1
  N  2546  1  0.47683600  0.22589350  0.85781650  1
  N  2549  1  0.42220550  0.21232450  0.84650800  1
  N  2559  1  0.48896350  0.22301700  0.89915250  1
  N  2560  1  0.41577200  0.22560550  0.81044050  1
  N  2562  1  0.68274000  0.46075900  0.82884900  1
  N  2565  1  0.73736750  0.50407900  0.86991450  1
  N  2575  1  0.67060700  0.48996400  0.81384500  1
  N  2576  1  0.74380250  0.47444050  0.88962300  1
  N  2578  1  0.71173150  0.91071750  0.30777400  1
  N  2581  1  0.71396350  0.92428100  0.26670150  1
  N  2591  1  0.75597450  0.91363650  0.32277200  1
  N  2592  1  0.66461700  0.91099900  0.24700400  1
  O  1449  1  0.32795900  0.82382300  0.81479000  1
  O  1450  1  0.30344400  0.80449400  0.76986000  1
  O  1452  1  0.41080150  0.76816150  0.77450900  1
  O  1453  1  0.38130350  0.73153100  0.77049250  1
  O  1465  1  0.83163450  0.56661900  0.57567050  1
  O  1466  1  0.85614800  0.54620100  0.58085400  1
  O  1468  1  0.74878800  0.44351200  0.43715200  1
  O  1469  1  0.77834800  0.46897200  0.43006000  1
  O  1481  1  0.07071900  0.31278200  0.56093300  1
  O  1482  1  0.04512150  0.33211550  0.55576200  1
  O  1484  1  0.08616100  0.36846350  0.69946550  1
  O  1485  1  0.11869150  0.40512150  0.70653900  1
  O  1497  1  0.08880100  0.56998900  0.32184700  1
  O  1498  1  0.11445050  0.59043200  0.36677350  1
  O  1500  1  0.07346050  0.69313950  0.36213200  1
  O  1501  1  0.04083550  0.66765850  0.36613900  1
  O  1513  1  0.58146900  0.32184500  0.07733300  1
  O  1514  1  0.60190750  0.36677300  0.10297450  1
  O  1516  1  0.70461550  0.36213150  0.06198700  1
  O  1517  1  0.67913500  0.36614050  0.02936550  1
  O  1529  1  0.32426850  0.56095250  0.05925800  1
  O  1530  1  0.34360450  0.55577550  0.03366300  1
  O  1532  1  0.37994700  0.69947550  0.07467850  1
  O  1533  1  0.41659900  0.70656350  0.10722850  1
  O  1545  1  0.57810050  0.57569100  0.82016750  1
  O  1546  1  0.55767400  0.58086700  0.84467100  1
  O  1548  1  0.45500500  0.43716250  0.73731450  1
  O  1549  1  0.48046050  0.43008550  0.76689600  1
  O  1561  1  0.83529100  0.81478950  0.31647750  1
  O  1562  1  0.81596950  0.76986000  0.29196850  1
  O  1564  1  0.77963450  0.77450900  0.39932550  1
  O  1565  1  0.74300450  0.77049450  0.36982900  1
  O  1577  1  0.57244100  0.05929100  0.31281700  1
  O  1578  1  0.56724650  0.03365400  0.33210750  1
  O  1580  1  0.71094500  0.07466100  0.36845700  1
  O  1581  1  0.71807800  0.10727350  0.40508950  1
  O  1593  1  0.33333100  0.07736700  0.57001400  1
  O  1594  1  0.37826100  0.10296600  0.59042600  1
  O  1596  1  0.37360450  0.06197000  0.69312950  1
  O  1597  1  0.37769500  0.02940900  0.66766500  1
  O  1609  1  0.82625350  0.31648650  0.82385900  1
  O  1610  1  0.78132200  0.29195150  0.80448650  1
  O  1612  1  0.78600150  0.39931500  0.76815350  1
  O  1613  1  0.78187700  0.36973050  0.73149750  1
  O  1625  1  0.58713100  0.82017650  0.56664350  1
  O  1626  1  0.59233300  0.84465400  0.54619500  1
  O  1628  1  0.44863350  0.73730500  0.44350350  1
  O  1629  1  0.44149400  0.76679950  0.46897950  1
  O  1641  1  0.32795900  0.56097250  0.57000550  1
  O  1642  1  0.30344400  0.55578700  0.59042100  1
  O  1644  1  0.41080150  0.69947800  0.69312850  1
  O  1645  1  0.38130350  0.70660950  0.66764800  1
  O  1657  1  0.83163500  0.32185350  0.31280050  1
  O  1658  1  0.85614800  0.36678350  0.33213050  1
  O  1660  1  0.74878800  0.36211150  0.36847150  1
  O  1661  1  0.77834800  0.36621250  0.40512450  1
  O  1673  1  0.07071900  0.81477450  0.56662350  1
  O  1674  1  0.04512200  0.76984350  0.54619650  1
  O  1676  1  0.08616100  0.77453350  0.44353150  1
  O  1677  1  0.11869050  0.77040500  0.46898850  1
  O  1689  1  0.08880300  0.57565100  0.82379200  1
  O  1690  1  0.11445150  0.58085700  0.80451450  1
  O  1692  1  0.07346050  0.43715950  0.76816700  1
  O  1693  1  0.04083650  0.43001450  0.73153300  1
  O  1705  1  0.58146900  0.31645950  0.56097150  1
  O  1706  1  0.60190750  0.29197100  0.55576950  1
  O  1708  1  0.70461550  0.39932100  0.69946550  1
  O  1709  1  0.67913500  0.36983250  0.70660750  1
  O  1721  1  0.32426850  0.82015300  0.32184750  1
  O  1722  1  0.34360450  0.84466600  0.36677850  1
  O  1724  1  0.37994750  0.73730850  0.36210600  1
  O  1725  1  0.41659900  0.76687200  0.36620700  1
  O  1737  1  0.57810050  0.05924650  0.81477000  1
  O  1738  1  0.55767400  0.03364350  0.76983950  1
  O  1740  1  0.45500450  0.07467900  0.77452750  1
  O  1741  1  0.48046050  0.10721200  0.77040150  1
  O  1753  1  0.83529100  0.07733800  0.57565000  1
  O  1754  1  0.81596950  0.10294650  0.58083800  1
  O  1756  1  0.77963400  0.06196250  0.43714550  1
  O  1757  1  0.74300350  0.02934650  0.43001100  1
  O  1769  1  0.57244100  0.56998600  0.31646000  1
  O  1770  1  0.56724700  0.59042950  0.29197650  1
  O  1772  1  0.71094500  0.69312100  0.39932500  1
  O  1773  1  0.71807800  0.66764150  0.36982550  1
  O  1785  1  0.33332950  0.31280100  0.82015250  1
  O  1786  1  0.37825950  0.33213200  0.84467050  1
  O  1788  1  0.37360550  0.36847250  0.73731200  1
  O  1789  1  0.37769450  0.40512200  0.76686550  1
  O  1801  1  0.82625350  0.56660450  0.05923200  1
  O  1802  1  0.78132200  0.54620700  0.03367200  1
  O  1804  1  0.78600150  0.44352350  0.07468500  1
  O  1805  1  0.78187800  0.46898450  0.10721650  1
  O  1817  1  0.58713100  0.82379200  0.07732500  1
  O  1818  1  0.59233300  0.80451600  0.10297500  1
  O  1820  1  0.44863350  0.76816500  0.06196650  1
  O  1821  1  0.44149350  0.73153150  0.02935000  1
  O  2217  1  0.27734050  0.95573050  0.74627200  1
  O  2218  1  0.23688150  0.92446550  0.70892400  1
  O  2220  1  0.31870250  0.89030100  0.64907650  1
  O  2221  1  0.35300850  0.90329650  0.68832400  1
  O  2233  1  0.88220750  0.54871900  0.75817550  1
  O  2234  1  0.92267600  0.55184600  0.76738800  1
  O  2236  1  0.84087850  0.41017200  0.65140450  1
  O  2237  1  0.80661250  0.41513550  0.63004700  1
  O  2249  1  0.87033100  0.18086900  0.37845700  1
  O  2250  1  0.86422700  0.21211350  0.36923450  1
  O  2252  1  0.83856350  0.24628600  0.48523550  1
  O  2253  1  0.86497500  0.23348450  0.50664050  1
  O  2265  1  0.28922150  0.58789150  0.39030400  1
  O  2266  1  0.29531800  0.58475100  0.42764100  1
  O  2268  1  0.32104850  0.72644100  0.48758150  1
  O  2269  1  0.29474550  0.72150350  0.44835900  1
  O  2281  1  0.59937150  0.39033500  0.27775250  1
  O  2282  1  0.59624000  0.42767300  0.28383100  1
  O  2284  1  0.73792300  0.48757500  0.30955000  1
  O  2285  1  0.73298150  0.44834350  0.28326300  1
  O  2297  1  0.19233750  0.37843150  0.85883200  1
  O  2298  1  0.22360150  0.36924000  0.85274050  1
  O  2300  1  0.25775700  0.48526300  0.82711300  1
  O  2301  1  0.24488100  0.50662000  0.85347300  1
  O  2313  1  0.56019250  0.75815100  0.87071550  1
  O  2314  1  0.56333550  0.76739100  0.91119350  1
  O  2316  1  0.42164900  0.65142800  0.82943100  1
  O  2317  1  0.42661500  0.63002200  0.79518900  1
  O  2329  1  0.96723050  0.74630450  0.26589300  1
  O  2330  1  0.93598600  0.70895850  0.22542550  1
  O  2332  1  0.90179250  0.64906850  0.30721200  1
  O  2333  1  0.91476500  0.68830650  0.34151350  1
  O  2345  1  0.38991500  0.85884850  0.18088450  1
  O  2346  1  0.38072300  0.85276550  0.21215050  1
  O  2348  1  0.49672550  0.82710700  0.24630850  1
  O  2349  1  0.51807000  0.85343050  0.23339550  1
  O  2361  1  0.40180100  0.27776950  0.58790550  1
  O  2362  1  0.43914100  0.28385600  0.58477700  1
  O  2364  1  0.49902200  0.30954500  0.72645100  1
  O  2365  1  0.45979300  0.28322950  0.72149050  1
  O  2377  1  0.75777350  0.26590200  0.95574850  1
  O  2378  1  0.72042750  0.22543200  0.92450750  1
  O  2380  1  0.66055200  0.30723050  0.89032050  1
  O  2381  1  0.69977600  0.34148950  0.90321150  1
  O  2393  1  0.76964100  0.87072350  0.54873150  1
  O  2394  1  0.77887700  0.91120150  0.55187250  1
  O  2396  1  0.66291750  0.82944850  0.41018300  1
  O  2397  1  0.64155350  0.79516300  0.41512050  1
  O  2409  1  0.27734050  0.37844600  0.58790450  1
  O  2410  1  0.23688150  0.36925350  0.58479500  1
  O  2412  1  0.31870250  0.48523850  0.72646300  1
  O  2413  1  0.35300850  0.50654850  0.72152100  1
  O  2425  1  0.88220750  0.39032550  0.18086900  1
  O  2426  1  0.92267550  0.42766750  0.21212600  1
  O  2428  1  0.84087600  0.48754150  0.24630950  1
  O  2429  1  0.80661100  0.44831200  0.23340200  1
  O  2441  1  0.87033100  0.74629900  0.54871100  1
  O  2442  1  0.86422700  0.70895050  0.55182950  1
  O  2444  1  0.83856400  0.64911400  0.41016400  1
  O  2445  1  0.86497450  0.68832750  0.41517100  1
  O  2457  1  0.28922150  0.75816600  0.95575350  1
  O  2458  1  0.29531750  0.76740400  0.92451450  1
  O  2460  1  0.32104850  0.65144500  0.89030450  1
  O  2461  1  0.29474700  0.63008050  0.90322450  1
  O  2473  1  0.59937150  0.26587300  0.37845550  1
  O  2474  1  0.59624000  0.22540350  0.36924550  1
  O  2476  1  0.73792300  0.30718500  0.48521000  1
  O  2477  1  0.73298150  0.34147450  0.50655500  1
  O  2489  1  0.19234100  0.87074600  0.39034600  1
  O  2490  1  0.22360300  0.91120000  0.42770100  1
  O  2492  1  0.25775700  0.82932850  0.48747850  1
  O  2493  1  0.24487950  0.79509700  0.44824250  1
  O  2505  1  0.56019150  0.85887850  0.74631300  1
  O  2506  1  0.56333450  0.85278050  0.70897700  1
  O  2508  1  0.42164800  0.82705900  0.64905600  1
  O  2509  1  0.42661500  0.85343000  0.68826300  1
  O  2521  1  0.96723050  0.27776250  0.75817400  1
  O  2522  1  0.93598650  0.28386450  0.76739800  1
  O  2524  1  0.90179250  0.30956100  0.65141750  1
  O  2525  1  0.91476500  0.28329550  0.63008850  1
  O  2537  1  0.38991500  0.58790400  0.26586800  1
  O  2538  1  0.38072250  0.58479450  0.22540900  1
  O  2540  1  0.49672350  0.72645450  0.30725400  1
  O  2541  1  0.51807050  0.72147500  0.34151050  1
  O  2553  1  0.40179950  0.18086900  0.87073150  1
  O  2554  1  0.43914100  0.21212250  0.91120150  1
  O  2556  1  0.49902200  0.24631450  0.82940850  1
  O  2557  1  0.45979300  0.23339950  0.79513850  1
  O  2569  1  0.75777350  0.54870800  0.85886150  1
  O  2570  1  0.72042850  0.55183200  0.85275750  1
  O  2572  1  0.66055150  0.41015800  0.82706850  1
  O  2573  1  0.69977650  0.41512300  0.85340050  1
  O  2585  1  0.76964100  0.95575400  0.27774600  1
  O  2586  1  0.77887700  0.92451300  0.28384200  1
  O  2588  1  0.66291750  0.89030600  0.30957150  1
  O  2589  1  0.64155250  0.90322500  0.28326850  1
