# generated using pymatgen
data_H26C41(N3O2)2
_symmetry_space_group_name_H-M   'P 1'
_cell_length_a   82.54140000
_cell_length_b   82.54140000
_cell_length_c   82.54140000
_cell_angle_alpha   90.00000000
_cell_angle_beta   90.00000000
_cell_angle_gamma   90.00000000
_symmetry_Int_Tables_number   1
_chemical_formula_structural   H26C41(N3O2)2
_chemical_formula_sum   'H1248 C1968 N288 O192'
_cell_volume   562361.38552606
_cell_formula_units_Z   48
loop_
 _symmetry_equiv_pos_site_id
 _symmetry_equiv_pos_as_xyz
  1  'x, y, z'
loop_
 _atom_site_type_symbol
 _atom_site_label
 _atom_site_symmetry_multiplicity
 _atom_site_fract_x
 _atom_site_fract_y
 _atom_site_fract_z
 _atom_site_occupancy
  H  26  1  0.09642700  0.35474400  0.87483500  1
  H  27  1  0.12162600  0.34856500  0.88745100  1
  H  28  1  0.07194800  0.34302200  0.91804300  1
  H  29  1  0.09697400  0.33702500  0.93068300  1
  H  30  1  0.11436900  0.31110300  0.93498200  1
  H  31  1  0.11073700  0.28386200  0.92622500  1
  H  32  1  0.13369100  0.29497100  0.88201300  1
  H  33  1  0.13746900  0.32205700  0.89073700  1
  H  34  1  0.15933900  0.32559900  0.91837900  1
  H  35  1  0.18420500  0.33836500  0.91199500  1
  H  36  1  0.15944100  0.38180400  0.90180000  1
  H  37  1  0.13439900  0.36904300  0.90834000  1
  H  38  1  0.11818900  0.36513400  0.93460400  1
  H  39  1  0.14266700  0.32145600  0.94479800  1
  H  40  1  0.14631400  0.32998000  0.97209700  1
  H  45  1  0.12199500  0.37365100  0.96174900  1
  H  71  1  0.40997100  0.65178100  0.37480400  1
  H  72  1  0.38477900  0.65797100  0.38742600  1
  H  73  1  0.43445100  0.66332800  0.41805500  1
  H  74  1  0.40943100  0.66933500  0.43070000  1
  H  75  1  0.39213400  0.69531700  0.43494400  1
  H  76  1  0.39578900  0.72255400  0.42618300  1
  H  77  1  0.37268100  0.71149400  0.38204100  1
  H  78  1  0.36888300  0.68441700  0.39077000  1
  H  79  1  0.34706300  0.68086000  0.41848000  1
  H  80  1  0.32218100  0.66813600  0.41209300  1
  H  81  1  0.34690000  0.62472400  0.40167500  1
  H  82  1  0.37196000  0.63744400  0.40822700  1
  H  83  1  0.38811600  0.64126100  0.43455400  1
  H  84  1  0.36383900  0.68503300  0.44483500  1
  H  85  1  0.36023000  0.67650700  0.47213900  1
  H  90  1  0.38435300  0.63274800  0.46170800  1
  H  116  1  0.90999600  0.85467300  0.63166000  1
  H  117  1  0.88480500  0.84849000  0.61903600  1
  H  118  1  0.93447200  0.84313500  0.58840400  1
  H  119  1  0.90945300  0.83713400  0.57576000  1
  H  120  1  0.89216700  0.81113500  0.57153500  1
  H  121  1  0.89581700  0.78390000  0.58029600  1
  H  122  1  0.87268700  0.79495800  0.62442900  1
  H  123  1  0.86889400  0.82203500  0.61569700  1
  H  124  1  0.84709800  0.82560500  0.58796700  1
  H  125  1  0.82221200  0.83833200  0.59433200  1
  H  126  1  0.84692700  0.88174300  0.60475700  1
  H  127  1  0.87198900  0.86901900  0.59822700  1
  H  128  1  0.88811800  0.86518800  0.57188000  1
  H  129  1  0.86387100  0.82140000  0.56163300  1
  H  130  1  0.86022800  0.82991100  0.53433400  1
  H  135  1  0.88431300  0.87369900  0.54473300  1
  H  161  1  0.59642000  0.15181100  0.13163800  1
  H  162  1  0.62162000  0.15798900  0.11902700  1
  H  163  1  0.57196900  0.16333700  0.08836200  1
  H  164  1  0.59699800  0.16933100  0.07572900  1
  H  165  1  0.61430200  0.19531400  0.07152500  1
  H  166  1  0.61067200  0.22255700  0.08028000  1
  H  167  1  0.63380200  0.21149900  0.12441200  1
  H  168  1  0.63757200  0.18441200  0.11569200  1
  H  169  1  0.65936900  0.18080700  0.08799400  1
  H  170  1  0.68423300  0.16803700  0.09438400  1
  H  171  1  0.65943700  0.12466200  0.10478000  1
  H  172  1  0.63439700  0.13742800  0.09823300  1
  H  173  1  0.61830300  0.14127200  0.07188400  1
  H  174  1  0.64259800  0.18504200  0.06163600  1
  H  175  1  0.64622400  0.17652700  0.03433200  1
  H  180  1  0.62209400  0.13276300  0.04473200  1
  H  206  1  0.87483300  0.09644000  0.35466200  1
  H  207  1  0.88744300  0.12164000  0.34848100  1
  H  208  1  0.91809500  0.07198300  0.34310200  1
  H  209  1  0.93073000  0.09701000  0.33710500  1
  H  210  1  0.93495800  0.11432200  0.31113400  1
  H  211  1  0.92619400  0.11067200  0.28389600  1
  H  212  1  0.88205100  0.13377900  0.29496600  1
  H  213  1  0.89078200  0.13756700  0.32204500  1
  H  214  1  0.91844000  0.15939400  0.32564200  1
  H  215  1  0.91203800  0.18425200  0.33841900  1
  H  216  1  0.90171600  0.15944400  0.38180200  1
  H  217  1  0.90827400  0.13441400  0.36902900  1
  H  218  1  0.93460200  0.11829400  0.36518200  1
  H  219  1  0.94481900  0.14263300  0.32143300  1
  H  220  1  0.97212500  0.14625600  0.32993300  1
  H  225  1  0.96175800  0.12208400  0.37368200  1
  H  251  1  0.37483000  0.40999800  0.65174200  1
  H  252  1  0.38745800  0.38480700  0.65792200  1
  H  253  1  0.41804800  0.43448900  0.66339900  1
  H  254  1  0.43069700  0.40946900  0.66939600  1
  H  255  1  0.43496800  0.39211000  0.69534800  1
  H  256  1  0.42620200  0.39575300  0.72258300  1
  H  257  1  0.38202900  0.37271900  0.71148400  1
  H  258  1  0.39076600  0.36893400  0.68440700  1
  H  259  1  0.41843600  0.34709400  0.68084200  1
  H  260  1  0.41207000  0.32222500  0.66807700  1
  H  261  1  0.40181300  0.34699000  0.62465400  1
  H  262  1  0.40833700  0.37203300  0.63741700  1
  H  263  1  0.43462600  0.38820900  0.64131200  1
  H  264  1  0.44482100  0.36379800  0.68502100  1
  H  265  1  0.47212100  0.36015000  0.67650900  1
  H  270  1  0.46177300  0.38440500  0.63280400  1
  H  296  1  0.63161300  0.91003400  0.85474800  1
  H  297  1  0.61900000  0.88484000  0.84855600  1
  H  298  1  0.58840300  0.93451400  0.84304600  1
  H  299  1  0.57576500  0.90949000  0.83704000  1
  H  300  1  0.57147300  0.89210000  0.81110500  1
  H  301  1  0.58023500  0.89573100  0.78386400  1
  H  302  1  0.62444300  0.87277600  0.79498500  1
  H  303  1  0.61571300  0.86900200  0.82206600  1
  H  304  1  0.58808200  0.84711200  0.82559900  1
  H  305  1  0.59447000  0.82224800  0.83836500  1
  H  306  1  0.60466800  0.84701500  0.88180100  1
  H  307  1  0.59812200  0.87205500  0.86903900  1
  H  308  1  0.57185600  0.88824800  0.86515000  1
  H  309  1  0.56165800  0.86380700  0.82145100  1
  H  310  1  0.53435500  0.86016600  0.82996900  1
  H  315  1  0.54470700  0.88444700  0.87366100  1
  H  341  1  0.13165000  0.59646200  0.15171300  1
  H  342  1  0.11902600  0.62165200  0.15790100  1
  H  343  1  0.08843700  0.57197100  0.16337600  1
  H  344  1  0.07579100  0.59698900  0.16938000  1
  H  345  1  0.07149300  0.61432800  0.19533200  1
  H  346  1  0.08025300  0.61068200  0.22257100  1
  H  347  1  0.12444200  0.63368900  0.21147800  1
  H  348  1  0.11571300  0.63748000  0.18440000  1
  H  349  1  0.08804400  0.65934900  0.18088400  1
  H  350  1  0.09443200  0.68423300  0.16815900  1
  H  351  1  0.10471000  0.65952900  0.12470700  1
  H  352  1  0.09816000  0.63446800  0.13742700  1
  H  353  1  0.07186600  0.61825600  0.14127800  1
  H  354  1  0.06166000  0.64262600  0.18501300  1
  H  355  1  0.03435600  0.64625800  0.17650900  1
  H  360  1  0.04471200  0.62204900  0.13277800  1
  H  386  1  0.35473500  0.87483500  0.09641500  1
  H  387  1  0.34855400  0.88744100  0.12161900  1
  H  388  1  0.34304000  0.91806200  0.07195700  1
  H  389  1  0.33704400  0.93069200  0.09698700  1
  H  390  1  0.31110600  0.93496100  0.11436200  1
  H  391  1  0.28386600  0.92620000  0.11072900  1
  H  392  1  0.29497600  0.88200100  0.13370900  1
  H  393  1  0.32205900  0.89073000  0.13748900  1
  H  394  1  0.32560200  0.91839500  0.15934300  1
  H  395  1  0.33836000  0.91201000  0.18421200  1
  H  396  1  0.38178900  0.90175700  0.15945500  1
  H  397  1  0.36903700  0.90830000  0.13440900  1
  H  398  1  0.36514800  0.93459100  0.11823300  1
  H  399  1  0.32143300  0.94479200  0.14264400  1
  H  400  1  0.32994600  0.97209500  0.14628300  1
  H  405  1  0.37365500  0.96174100  0.12203500  1
  H  431  1  0.65175800  0.37478200  0.40995000  1
  H  432  1  0.65796700  0.38741100  0.38476500  1
  H  433  1  0.66333000  0.41801300  0.43445200  1
  H  434  1  0.66935500  0.43066600  0.40943900  1
  H  435  1  0.69532800  0.43493900  0.39213100  1
  H  436  1  0.72256600  0.42618600  0.39578600  1
  H  437  1  0.71151300  0.38203100  0.37269800  1
  H  438  1  0.68443400  0.39075300  0.36890100  1
  H  439  1  0.68088300  0.41844800  0.34707000  1
  H  440  1  0.66816100  0.41207300  0.32218500  1
  H  441  1  0.62473300  0.40169400  0.34689100  1
  H  442  1  0.63745200  0.40823300  0.37195400  1
  H  443  1  0.64127800  0.43453500  0.38814300  1
  H  444  1  0.68502900  0.44481800  0.36383100  1
  H  445  1  0.67649300  0.47212000  0.36021700  1
  H  450  1  0.63275500  0.46168500  0.38437900  1
  H  476  1  0.85461900  0.63165200  0.91001900  1
  H  477  1  0.84845800  0.61904100  0.88481300  1
  H  478  1  0.84314600  0.58835200  0.93445000  1
  H  479  1  0.83717200  0.57572300  0.90942000  1
  H  480  1  0.81115800  0.57154600  0.89216800  1
  H  481  1  0.78392600  0.58030800  0.89582500  1
  H  482  1  0.79496200  0.62441300  0.87263400  1
  H  483  1  0.82204000  0.61568300  0.86883900  1
  H  484  1  0.82564800  0.58793700  0.84706700  1
  H  485  1  0.83838600  0.59431400  0.82218900  1
  H  486  1  0.88175800  0.60481900  0.84693600  1
  H  487  1  0.86902400  0.59827700  0.87199100  1
  H  488  1  0.86521700  0.57188800  0.88805600  1
  H  489  1  0.82139600  0.56162300  0.86387600  1
  H  490  1  0.82990300  0.53432100  0.86024100  1
  H  495  1  0.87372400  0.54473800  0.88425700  1
  H  521  1  0.15178200  0.13163700  0.59642900  1
  H  522  1  0.15795700  0.11901500  0.62162500  1
  H  523  1  0.16337100  0.08839300  0.57195400  1
  H  524  1  0.16936600  0.07574800  0.59697800  1
  H  525  1  0.19532700  0.07149900  0.61432500  1
  H  526  1  0.22257200  0.08025000  0.61070200  1
  H  527  1  0.21149600  0.12441400  0.63376100  1
  H  528  1  0.18440800  0.11569900  0.63752600  1
  H  529  1  0.18082600  0.08802700  0.65935400  1
  H  530  1  0.16805800  0.09442100  0.68421700  1
  H  531  1  0.12465600  0.10472900  0.65943400  1
  H  532  1  0.13742000  0.09817800  0.63439500  1
  H  533  1  0.14129400  0.07186600  0.61824600  1
  H  534  1  0.18502100  0.06164400  0.64262900  1
  H  535  1  0.17649800  0.03434400  0.64627000  1
  H  540  1  0.13277900  0.04471800  0.62204700  1
  H  566  1  0.10417900  0.34654000  0.38108000  1
  H  567  1  0.09780200  0.37169400  0.36848200  1
  H  568  1  0.09308900  0.32204900  0.33771100  1
  H  569  1  0.08692000  0.34703300  0.32508700  1
  H  570  1  0.06075400  0.36408300  0.32101700  1
  H  571  1  0.03352700  0.36036000  0.32979600  1
  H  572  1  0.04442900  0.38396400  0.37371400  1
  H  573  1  0.07149400  0.38780300  0.36497800  1
  H  574  1  0.07523800  0.40942600  0.33721500  1
  H  575  1  0.08798700  0.43427800  0.34370500  1
  H  576  1  0.13123700  0.40942900  0.35448900  1
  H  577  1  0.11850800  0.38441700  0.34780700  1
  H  578  1  0.11481700  0.36854100  0.32132100  1
  H  579  1  0.07085000  0.39242500  0.31096600  1
  H  580  1  0.07935700  0.39604900  0.28366300  1
  H  585  1  0.12332800  0.37234500  0.29417000  1
  H  611  1  0.40233600  0.65994500  0.88108300  1
  H  612  1  0.40869200  0.63478800  0.86847800  1
  H  613  1  0.41334100  0.68441900  0.83767900  1
  H  614  1  0.41948700  0.65943400  0.82505600  1
  H  615  1  0.44567300  0.64243200  0.82102900  1
  H  616  1  0.47289500  0.64616800  0.82980800  1
  H  617  1  0.46202800  0.62246800  0.87368400  1
  H  618  1  0.43496600  0.61861800  0.86494600  1
  H  619  1  0.43117800  0.59705000  0.83713600  1
  H  620  1  0.41842900  0.57219700  0.84361800  1
  H  621  1  0.37521200  0.59705600  0.85451400  1
  H  622  1  0.38794100  0.62206700  0.84783900  1
  H  623  1  0.39161900  0.63787900  0.82131000  1
  H  624  1  0.43561900  0.61407500  0.81093000  1
  H  625  1  0.42710600  0.61044000  0.78362900  1
  H  630  1  0.38309900  0.63406400  0.79416500  1
  H  656  1  0.60420200  0.15993100  0.62537600  1
  H  657  1  0.59781500  0.13478000  0.63797300  1
  H  658  1  0.59303600  0.18443200  0.66872200  1
  H  659  1  0.58685800  0.15945000  0.68134400  1
  H  660  1  0.56072700  0.14235000  0.68546200  1
  H  661  1  0.53349700  0.14606700  0.67669000  1
  H  662  1  0.54441700  0.12255300  0.63272700  1
  H  663  1  0.57148400  0.11871800  0.64145600  1
  H  664  1  0.57520800  0.09705500  0.66919200  1
  H  665  1  0.58796400  0.07220400  0.66271400  1
  H  666  1  0.63123500  0.09705300  0.65200400  1
  H  667  1  0.61849800  0.12206400  0.65867400  1
  H  668  1  0.61478000  0.13797800  0.68511600  1
  H  669  1  0.57086000  0.11400400  0.69547700  1
  H  670  1  0.57940400  0.11035300  0.72277200  1
  H  675  1  0.62332100  0.13415200  0.71225200  1
  H  701  1  0.90226700  0.84654600  0.12535900  1
  H  702  1  0.90864000  0.87169900  0.13796200  1
  H  703  1  0.91335600  0.82205600  0.16872900  1
  H  704  1  0.91951900  0.84703700  0.18135300  1
  H  705  1  0.94568000  0.86406600  0.18544500  1
  H  706  1  0.97290700  0.86033200  0.17667300  1
  H  707  1  0.96202100  0.88393100  0.13274600  1
  H  708  1  0.93495700  0.88778300  0.14147700  1
  H  709  1  0.93123600  0.90941100  0.16925600  1
  H  710  1  0.91851900  0.93427700  0.16276300  1
  H  711  1  0.87524900  0.90947600  0.15194300  1
  H  712  1  0.88794600  0.88444900  0.15863200  1
  H  713  1  0.89161900  0.86855300  0.18512800  1
  H  714  1  0.93559700  0.89241500  0.19548700  1
  H  715  1  0.92708400  0.89605200  0.22279000  1
  H  720  1  0.88310300  0.87237000  0.21227500  1
  H  746  1  0.84652200  0.12537700  0.90225900  1
  H  747  1  0.87168200  0.13797300  0.90863000  1
  H  748  1  0.82204100  0.16875100  0.91336900  1
  H  749  1  0.84702700  0.18137100  0.91953000  1
  H  750  1  0.86408700  0.18544500  0.94568000  1
  H  751  1  0.86036100  0.17666900  0.97290600  1
  H  752  1  0.88395400  0.13274300  0.96201100  1
  H  753  1  0.88779700  0.14147400  0.93494300  1
  H  754  1  0.90940300  0.16925400  0.93119500  1
  H  755  1  0.93425600  0.16276300  0.91844800  1
  H  756  1  0.90940900  0.15195400  0.87520100  1
  H  757  1  0.88439500  0.15863900  0.88792600  1
  H  758  1  0.86852300  0.18512200  0.89162800  1
  H  759  1  0.89242100  0.19550200  0.93558400  1
  H  760  1  0.89606200  0.22280000  0.92704800  1
  H  765  1  0.87234200  0.21226200  0.88309200  1
  H  791  1  0.15989900  0.62532500  0.60410200  1
  H  792  1  0.13474700  0.63792600  0.59771800  1
  H  793  1  0.18437800  0.66874500  0.59317800  1
  H  794  1  0.15939800  0.68136700  0.58700100  1
  H  795  1  0.14243600  0.68538000  0.56078300  1
  H  796  1  0.14617600  0.67660100  0.53355900  1
  H  797  1  0.12242500  0.63274900  0.54440600  1
  H  798  1  0.11857100  0.64148300  0.57146700  1
  H  799  1  0.09701900  0.66932900  0.57523600  1
  H  800  1  0.07215000  0.66284300  0.58794600  1
  H  801  1  0.09695600  0.65182300  0.63116300  1
  H  802  1  0.12198700  0.65851000  0.61847400  1
  H  803  1  0.13780200  0.68505900  0.61485400  1
  H  804  1  0.11410500  0.69550900  0.57080500  1
  H  805  1  0.11051100  0.72281800  0.57932900  1
  H  810  1  0.13403500  0.71221200  0.62337300  1
  H  836  1  0.65992700  0.88111700  0.40232500  1
  H  837  1  0.63477300  0.86851600  0.40869800  1
  H  838  1  0.68440300  0.83771700  0.41332700  1
  H  839  1  0.65942200  0.82509500  0.41948900  1
  H  840  1  0.64242200  0.82105500  0.44567900  1
  H  841  1  0.64616000  0.82982500  0.47290500  1
  H  842  1  0.62247600  0.87371200  0.46204800  1
  H  843  1  0.61862400  0.86498300  0.43498400  1
  H  844  1  0.59705200  0.83715600  0.43121600  1
  H  845  1  0.57218500  0.84362700  0.41849600  1
  H  846  1  0.59699400  0.85456300  0.37525900  1
  H  847  1  0.62202300  0.84789200  0.38796100  1
  H  848  1  0.63785500  0.82135800  0.39162300  1
  H  849  1  0.61407500  0.81096200  0.43563200  1
  H  850  1  0.61041500  0.78366900  0.42710100  1
  H  855  1  0.63401800  0.79422100  0.38308700  1
  H  881  1  0.34650700  0.38109600  0.10413100  1
  H  882  1  0.37166400  0.36849900  0.09776600  1
  H  883  1  0.32203500  0.33769600  0.09311400  1
  H  884  1  0.34702100  0.32507600  0.08695600  1
  H  885  1  0.36405300  0.32103500  0.06078300  1
  H  886  1  0.36034200  0.32979800  0.03354900  1
  H  887  1  0.38399400  0.37370000  0.04441700  1
  H  888  1  0.38782100  0.36498300  0.07149100  1
  H  889  1  0.40940600  0.33718700  0.07526800  1
  H  890  1  0.43425700  0.34367200  0.08801900  1
  H  891  1  0.40939700  0.35455200  0.13124200  1
  H  892  1  0.38438400  0.34787300  0.11851200  1
  H  893  1  0.36855100  0.32135400  0.11483000  1
  H  894  1  0.39239800  0.31096200  0.07084800  1
  H  895  1  0.39604100  0.28366500  0.07938400  1
  H  900  1  0.37237300  0.29421400  0.12336500  1
  H  926  1  0.62537700  0.60419400  0.15991600  1
  H  927  1  0.63797800  0.59780800  0.13476600  1
  H  928  1  0.66874300  0.59310500  0.18441500  1
  H  929  1  0.68137000  0.58692600  0.15943400  1
  H  930  1  0.68545300  0.56076100  0.14237800  1
  H  931  1  0.67667600  0.53353400  0.14610600  1
  H  932  1  0.63274800  0.54443200  0.12251700  1
  H  933  1  0.64148200  0.57149600  0.11867200  1
  H  934  1  0.66923800  0.57523400  0.09704200  1
  H  935  1  0.66275000  0.58797900  0.07218800  1
  H  936  1  0.65197800  0.63123700  0.09702900  1
  H  937  1  0.65865900  0.61851300  0.12204300  1
  H  938  1  0.68513900  0.61482000  0.13793000  1
  H  939  1  0.69548900  0.57086000  0.11402900  1
  H  940  1  0.72278900  0.57937700  0.11038600  1
  H  945  1  0.71228400  0.62333900  0.13410800  1
  H  971  1  0.12535700  0.90231700  0.84651400  1
  H  972  1  0.13795500  0.90867600  0.87167200  1
  H  973  1  0.16874700  0.91337300  0.82204100  1
  H  974  1  0.18136600  0.91952300  0.84702700  1
  H  975  1  0.18541200  0.94569400  0.86405800  1
  H  976  1  0.17663600  0.97291700  0.86032600  1
  H  977  1  0.13273600  0.96203600  0.88397600  1
  H  978  1  0.14147200  0.93497200  0.88782100  1
  H  979  1  0.16927000  0.93119700  0.90941100  1
  H  980  1  0.16280000  0.91844500  0.93426500  1
  H  981  1  0.15194700  0.87521400  0.90941200  1
  H  982  1  0.15861100  0.88794700  0.88439800  1
  H  983  1  0.18512200  0.89164200  0.86856100  1
  H  984  1  0.19548900  0.93561900  0.89241200  1
  H  985  1  0.22278800  0.92710000  0.89605700  1
  H  990  1  0.21226300  0.88311800  0.87238300  1
  H  1016  1  0.38106900  0.10418700  0.34652100  1
  H  1017  1  0.36847000  0.09780100  0.37167200  1
  H  1018  1  0.33770700  0.09307500  0.32202300  1
  H  1019  1  0.32508300  0.08689900  0.34700500  1
  H  1020  1  0.32098900  0.06074500  0.36407800  1
  H  1021  1  0.32976700  0.03351700  0.36035400  1
  H  1022  1  0.37370600  0.04442700  0.38391700  1
  H  1023  1  0.36497200  0.07149200  0.38775700  1
  H  1024  1  0.33722500  0.07522600  0.40940000  1
  H  1025  1  0.34371500  0.08797800  0.43425000  1
  H  1026  1  0.35446900  0.13123600  0.40939700  1
  H  1027  1  0.34778700  0.11850400  0.38438700  1
  H  1028  1  0.32132400  0.11480200  0.36850600  1
  H  1029  1  0.31095300  0.07085300  0.39242100  1
  H  1030  1  0.28365500  0.07939000  0.39606700  1
  H  1035  1  0.29418600  0.12333800  0.37233100  1
  H  1061  1  0.88109000  0.40228300  0.65991500  1
  H  1062  1  0.86848600  0.40865000  0.63476300  1
  H  1063  1  0.83770800  0.41333100  0.68440200  1
  H  1064  1  0.82508300  0.41948900  0.65942100  1
  H  1065  1  0.82101600  0.44566700  0.64241400  1
  H  1066  1  0.82979600  0.47289100  0.64614500  1
  H  1067  1  0.87369600  0.46200700  0.62249700  1
  H  1068  1  0.86495900  0.43494500  0.61865000  1
  H  1069  1  0.83715700  0.43121300  0.59704500  1
  H  1070  1  0.84365600  0.41849700  0.57218000  1
  H  1071  1  0.85453300  0.37524500  0.59698700  1
  H  1072  1  0.84783700  0.38794000  0.62201300  1
  H  1073  1  0.82131900  0.39159600  0.63787900  1
  H  1074  1  0.81094200  0.43560200  0.61407700  1
  H  1075  1  0.78363600  0.42709900  0.61045900  1
  H  1080  1  0.79416500  0.38308800  0.63408000  1
  H  1106  1  0.91002800  0.65171200  0.13162000  1
  H  1107  1  0.88483000  0.65789200  0.11900300  1
  H  1108  1  0.93450700  0.66343000  0.08841100  1
  H  1109  1  0.90948200  0.66942800  0.07577000  1
  H  1110  1  0.89209000  0.69535100  0.07147300  1
  H  1111  1  0.89572200  0.72259200  0.08023100  1
  H  1112  1  0.87276200  0.71148300  0.12444100  1
  H  1113  1  0.86898400  0.68439900  0.11571500  1
  H  1114  1  0.84711600  0.68085500  0.08807200  1
  H  1115  1  0.82225100  0.66808900  0.09445700  1
  H  1116  1  0.84701400  0.62465200  0.10465600  1
  H  1117  1  0.87205700  0.63741200  0.09811700  1
  H  1118  1  0.88826500  0.64132000  0.07185100  1
  H  1119  1  0.86379200  0.68500100  0.06165600  1
  H  1120  1  0.86014400  0.67647600  0.03435700  1
  H  1125  1  0.88445900  0.63280300  0.04470400  1
  H  1151  1  0.59648100  0.35466500  0.63165300  1
  H  1152  1  0.62167400  0.34847700  0.61903100  1
  H  1153  1  0.57200500  0.34313800  0.58839600  1
  H  1154  1  0.59702400  0.33713300  0.57575000  1
  H  1155  1  0.61431900  0.31114100  0.57151100  1
  H  1156  1  0.61066100  0.28390500  0.58027300  1
  H  1157  1  0.63377700  0.29496100  0.62441200  1
  H  1158  1  0.63757600  0.32203700  0.61568300  1
  H  1159  1  0.65939000  0.32559900  0.58797100  1
  H  1160  1  0.68427300  0.33832000  0.59435900  1
  H  1161  1  0.65955500  0.38172900  0.60479000  1
  H  1162  1  0.63449500  0.36901000  0.59823700  1
  H  1163  1  0.61834700  0.36519900  0.57190200  1
  H  1164  1  0.64260700  0.32141800  0.56161900  1
  H  1165  1  0.64621800  0.32994200  0.53431400  1
  H  1170  1  0.62211100  0.37371100  0.54474700  1
  H  1196  1  0.09646100  0.15177400  0.37479700  1
  H  1197  1  0.12165200  0.15796300  0.38742000  1
  H  1198  1  0.07198400  0.16331800  0.41805000  1
  H  1199  1  0.09700200  0.16932500  0.43069300  1
  H  1200  1  0.11429100  0.19532100  0.43492100  1
  H  1201  1  0.11064000  0.22255600  0.42616100  1
  H  1202  1  0.13376400  0.21149600  0.38202500  1
  H  1203  1  0.13755800  0.18441900  0.39075700  1
  H  1204  1  0.15935800  0.18085200  0.41848500  1
  H  1205  1  0.18424300  0.16812700  0.41211900  1
  H  1206  1  0.15953100  0.12471200  0.40170300  1
  H  1207  1  0.13446800  0.13743500  0.40823300  1
  H  1208  1  0.11833600  0.14126900  0.43457600  1
  H  1209  1  0.14258700  0.18505500  0.44482100  1
  H  1210  1  0.14623200  0.17654400  0.47212000  1
  H  1215  1  0.12214100  0.13275800  0.46172500  1
  H  1241  1  0.41003600  0.85464300  0.87481700  1
  H  1242  1  0.38483500  0.84846500  0.88742800  1
  H  1243  1  0.43448600  0.84311800  0.91809300  1
  H  1244  1  0.40945900  0.83712600  0.93072600  1
  H  1245  1  0.39215500  0.81114100  0.93493000  1
  H  1246  1  0.39578300  0.78389800  0.92617500  1
  H  1247  1  0.37265300  0.79495600  0.88204400  1
  H  1248  1  0.36888300  0.82204300  0.89076300  1
  H  1249  1  0.34708700  0.82564800  0.91846100  1
  H  1250  1  0.32222300  0.83841800  0.91207100  1
  H  1251  1  0.34701900  0.88179200  0.90167500  1
  H  1252  1  0.37205800  0.86902700  0.90822200  1
  H  1253  1  0.38815200  0.86518300  0.93457100  1
  H  1254  1  0.36385700  0.82141200  0.94481900  1
  H  1255  1  0.36023100  0.82992800  0.97212300  1
  H  1260  1  0.38436000  0.87369300  0.96172200  1
  H  1286  1  0.13162500  0.91001600  0.65180300  1
  H  1287  1  0.11901400  0.88481700  0.65798300  1
  H  1288  1  0.08835800  0.93447100  0.66334800  1
  H  1289  1  0.07572300  0.90944400  0.66934400  1
  H  1290  1  0.07150200  0.89214000  0.69532200  1
  H  1291  1  0.08026900  0.89579400  0.72255500  1
  H  1292  1  0.12440300  0.87267300  0.71148900  1
  H  1293  1  0.11567000  0.86887900  0.68441200  1
  H  1294  1  0.08800700  0.84705900  0.68081000  1
  H  1295  1  0.09440900  0.82220200  0.66803100  1
  H  1296  1  0.10474700  0.84701400  0.62465400  1
  H  1297  1  0.09818900  0.87204400  0.63742800  1
  H  1298  1  0.07185500  0.88815500  0.64127100  1
  H  1299  1  0.06163400  0.86383000  0.68502700  1
  H  1300  1  0.03432800  0.86020600  0.67652700  1
  H  1305  1  0.04469900  0.88436500  0.63277200  1
  H  1331  1  0.63162300  0.59645700  0.35471700  1
  H  1332  1  0.61899500  0.62164800  0.34853700  1
  H  1333  1  0.58840800  0.57196600  0.34305200  1
  H  1334  1  0.57575800  0.59698500  0.33705500  1
  H  1335  1  0.57148700  0.61434400  0.31110700  1
  H  1336  1  0.58025300  0.61070200  0.28387300  1
  H  1337  1  0.62442600  0.63373500  0.29497300  1
  H  1338  1  0.61568800  0.63752000  0.32205100  1
  H  1339  1  0.58801900  0.65936100  0.32561400  1
  H  1340  1  0.59438600  0.68423000  0.33837900  1
  H  1341  1  0.60463700  0.65946400  0.38180400  1
  H  1342  1  0.59811300  0.63442100  0.36903900  1
  H  1343  1  0.57182700  0.61824300  0.36514200  1
  H  1344  1  0.56163300  0.64265800  0.32143600  1
  H  1345  1  0.53433400  0.64630700  0.32994800  1
  H  1350  1  0.54468000  0.62204600  0.37365000  1
  H  1376  1  0.37484200  0.09642000  0.15170600  1
  H  1377  1  0.38745500  0.12161500  0.15789800  1
  H  1378  1  0.41805200  0.07194000  0.16341000  1
  H  1379  1  0.43069100  0.09696400  0.16941700  1
  H  1380  1  0.43498300  0.11435400  0.19535200  1
  H  1381  1  0.42622000  0.11072500  0.22259100  1
  H  1382  1  0.38201200  0.13367800  0.21146800  1
  H  1383  1  0.39074200  0.13745200  0.18438800  1
  H  1384  1  0.41837300  0.15934200  0.18085600  1
  H  1385  1  0.41198500  0.18420600  0.16809100  1
  H  1386  1  0.40178900  0.15943900  0.12465300  1
  H  1387  1  0.40833500  0.13439900  0.13741600  1
  H  1388  1  0.43460000  0.11820500  0.14130600  1
  H  1389  1  0.44479800  0.14264800  0.18500400  1
  H  1390  1  0.47210000  0.14628900  0.17648500  1
  H  1395  1  0.46174900  0.12200700  0.13279500  1
  H  1421  1  0.87480700  0.40999300  0.85474700  1
  H  1422  1  0.88743100  0.38480300  0.84855700  1
  H  1423  1  0.91801600  0.43448500  0.84307300  1
  H  1424  1  0.93066300  0.40946700  0.83706900  1
  H  1425  1  0.93496300  0.39212700  0.81112200  1
  H  1426  1  0.92620200  0.39577200  0.78388300  1
  H  1427  1  0.88201200  0.37276900  0.79497800  1
  H  1428  1  0.89074100  0.36898000  0.82205700  1
  H  1429  1  0.91840800  0.34710700  0.82557000  1
  H  1430  1  0.91202000  0.32222400  0.83829500  1
  H  1431  1  0.90175100  0.34692800  0.88174900  1
  H  1432  1  0.90830100  0.37198800  0.86902800  1
  H  1433  1  0.93458900  0.38820300  0.86517600  1
  H  1434  1  0.94479500  0.36382700  0.82144500  1
  H  1435  1  0.97209800  0.36019400  0.82994900  1
  H  1440  1  0.96174400  0.38441000  0.87367600  1
  H  1466  1  0.65172300  0.13162000  0.91003900  1
  H  1467  1  0.65790400  0.11901400  0.88483500  1
  H  1468  1  0.66341400  0.08839300  0.93449700  1
  H  1469  1  0.66941000  0.07576200  0.90946700  1
  H  1470  1  0.69534900  0.07149400  0.89209400  1
  H  1471  1  0.72258900  0.08025600  0.89572600  1
  H  1472  1  0.71148100  0.12445300  0.87274300  1
  H  1473  1  0.68439600  0.11572300  0.86896400  1
  H  1474  1  0.68085200  0.08805900  0.84711200  1
  H  1475  1  0.66809500  0.09444500  0.82224300  1
  H  1476  1  0.62466600  0.10470200  0.84700100  1
  H  1477  1  0.63742000  0.09815600  0.87204600  1
  H  1478  1  0.64130700  0.07186400  0.88822100  1
  H  1479  1  0.68502400  0.06166200  0.86381400  1
  H  1480  1  0.67651000  0.03435900  0.86017300  1
  H  1485  1  0.63280000  0.04471500  0.88442100  1
  H  1511  1  0.35469600  0.63167200  0.59650400  1
  H  1512  1  0.34848700  0.61904500  0.62168900  1
  H  1513  1  0.34312900  0.58843900  0.57200300  1
  H  1514  1  0.33710200  0.57578800  0.59701600  1
  H  1515  1  0.31112600  0.57151500  0.61432600  1
  H  1516  1  0.28388800  0.58026900  0.61066800  1
  H  1517  1  0.29494100  0.62442400  0.63375600  1
  H  1518  1  0.32202000  0.61570200  0.63755500  1
  H  1519  1  0.32557100  0.58800600  0.65938400  1
  H  1520  1  0.33829300  0.59438100  0.68427000  1
  H  1521  1  0.38172100  0.60476300  0.65956400  1
  H  1522  1  0.36900200  0.59822400  0.63450100  1
  H  1523  1  0.36517800  0.57192000  0.61831400  1
  H  1524  1  0.32142400  0.56163600  0.64262200  1
  H  1525  1  0.32995900  0.53433600  0.64623600  1
  H  1530  1  0.37370000  0.54476900  0.62207900  1
  H  1556  1  0.15182300  0.37480600  0.09644100  1
  H  1557  1  0.15799300  0.38741400  0.12164300  1
  H  1558  1  0.16330400  0.41809900  0.07200500  1
  H  1559  1  0.16928700  0.43072700  0.09703300  1
  H  1560  1  0.19529600  0.43490900  0.11428700  1
  H  1561  1  0.22253000  0.42614700  0.11063000  1
  H  1562  1  0.21149000  0.38204000  0.13381700  1
  H  1563  1  0.18441300  0.39077100  0.13761300  1
  H  1564  1  0.18081000  0.41851600  0.15938700  1
  H  1565  1  0.16807300  0.41214000  0.18426600  1
  H  1566  1  0.12469600  0.40164300  0.15952200  1
  H  1567  1  0.13743000  0.40818300  0.13446700  1
  H  1568  1  0.14123800  0.43456900  0.11839700  1
  H  1569  1  0.18505700  0.44483100  0.14258200  1
  H  1570  1  0.17655100  0.47213300  0.14621600  1
  H  1575  1  0.13273100  0.46172000  0.12219700  1
  H  1601  1  0.85467200  0.87481800  0.41002600  1
  H  1602  1  0.84849400  0.88744000  0.38483100  1
  H  1603  1  0.84309200  0.91806400  0.43450100  1
  H  1604  1  0.83709600  0.93070900  0.40947800  1
  H  1605  1  0.81112900  0.93495500  0.39213200  1
  H  1606  1  0.78388300  0.92620500  0.39575400  1
  H  1607  1  0.79495800  0.88204200  0.37268900  1
  H  1608  1  0.82204700  0.89075900  0.36892400  1
  H  1609  1  0.82563200  0.91843100  0.34710100  1
  H  1610  1  0.83840000  0.91204100  0.32223800  1
  H  1611  1  0.88179900  0.90172500  0.34702400  1
  H  1612  1  0.86903600  0.90827200  0.37206300  1
  H  1613  1  0.86516200  0.93458900  0.38820600  1
  H  1614  1  0.82143300  0.94481200  0.36383100  1
  H  1615  1  0.82995500  0.97211400  0.36019000  1
  H  1620  1  0.87367800  0.96173700  0.38440600  1
  H  1646  1  0.90226700  0.65991300  0.62537600  1
  H  1647  1  0.90865100  0.63476000  0.63797500  1
  H  1648  1  0.91336100  0.68440600  0.66874300  1
  H  1649  1  0.91953800  0.65942300  0.68136700  1
  H  1650  1  0.94570100  0.64237200  0.68543800  1
  H  1651  1  0.97292800  0.64609400  0.67665900  1
  H  1652  1  0.96202400  0.62249400  0.63274000  1
  H  1653  1  0.93496000  0.61865500  0.64147600  1
  H  1654  1  0.93121900  0.59702900  0.66923800  1
  H  1655  1  0.91846900  0.57217700  0.66274900  1
  H  1656  1  0.87521700  0.59702500  0.65197000  1
  H  1657  1  0.88794600  0.62203700  0.65865100  1
  H  1658  1  0.89163900  0.63791600  0.68513500  1
  H  1659  1  0.93560500  0.61402900  0.69548800  1
  H  1660  1  0.92709900  0.61040500  0.72279300  1
  H  1665  1  0.88312800  0.63411100  0.71228600  1
  H  1691  1  0.60411900  0.34651000  0.12537200  1
  H  1692  1  0.59776200  0.37166600  0.13797600  1
  H  1693  1  0.59312100  0.32203600  0.16877700  1
  H  1694  1  0.58697200  0.34702100  0.18140000  1
  H  1695  1  0.56078300  0.36402500  0.18542600  1
  H  1696  1  0.53356000  0.36028800  0.17664700  1
  H  1697  1  0.54442800  0.38398800  0.13277200  1
  H  1698  1  0.57148900  0.38783900  0.14151100  1
  H  1699  1  0.57528000  0.40940600  0.16932000  1
  H  1700  1  0.58802900  0.43425900  0.16283600  1
  H  1701  1  0.63124500  0.40939800  0.15193700  1
  H  1702  1  0.61851400  0.38438700  0.15861400  1
  H  1703  1  0.61483700  0.36857900  0.18514500  1
  H  1704  1  0.57083500  0.39237900  0.19552500  1
  H  1705  1  0.57934800  0.39601300  0.22282500  1
  H  1710  1  0.62335600  0.37239400  0.21229000  1
  H  1736  1  0.40225400  0.84652400  0.38107900  1
  H  1737  1  0.40864100  0.87167600  0.36848200  1
  H  1738  1  0.41341900  0.82202300  0.33773200  1
  H  1739  1  0.41959700  0.84700700  0.32511000  1
  H  1740  1  0.44572900  0.86410800  0.32099300  1
  H  1741  1  0.47295900  0.86039000  0.32976600  1
  H  1742  1  0.46203900  0.88390200  0.37372800  1
  H  1743  1  0.43497100  0.88773800  0.36499900  1
  H  1744  1  0.43124800  0.90940100  0.33726400  1
  H  1745  1  0.41849200  0.93425100  0.34374200  1
  H  1746  1  0.37522000  0.90940300  0.35445300  1
  H  1747  1  0.38795700  0.88439200  0.34778100  1
  H  1748  1  0.39167600  0.86848000  0.32133900  1
  H  1749  1  0.43559700  0.89245200  0.31097900  1
  H  1750  1  0.42705200  0.89610300  0.28368300  1
  H  1755  1  0.38313500  0.87230700  0.29420300  1
  H  1781  1  0.10418800  0.15990900  0.88109600  1
  H  1782  1  0.09781600  0.13475500  0.86849300  1
  H  1783  1  0.09309600  0.18440000  0.83772800  1
  H  1784  1  0.08693300  0.15941800  0.82510400  1
  H  1785  1  0.06077400  0.14238600  0.82101000  1
  H  1786  1  0.03354700  0.14611900  0.82978300  1
  H  1787  1  0.04443400  0.12252400  0.87371100  1
  H  1788  1  0.07149800  0.11867200  0.86497900  1
  H  1789  1  0.07521800  0.09704300  0.83720100  1
  H  1790  1  0.08793700  0.07217800  0.84369400  1
  H  1791  1  0.13120600  0.09698000  0.85451300  1
  H  1792  1  0.11850900  0.12200700  0.84782300  1
  H  1793  1  0.11483500  0.13790200  0.82132900  1
  H  1794  1  0.07085800  0.11403800  0.81096800  1
  H  1795  1  0.07937200  0.11040100  0.78366600  1
  H  1800  1  0.12335100  0.13408700  0.79418100  1
  H  1826  1  0.15993300  0.88107800  0.10419800  1
  H  1827  1  0.13477400  0.86848300  0.09782700  1
  H  1828  1  0.18441400  0.83770600  0.09308600  1
  H  1829  1  0.15942700  0.82508600  0.08692300  1
  H  1830  1  0.14236600  0.82100900  0.06077600  1
  H  1831  1  0.14609200  0.82978400  0.03354800  1
  H  1832  1  0.12250500  0.87371300  0.04444300  1
  H  1833  1  0.11866100  0.86498300  0.07151100  1
  H  1834  1  0.09705100  0.83720300  0.07525900  1
  H  1835  1  0.07219800  0.84369100  0.08800600  1
  H  1836  1  0.09704300  0.85449500  0.13125500  1
  H  1837  1  0.12205800  0.84781500  0.11853000  1
  H  1838  1  0.13793200  0.82133500  0.11482600  1
  H  1839  1  0.11403100  0.81095400  0.07087200  1
  H  1840  1  0.11039100  0.78365700  0.07940900  1
  H  1845  1  0.13411300  0.79419400  0.12336200  1
  H  1871  1  0.84655500  0.38113000  0.40235300  1
  H  1872  1  0.87170700  0.36852900  0.40873700  1
  H  1873  1  0.82207600  0.33771200  0.41327800  1
  H  1874  1  0.84705600  0.32508900  0.41945400  1
  H  1875  1  0.86402100  0.32107400  0.44567200  1
  H  1876  1  0.86028100  0.32985300  0.47289700  1
  H  1877  1  0.88402900  0.37370600  0.46204900  1
  H  1878  1  0.88788300  0.36497200  0.43498800  1
  H  1879  1  0.90943500  0.33712800  0.43121900  1
  H  1880  1  0.93430500  0.34361200  0.41850900  1
  H  1881  1  0.90949900  0.35463100  0.37529100  1
  H  1882  1  0.88446700  0.34794500  0.38798100  1
  H  1883  1  0.86865400  0.32139600  0.39160000  1
  H  1884  1  0.89235000  0.31094600  0.43565100  1
  H  1885  1  0.89594500  0.28363800  0.42712600  1
  H  1890  1  0.87242400  0.29424400  0.38308100  1
  H  1916  1  0.34652600  0.12533700  0.60411600  1
  H  1917  1  0.37168100  0.13793800  0.59775200  1
  H  1918  1  0.32205200  0.16874200  0.59312400  1
  H  1919  1  0.34703600  0.18136400  0.58697000  1
  H  1920  1  0.36403100  0.18539900  0.56077600  1
  H  1921  1  0.36029200  0.17662900  0.53355200  1
  H  1922  1  0.38398200  0.13274400  0.54440600  1
  H  1923  1  0.38783600  0.14147300  0.57146900  1
  H  1924  1  0.40940600  0.16930400  0.57524100  1
  H  1925  1  0.43427200  0.16283500  0.58796400  1
  H  1926  1  0.40946000  0.15188700  0.63119500  1
  H  1927  1  0.38443100  0.15855700  0.61849200  1
  H  1928  1  0.36860400  0.18509500  0.61483300  1
  H  1929  1  0.39237900  0.19549500  0.57082200  1
  H  1930  1  0.39603700  0.22278800  0.57935300  1
  H  1935  1  0.37244000  0.21223200  0.62337000  1
  H  1961  1  0.65994700  0.62535900  0.90232200  1
  H  1962  1  0.63478900  0.63795600  0.90869100  1
  H  1963  1  0.68442000  0.66875900  0.91333800  1
  H  1964  1  0.65943300  0.68137900  0.91949900  1
  H  1965  1  0.64240100  0.68542000  0.94567400  1
  H  1966  1  0.64611200  0.67665700  0.97290800  1
  H  1967  1  0.62245900  0.63275700  0.96204100  1
  H  1968  1  0.61863200  0.64147300  0.93496600  1
  H  1969  1  0.59705000  0.66926900  0.93118700  1
  H  1970  1  0.57219700  0.66278400  0.91843600  1
  H  1971  1  0.59705800  0.65190300  0.87521400  1
  H  1972  1  0.62207200  0.65858200  0.88794500  1
  H  1973  1  0.63790500  0.68510100  0.89162700  1
  H  1974  1  0.61405700  0.69549400  0.93560800  1
  H  1975  1  0.61041500  0.72279100  0.92707200  1
  H  1980  1  0.63408600  0.71224000  0.88309200  1
  H  2006  1  0.38107700  0.40225800  0.84654100  1
  H  2007  1  0.36847600  0.40864400  0.87169100  1
  H  2008  1  0.33771500  0.41335600  0.82204100  1
  H  2009  1  0.32508900  0.41953600  0.84702100  1
  H  2010  1  0.32100400  0.44569400  0.86407700  1
  H  2011  1  0.32978000  0.47292000  0.86034900  1
  H  2012  1  0.37371000  0.46202200  0.88393700  1
  H  2013  1  0.36497600  0.43495800  0.88778100  1
  H  2014  1  0.33722100  0.43122400  0.90941400  1
  H  2015  1  0.34370800  0.41847700  0.93426800  1
  H  2016  1  0.35447300  0.37521700  0.90942700  1
  H  2017  1  0.34779200  0.38794200  0.88441300  1
  H  2018  1  0.32131600  0.39163900  0.86852100  1
  H  2019  1  0.31096800  0.43559200  0.89243200  1
  H  2020  1  0.28366700  0.42707500  0.89607300  1
  H  2025  1  0.29417100  0.38311800  0.87234100  1
  H  2051  1  0.88110000  0.10413600  0.15994000  1
  H  2052  1  0.86850000  0.09777900  0.13478200  1
  H  2053  1  0.83771100  0.09307800  0.18441400  1
  H  2054  1  0.82509000  0.08692900  0.15942800  1
  H  2055  1  0.82104400  0.06076100  0.14239900  1
  H  2056  1  0.82982000  0.03353800  0.14613000  1
  H  2057  1  0.87372100  0.04442000  0.12248200  1
  H  2058  1  0.86498400  0.07148300  0.11863500  1
  H  2059  1  0.83718600  0.07525700  0.09704400  1
  H  2060  1  0.84365800  0.08800800  0.07219000  1
  H  2061  1  0.85450700  0.13124100  0.09704300  1
  H  2062  1  0.84784100  0.11850800  0.12205600  1
  H  2063  1  0.82133300  0.11481200  0.13789600  1
  H  2064  1  0.81096700  0.07083700  0.11404000  1
  H  2065  1  0.78366900  0.07935600  0.11039600  1
  H  2070  1  0.79419200  0.12333700  0.13407300  1
  H  2096  1  0.62538700  0.90226900  0.65993400  1
  H  2097  1  0.63798500  0.90865500  0.63478300  1
  H  2098  1  0.66874900  0.91337900  0.68443200  1
  H  2099  1  0.68137300  0.91955700  0.65945000  1
  H  2100  1  0.68546600  0.94571000  0.64237700  1
  H  2101  1  0.67668800  0.97293900  0.64610100  1
  H  2102  1  0.63274900  0.96202800  0.62253900  1
  H  2103  1  0.64148300  0.93496400  0.61869800  1
  H  2104  1  0.66923000  0.93122900  0.59705600  1
  H  2105  1  0.66274000  0.91847700  0.57220500  1
  H  2106  1  0.65198600  0.87521900  0.59705800  1
  H  2107  1  0.65866800  0.88795100  0.62206900  1
  H  2108  1  0.68513200  0.89165300  0.63794900  1
  H  2109  1  0.69550200  0.93560200  0.61403300  1
  H  2110  1  0.72280000  0.92706600  0.61038700  1
  H  2115  1  0.71227100  0.88311800  0.63412400  1
  H  2141  1  0.12536500  0.60417200  0.34654000  1
  H  2142  1  0.13797100  0.59780600  0.37169200  1
  H  2143  1  0.16874700  0.59312600  0.32205300  1
  H  2144  1  0.18137200  0.58696600  0.34703400  1
  H  2145  1  0.18543900  0.56078800  0.36404000  1
  H  2146  1  0.17665900  0.53356400  0.36031000  1
  H  2147  1  0.13276000  0.54444800  0.38395800  1
  H  2148  1  0.14149600  0.57151000  0.38780700  1
  H  2149  1  0.16929800  0.57524200  0.40940900  1
  H  2150  1  0.16280100  0.58795800  0.43427600  1
  H  2151  1  0.15192400  0.63121100  0.40946900  1
  H  2152  1  0.15861900  0.61851500  0.38444200  1
  H  2153  1  0.18513600  0.61485900  0.36857600  1
  H  2154  1  0.19551300  0.57085300  0.39237800  1
  H  2155  1  0.22281900  0.57935700  0.39599500  1
  H  2160  1  0.21229000  0.62336700  0.37237700  1
  H  2166  1  0.12789500  0.39664600  0.03038200  1
  H  2168  1  0.16147900  0.34919900  0.02253700  1
  H  2169  1  0.16496300  0.36533700  0.04614700  1
  H  2174  1  0.14638700  0.40436000  0.05264600  1
  H  2176  1  0.14655100  0.34237700  0.99848800  1
  H  2182  1  0.37872500  0.60993600  0.53050600  1
  H  2184  1  0.34495700  0.65723000  0.52250300  1
  H  2185  1  0.34149100  0.64111800  0.54614100  1
  H  2190  1  0.36018300  0.60217200  0.55271800  1
  H  2192  1  0.36017400  0.66418800  0.49858400  1
  H  2198  1  0.87871600  0.89649300  0.47598200  1
  H  2200  1  0.84487200  0.84925800  0.48400600  1
  H  2201  1  0.84137300  0.86541300  0.46040500  1
  H  2206  1  0.86008100  0.90432900  0.45383400  1
  H  2208  1  0.85995400  0.84231800  0.50797700  1
  H  2214  1  0.62785400  0.10985100  0.97605500  1
  H  2216  1  0.66148200  0.15725900  0.98395600  1
  H  2217  1  0.66500600  0.14110000  0.96036400  1
  H  2222  1  0.64644800  0.10209200  0.95386100  1
  H  2224  1  0.64647100  0.16412400  0.00794900  1
  H  2230  1  0.03048600  0.12771900  0.39649800  1
  H  2232  1  0.02249200  0.16153000  0.34923500  1
  H  2233  1  0.04609800  0.16501800  0.36538400  1
  H  2238  1  0.05266200  0.14631300  0.40431400  1
  H  2240  1  0.99850000  0.14647600  0.34231300  1
  H  2246  1  0.53047500  0.37867400  0.60992800  1
  H  2248  1  0.52251700  0.34490600  0.65722700  1
  H  2249  1  0.54613100  0.34143200  0.64108700  1
  H  2254  1  0.55268200  0.36012400  0.60214000  1
  H  2256  1  0.49849900  0.35992400  0.66412500  1
  H  2262  1  0.47604600  0.87861300  0.89659600  1
  H  2264  1  0.48396100  0.84494500  0.84922000  1
  H  2265  1  0.46036100  0.84144100  0.86537000  1
  H  2270  1  0.45383800  0.86004900  0.90435700  1
  H  2272  1  0.50796600  0.85993500  0.84235800  1
  H  2278  1  0.97598700  0.62775300  0.10994200  1
  H  2280  1  0.98400900  0.66156300  0.15720100  1
  H  2281  1  0.96041200  0.66507500  0.14104700  1
  H  2286  1  0.95384600  0.64640700  0.10211400  1
  H  2288  1  0.00798300  0.64648300  0.16413000  1
  H  2294  1  0.39657200  0.03040300  0.12782700  1
  H  2296  1  0.34920400  0.02248600  0.16150800  1
  H  2297  1  0.36536100  0.04608200  0.16501500  1
  H  2302  1  0.40434900  0.05259500  0.14641900  1
  H  2304  1  0.34232900  0.99849200  0.14650200  1
  H  2310  1  0.60988700  0.53046100  0.37867100  1
  H  2312  1  0.65721100  0.52247100  0.34494300  1
  H  2313  1  0.64108800  0.54609600  0.34145300  1
  H  2318  1  0.60211900  0.55265000  0.36008100  1
  H  2320  1  0.66417200  0.49856300  0.36017600  1
  H  2326  1  0.89648100  0.47597000  0.87873600  1
  H  2328  1  0.84923700  0.48398100  0.84490300  1
  H  2329  1  0.86538500  0.46037500  0.84141400  1
  H  2334  1  0.90430600  0.45380500  0.86012000  1
  H  2336  1  0.84230400  0.50796000  0.85998200  1
  H  2342  1  0.10980100  0.97608000  0.62790800  1
  H  2344  1  0.15725900  0.98391600  0.66147700  1
  H  2345  1  0.14111700  0.96031000  0.66496800  1
  H  2350  1  0.10208700  0.95382000  0.64640700  1
  H  2352  1  0.16407800  0.00796600  0.64655300  1
  H  2358  1  0.14527900  0.37637500  0.22506700  1
  H  2360  1  0.10020500  0.41279500  0.23414300  1
  H  2361  1  0.11670100  0.41614000  0.21074500  1
  H  2366  1  0.15365600  0.39340300  0.20274200  1
  H  2368  1  0.09221300  0.39722600  0.25752800  1
  H  2374  1  0.36119500  0.63009700  0.72502700  1
  H  2376  1  0.40617800  0.59358700  0.73419100  1
  H  2377  1  0.38964900  0.59020300  0.71082000  1
  H  2382  1  0.35273200  0.61294600  0.70289500  1
  H  2384  1  0.41424200  0.60924500  0.75750200  1
  H  2390  1  0.64551500  0.12987200  0.78121500  1
  H  2392  1  0.60004700  0.09386300  0.77248500  1
  H  2393  1  0.61647700  0.09058700  0.79593200  1
  H  2398  1  0.65364900  0.11306200  0.80377000  1
  H  2400  1  0.59228200  0.10918000  0.74893000  1
  H  2406  1  0.86108600  0.87645400  0.28133200  1
  H  2408  1  0.90636100  0.91266600  0.27242800  1
  H  2409  1  0.88992100  0.91595400  0.29587100  1
  H  2414  1  0.85284500  0.89337700  0.30378300  1
  H  2416  1  0.91422100  0.89723700  0.24892200  1
  H  2422  1  0.87649700  0.28128300  0.86099600  1
  H  2424  1  0.91269600  0.27240000  0.90628400  1
  H  2425  1  0.91602200  0.29580900  0.88980300  1
  H  2430  1  0.89337300  0.30374100  0.85275200  1
  H  2432  1  0.89724500  0.24895600  0.91416900  1
  H  2438  1  0.13015500  0.78144600  0.64521900  1
  H  2440  1  0.09371500  0.77231200  0.60017200  1
  H  2441  1  0.09040500  0.79575600  0.61661300  1
  H  2446  1  0.11307300  0.80371200  0.65358200  1
  H  2448  1  0.10944700  0.74901700  0.59213100  1
  H  2454  1  0.62993700  0.72516100  0.36105300  1
  H  2456  1  0.59376500  0.73404200  0.40636300  1
  H  2457  1  0.59047100  0.71060000  0.38992400  1
  H  2462  1  0.61303600  0.70268900  0.35283400  1
  H  2464  1  0.60919000  0.75755200  0.41421300  1
  H  2470  1  0.37657600  0.22522900  0.14551200  1
  H  2472  1  0.41256900  0.23395700  0.10003200  1
  H  2473  1  0.41584500  0.21050500  0.11645700  1
  H  2478  1  0.39336900  0.20266100  0.15363100  1
  H  2480  1  0.39725300  0.25751700  0.09227700  1
  H  2486  1  0.78132300  0.64538400  0.12998700  1
  H  2488  1  0.77243700  0.60010400  0.09378000  1
  H  2489  1  0.79588000  0.61654400  0.09049800  1
  H  2494  1  0.80379100  0.65361800  0.11308900  1
  H  2496  1  0.74892000  0.59224800  0.10919000  1
  H  2502  1  0.28132900  0.86110400  0.87644900  1
  H  2504  1  0.27241500  0.90636600  0.91267300  1
  H  2505  1  0.29585400  0.88992100  0.91596600  1
  H  2510  1  0.30376300  0.85284600  0.89339600  1
  H  2512  1  0.24892600  0.91424400  0.89721900  1
  H  2518  1  0.22517800  0.14545700  0.37653800  1
  H  2520  1  0.23406100  0.10014900  0.41271200  1
  H  2521  1  0.21065800  0.11663400  0.41605300  1
  H  2526  1  0.20273800  0.15370600  0.39344100  1
  H  2528  1  0.25750100  0.09226900  0.39725800  1
  H  2534  1  0.72501500  0.36120700  0.63012000  1
  H  2536  1  0.73420000  0.40617800  0.59360000  1
  H  2537  1  0.71082500  0.38965500  0.59021500  1
  H  2542  1  0.70288500  0.35274500  0.61296200  1
  H  2544  1  0.75751300  0.41423600  0.60925400  1
  H  2550  1  0.87854800  0.60980700  0.97607200  1
  H  2552  1  0.84497700  0.65726300  0.98392000  1
  H  2553  1  0.84148300  0.64112300  0.96031200  1
  H  2558  1  0.86003800  0.60209400  0.95381700  1
  H  2560  1  0.85991500  0.66408400  0.00796400  1
  H  2566  1  0.62773400  0.39651900  0.47595000  1
  H  2568  1  0.66149700  0.34922200  0.48395000  1
  H  2569  1  0.66496500  0.36533300  0.46031300  1
  H  2574  1  0.64627600  0.40428200  0.45373700  1
  H  2576  1  0.64628200  0.34226500  0.50787100  1
  H  2582  1  0.12774100  0.10996300  0.53047500  1
  H  2584  1  0.16158800  0.15719600  0.52244900  1
  H  2585  1  0.16508600  0.14104200  0.54605000  1
  H  2590  1  0.14637400  0.10212600  0.55262200  1
  H  2592  1  0.14650600  0.16413700  0.49847800  1
  H  2598  1  0.37860200  0.89660500  0.03040000  1
  H  2600  1  0.34497400  0.84919600  0.02249900  1
  H  2601  1  0.34144900  0.86535400  0.04609000  1
  H  2606  1  0.36000600  0.90436300  0.05259400  1
  H  2608  1  0.35998400  0.84233100  0.99850600  1
  H  2614  1  0.97597000  0.87872700  0.60995500  1
  H  2616  1  0.98396300  0.84492900  0.65722800  1
  H  2617  1  0.96036000  0.84143500  0.64107800  1
  H  2622  1  0.95379900  0.86012300  0.60214300  1
  H  2624  1  0.00795300  0.85998900  0.66414800  1
  H  2630  1  0.47597800  0.62778500  0.39652800  1
  H  2632  1  0.48393700  0.66154700  0.34922600  1
  H  2633  1  0.46032300  0.66502300  0.36536500  1
  H  2638  1  0.45377400  0.64634000  0.40431500  1
  H  2640  1  0.50795500  0.64652500  0.34232900  1
  H  2646  1  0.53040900  0.12784100  0.10985800  1
  H  2648  1  0.52249400  0.16151100  0.15723400  1
  H  2649  1  0.54609500  0.16501400  0.14108600  1
  H  2654  1  0.55261700  0.14640700  0.10209700  1
  H  2656  1  0.49848900  0.14652200  0.16409700  1
  H  2662  1  0.03047000  0.37870100  0.89651300  1
  H  2664  1  0.02244500  0.34489000  0.84925500  1
  H  2665  1  0.04604300  0.34137800  0.86540800  1
  H  2670  1  0.05260900  0.36004700  0.90434200  1
  H  2672  1  0.99847300  0.35997200  0.84232500  1
  H  2678  1  0.60988200  0.97605100  0.87862700  1
  H  2680  1  0.65725100  0.98396700  0.84494800  1
  H  2681  1  0.64109500  0.96037200  0.84144100  1
  H  2686  1  0.60210600  0.95386000  0.86003800  1
  H  2688  1  0.66412600  0.00796200  0.85995400  1
  H  2694  1  0.39656700  0.47599500  0.62778500  1
  H  2696  1  0.34924300  0.48398400  0.66151200  1
  H  2697  1  0.36536600  0.46035800  0.66500100  1
  H  2702  1  0.40433500  0.45380400  0.64637300  1
  H  2704  1  0.34228200  0.50789200  0.64628100  1
  H  2710  1  0.10997400  0.53048700  0.12771900  1
  H  2712  1  0.15721800  0.52247400  0.16155400  1
  H  2713  1  0.14107000  0.54608000  0.16504100  1
  H  2718  1  0.10214900  0.55265100  0.14633300  1
  H  2720  1  0.16415000  0.49849500  0.14647700  1
  H  2726  1  0.89665600  0.03037500  0.37854700  1
  H  2728  1  0.84919500  0.02254100  0.34498100  1
  H  2729  1  0.86533700  0.04614600  0.34148900  1
  H  2734  1  0.90436800  0.05263500  0.36004600  1
  H  2736  1  0.84237600  0.99849100  0.35990600  1
  H  2742  1  0.86117800  0.63008200  0.78139000  1
  H  2744  1  0.90625300  0.59366200  0.77231400  1
  H  2745  1  0.88975700  0.59031700  0.79571200  1
  H  2750  1  0.85280100  0.61305500  0.80371400  1
  H  2752  1  0.91424300  0.60922900  0.74892700  1
  H  2758  1  0.64525800  0.37635700  0.28142900  1
  H  2760  1  0.60027600  0.41286800  0.27226300  1
  H  2761  1  0.61680500  0.41625200  0.29563400  1
  H  2766  1  0.65372100  0.39350800  0.30356200  1
  H  2768  1  0.59221200  0.39721000  0.24895100  1
  H  2774  1  0.36094000  0.87658600  0.22524100  1
  H  2776  1  0.40640900  0.91259300  0.23397000  1
  H  2777  1  0.38997900  0.91586900  0.21052200  1
  H  2782  1  0.35280700  0.89339300  0.20268500  1
  H  2784  1  0.41417400  0.89728000  0.25752700  1
  H  2790  1  0.14537000  0.13000500  0.72512600  1
  H  2792  1  0.10009700  0.09378800  0.73402700  1
  H  2793  1  0.11653800  0.09050300  0.71058400  1
  H  2798  1  0.15361100  0.11308500  0.70267300  1
  H  2800  1  0.09223600  0.10921400  0.75753400  1
  H  2806  1  0.12995900  0.72517300  0.14545900  1
  H  2808  1  0.09375800  0.73405600  0.10017200  1
  H  2809  1  0.09043200  0.71064800  0.11665300  1
  H  2814  1  0.11308200  0.70271700  0.15370500  1
  H  2816  1  0.10920900  0.75750000  0.09228600  1
  H  2822  1  0.87630000  0.22501200  0.36123500  1
  H  2824  1  0.91274200  0.23414400  0.40628200  1
  H  2825  1  0.91605100  0.21070000  0.38984000  1
  H  2830  1  0.89338100  0.20274400  0.35287100  1
  H  2832  1  0.89701100  0.25743800  0.41432200  1
  H  2838  1  0.37651800  0.28129300  0.64540500  1
  H  2840  1  0.41268800  0.27241400  0.60009300  1
  H  2841  1  0.41598200  0.29585500  0.61653200  1
  H  2846  1  0.39342000  0.30376400  0.65362400  1
  H  2848  1  0.39726000  0.24890400  0.59224200  1
  H  2854  1  0.62988500  0.78122900  0.86094600  1
  H  2856  1  0.59388600  0.77249600  0.90642200  1
  H  2857  1  0.59060900  0.79594600  0.88999600  1
  H  2862  1  0.61308800  0.80379300  0.85282300  1
  H  2864  1  0.60920600  0.74894000  0.91418000  1
  H  2870  1  0.22513100  0.36107200  0.87646300  1
  H  2872  1  0.23402100  0.40634900  0.91267600  1
  H  2873  1  0.21057800  0.38990700  0.91595800  1
  H  2878  1  0.20266400  0.35283800  0.89336300  1
  H  2880  1  0.25753500  0.41420600  0.89726400  1
  H  2886  1  0.72512600  0.14535100  0.13000600  1
  H  2888  1  0.73404000  0.10008900  0.09378100  1
  H  2889  1  0.71060100  0.11653400  0.09048900  1
  H  2894  1  0.70269200  0.15360900  0.11306000  1
  H  2896  1  0.75752900  0.09221100  0.10923500  1
  H  2902  1  0.78127800  0.86100000  0.62991800  1
  H  2904  1  0.77239600  0.90630800  0.59374300  1
  H  2905  1  0.79579800  0.88982300  0.59040200  1
  H  2910  1  0.80371800  0.85275000  0.61301400  1
  H  2912  1  0.74895400  0.91418800  0.60919900  1
  H  2918  1  0.28144200  0.64524600  0.37633500  1
  H  2920  1  0.27225500  0.60027600  0.41285500  1
  H  2921  1  0.29563000  0.61679700  0.41624000  1
  H  2926  1  0.30357300  0.65370700  0.39349200  1
  H  2928  1  0.24894200  0.59221800  0.39720100  1
  H  2934  1  0.62838900  0.89749900  0.53023500  1
  H  2936  1  0.66102400  0.84924700  0.52335700  1
  H  2937  1  0.66450800  0.86553000  0.54688600  1
  H  2942  1  0.64419800  0.90429800  0.55372300  1
  H  2944  1  0.64423600  0.84184000  0.49981700  1
  H  2950  1  0.87805100  0.10895700  0.03021400  1
  H  2952  1  0.84544500  0.15722900  0.02333500  1
  H  2953  1  0.84194700  0.14094600  0.04686200  1
  H  2958  1  0.86222400  0.10216200  0.05369800  1
  H  2960  1  0.86223700  0.16462900  0.99979900  1
  H  2966  1  0.37808400  0.39747000  0.97621300  1
  H  2968  1  0.34541000  0.34925100  0.98314200  1
  H  2969  1  0.34189300  0.36554900  0.95962700  1
  H  2974  1  0.36219300  0.40430400  0.95281900  1
  H  2976  1  0.36226000  0.34181500  0.00664100  1
  H  2982  1  0.12830700  0.60900200  0.47617900  1
  H  2984  1  0.16114200  0.65710100  0.48319300  1
  H  2985  1  0.16466600  0.64078400  0.45969200  1
  H  2990  1  0.14418500  0.60211700  0.45276600  1
  H  2992  1  0.14422800  0.66460400  0.50664300  1
  H  2998  1  0.53021800  0.62840500  0.89748900  1
  H  3000  1  0.52334600  0.66102400  0.84922500  1
  H  3001  1  0.54687700  0.66450700  0.86550500  1
  H  3006  1  0.55370400  0.64422400  0.90428700  1
  H  3008  1  0.49979800  0.64425500  0.84182700  1
  H  3014  1  0.03021500  0.87805300  0.10896900  1
  H  3016  1  0.02334700  0.84543400  0.15723400  1
  H  3017  1  0.04687500  0.84194700  0.14094900  1
  H  3022  1  0.05370500  0.86224300  0.10217200  1
  H  3024  1  0.99980800  0.86222700  0.16463900  1
  H  3030  1  0.97614800  0.37819200  0.39739800  1
  H  3032  1  0.98325500  0.34523800  0.34939700  1
  H  3033  1  0.95978000  0.34166900  0.36574600  1
  H  3038  1  0.95292900  0.36214000  0.40438000  1
  H  3040  1  0.00663000  0.36226300  0.34182200  1
  H  3046  1  0.47618400  0.12834300  0.60900000  1
  H  3048  1  0.48316100  0.16112600  0.65713800  1
  H  3049  1  0.45967400  0.16467100  0.64080500  1
  H  3054  1  0.45278400  0.14424200  0.60210900  1
  H  3056  1  0.50660000  0.14418500  0.66464500  1
  H  3062  1  0.89745700  0.53023100  0.62836200  1
  H  3064  1  0.84926300  0.52329800  0.66107200  1
  H  3065  1  0.86555400  0.54681900  0.66456800  1
  H  3070  1  0.90429600  0.55363500  0.64424200  1
  H  3072  1  0.84182300  0.49979200  0.64423700  1
  H  3078  1  0.10900700  0.03027100  0.87815600  1
  H  3080  1  0.15709900  0.02326800  0.84531200  1
  H  3081  1  0.14077500  0.04676600  0.84178900  1
  H  3086  1  0.10211300  0.05368300  0.86228100  1
  H  3088  1  0.16461000  0.99981900  0.86222200  1
  H  3094  1  0.39750000  0.97623500  0.37804900  1
  H  3096  1  0.34922700  0.98308900  0.34543800  1
  H  3097  1  0.36552000  0.95956500  0.34194800  1
  H  3102  1  0.40429900  0.95274500  0.36224500  1
  H  3104  1  0.34181600  0.00662300  0.36223400  1
  H  3110  1  0.60896400  0.47622800  0.12841100  1
  H  3112  1  0.65724100  0.48310600  0.16101000  1
  H  3113  1  0.64095700  0.45957900  0.16451000  1
  H  3118  1  0.60216900  0.45274500  0.14424200  1
  H  3120  1  0.66464100  0.50663800  0.14420800  1
  H  3126  1  0.64848900  0.87925700  0.72684300  1
  H  3128  1  0.59869500  0.90965500  0.73299700  1
  H  3129  1  0.61474400  0.91330400  0.70934200  1
  H  3134  1  0.65501100  0.89657800  0.70368900  1
  H  3136  1  0.59213800  0.89323400  0.75695000  1
  H  3142  1  0.85797300  0.12717100  0.22684000  1
  H  3144  1  0.90775700  0.09676200  0.23301600  1
  H  3145  1  0.89171800  0.09311600  0.20935700  1
  H  3150  1  0.85145400  0.10983800  0.20368900  1
  H  3152  1  0.91430300  0.11314200  0.25698100  1
  H  3158  1  0.14847600  0.62720800  0.27962200  1
  H  3160  1  0.09870600  0.59677200  0.27346200  1
  H  3161  1  0.11474400  0.59315100  0.29712700  1
  H  3166  1  0.15499600  0.60991800  0.30279400  1
  H  3168  1  0.09215300  0.61314900  0.24948800  1
  H  3174  1  0.35797600  0.37923200  0.77962800  1
  H  3176  1  0.40775200  0.40965500  0.77346500  1
  H  3177  1  0.39171100  0.41329000  0.79712600  1
  H  3182  1  0.35145300  0.39654200  0.80279000  1
  H  3184  1  0.41430400  0.39327400  0.74949700  1
  H  3190  1  0.37926100  0.77962000  0.35797900  1
  H  3192  1  0.40967800  0.77344000  0.40775700  1
  H  3193  1  0.41332500  0.79710000  0.39171700  1
  H  3198  1  0.39659100  0.80276900  0.35145600  1
  H  3200  1  0.39327400  0.74948300  0.41431000  1
  H  3206  1  0.62718200  0.27961000  0.14850000  1
  H  3208  1  0.59678900  0.27344600  0.09870500  1
  H  3209  1  0.59313800  0.29710300  0.11474900  1
  H  3214  1  0.60985800  0.30276200  0.15501800  1
  H  3216  1  0.61317700  0.24948300  0.09215800  1
  H  3222  1  0.12720600  0.22682400  0.85798100  1
  H  3224  1  0.09680000  0.23298400  0.90776900  1
  H  3225  1  0.09316300  0.20932200  0.89172800  1
  H  3230  1  0.10990300  0.20365800  0.85146500  1
  H  3232  1  0.11318300  0.25695400  0.91431600  1
  H  3238  1  0.87924600  0.72682600  0.64848800  1
  H  3240  1  0.90967800  0.73299800  0.59871800  1
  H  3241  1  0.91330600  0.70933300  0.61475200  1
  H  3246  1  0.89655200  0.70365900  0.65500700  1
  H  3248  1  0.89330300  0.75697200  0.59217000  1
  H  3254  1  0.27962500  0.14847600  0.62719300  1
  H  3256  1  0.27345900  0.09867800  0.59680400  1
  H  3257  1  0.29711900  0.11471800  0.59315500  1
  H  3262  1  0.30278500  0.15498700  0.60988200  1
  H  3264  1  0.24949700  0.09213400  0.61320000  1
  H  3270  1  0.77965300  0.35800000  0.37923200  1
  H  3272  1  0.77346900  0.40775700  0.40968100  1
  H  3273  1  0.79714100  0.39172800  0.41330100  1
  H  3278  1  0.80283000  0.35148600  0.39650500  1
  H  3280  1  0.74949400  0.41430500  0.39331100  1
  H  3286  1  0.72683500  0.64848300  0.87924700  1
  H  3288  1  0.73303000  0.59872300  0.90969000  1
  H  3289  1  0.70936700  0.61475700  0.91333000  1
  H  3294  1  0.70368500  0.65500700  0.89657200  1
  H  3296  1  0.75699400  0.59217100  0.89330600  1
  H  3302  1  0.22683500  0.85795600  0.12720200  1
  H  3304  1  0.23299300  0.90775800  0.09681800  1
  H  3305  1  0.20933900  0.89171300  0.09316300  1
  H  3310  1  0.20368600  0.85143800  0.10987000  1
  H  3312  1  0.25695200  0.91430500  0.11322400  1
  H  3318  1  0.37806500  0.10895600  0.47622100  1
  H  3320  1  0.34543300  0.15721100  0.48309800  1
  H  3321  1  0.34194700  0.14092700  0.45956900  1
  H  3326  1  0.36225300  0.10215700  0.45273300  1
  H  3328  1  0.36222600  0.16461800  0.50663600  1
  H  3334  1  0.12840600  0.89749700  0.97624000  1
  H  3336  1  0.16101100  0.84922500  0.98312000  1
  H  3337  1  0.16450900  0.86550800  0.95959300  1
  H  3342  1  0.14423200  0.90429200  0.95275700  1
  H  3344  1  0.14421900  0.84182500  0.00665500  1
  H  3350  1  0.62837100  0.60898400  0.03024200  1
  H  3352  1  0.66104400  0.65720500  0.02331500  1
  H  3353  1  0.66456100  0.64090800  0.04682900  1
  H  3358  1  0.64426500  0.60215000  0.05363700  1
  H  3360  1  0.64419400  0.66464100  0.99981600  1
  H  3366  1  0.87815000  0.39745200  0.53027600  1
  H  3368  1  0.84531500  0.34935300  0.52326200  1
  H  3369  1  0.84179000  0.36567100  0.54676500  1
  H  3374  1  0.86227200  0.40433800  0.55369000  1
  H  3376  1  0.86222700  0.34185200  0.49981200  1
  H  3382  1  0.47623700  0.37805000  0.10896600  1
  H  3384  1  0.48310800  0.34543200  0.15723000  1
  H  3385  1  0.45957800  0.34194800  0.14095000  1
  H  3390  1  0.45275100  0.36223200  0.10216900  1
  H  3392  1  0.50665700  0.36219900  0.16462800  1
  H  3398  1  0.97623900  0.12840200  0.89748800  1
  H  3400  1  0.98310700  0.16101600  0.84921900  1
  H  3401  1  0.95957900  0.16450500  0.86550400  1
  H  3406  1  0.95275000  0.14421500  0.90428500  1
  H  3408  1  0.00664600  0.14422500  0.84181700  1
  H  3414  1  0.03030700  0.62826200  0.60905700  1
  H  3416  1  0.02320000  0.66121700  0.65705800  1
  H  3417  1  0.04667400  0.66478700  0.64070900  1
  H  3422  1  0.05352500  0.64431600  0.60207500  1
  H  3424  1  0.99982500  0.64419200  0.66463100  1
  H  3430  1  0.53027200  0.87811200  0.39745600  1
  H  3432  1  0.52329400  0.84532900  0.34931800  1
  H  3433  1  0.54678200  0.84178400  0.36565200  1
  H  3438  1  0.55367100  0.86221400  0.40434900  1
  H  3440  1  0.49985600  0.86227200  0.34181200  1
  H  3446  1  0.10900000  0.47622400  0.37809400  1
  H  3448  1  0.15719400  0.48315600  0.34538400  1
  H  3449  1  0.14090300  0.45963500  0.34188800  1
  H  3454  1  0.10216100  0.45282000  0.36221500  1
  H  3456  1  0.16463400  0.50666300  0.36221800  1
  H  3462  1  0.89744900  0.97618400  0.12830200  1
  H  3464  1  0.84935600  0.98318800  0.16114600  1
  H  3465  1  0.86568000  0.95969000  0.16466900  1
  H  3470  1  0.90434300  0.95277200  0.14417700  1
  H  3472  1  0.84184600  0.00663700  0.14423300  1
  H  3478  1  0.60895500  0.03022000  0.62840700  1
  H  3480  1  0.65722800  0.02336700  0.66101800  1
  H  3481  1  0.64093700  0.04689000  0.66450700  1
  H  3486  1  0.60215600  0.05371100  0.64421000  1
  H  3488  1  0.66463900  0.99983300  0.64422100  1
  H  3494  1  0.39749300  0.53022700  0.87804200  1
  H  3496  1  0.34921500  0.52334800  0.84544400  1
  H  3497  1  0.36550000  0.54687400  0.84194300  1
  H  3502  1  0.40428800  0.55370900  0.86221000  1
  H  3504  1  0.34181500  0.49981700  0.86225100  1
  H  3510  1  0.35796700  0.12719800  0.27961200  1
  H  3512  1  0.40776000  0.09680000  0.27345800  1
  H  3513  1  0.39171300  0.09315100  0.29711300  1
  H  3518  1  0.35144400  0.10987800  0.30276600  1
  H  3520  1  0.41431800  0.11322100  0.24950500  1
  H  3526  1  0.14848400  0.87928400  0.77961500  1
  H  3528  1  0.09869800  0.90968800  0.77343900  1
  H  3529  1  0.11473700  0.91333700  0.79709800  1
  H  3534  1  0.15500200  0.89661700  0.80276500  1
  H  3536  1  0.09215100  0.89330000  0.74947700  1
  H  3542  1  0.85797900  0.37924900  0.72683400  1
  H  3544  1  0.90774800  0.40968300  0.73299400  1
  H  3545  1  0.89171200  0.41330500  0.70932800  1
  H  3550  1  0.85145800  0.39653800  0.70366200  1
  H  3552  1  0.91430100  0.39330300  0.75696700  1
  H  3558  1  0.64848000  0.62722500  0.22682800  1
  H  3560  1  0.59870500  0.59679900  0.23299100  1
  H  3561  1  0.61474500  0.59316600  0.20933100  1
  H  3566  1  0.65500400  0.60991600  0.20366600  1
  H  3568  1  0.59215100  0.61318300  0.25696000  1
  H  3574  1  0.62719600  0.22683500  0.64847400  1
  H  3576  1  0.59677600  0.23301500  0.59869700  1
  H  3577  1  0.59313000  0.20935600  0.61473800  1
  H  3582  1  0.60986500  0.20368600  0.65499800  1
  H  3584  1  0.61317400  0.25697400  0.59214500  1
  H  3590  1  0.37927500  0.72684500  0.85795500  1
  H  3592  1  0.40966800  0.73300800  0.90775100  1
  H  3593  1  0.41331900  0.70935200  0.89170700  1
  H  3598  1  0.39660100  0.70369300  0.85143700  1
  H  3600  1  0.39328000  0.75697200  0.91429800  1
  H  3606  1  0.87924900  0.77963000  0.14847500  1
  H  3608  1  0.90965600  0.77347100  0.09868700  1
  H  3609  1  0.91329100  0.79713200  0.11472700  1
  H  3614  1  0.89655000  0.80279600  0.15499000  1
  H  3616  1  0.89327400  0.74950000  0.09214000  1
  H  3622  1  0.12719800  0.27962900  0.35796500  1
  H  3624  1  0.09678000  0.27345700  0.40774300  1
  H  3625  1  0.09314600  0.29712100  0.39170800  1
  H  3630  1  0.10988200  0.30279000  0.35144800  1
  H  3632  1  0.11315900  0.24948500  0.41428800  1
  H  3638  1  0.72682900  0.85798300  0.37925000  1
  H  3640  1  0.73299600  0.90777300  0.40965100  1
  H  3641  1  0.70933500  0.89173300  0.41329500  1
  H  3646  1  0.70366500  0.85147000  0.39655000  1
  H  3648  1  0.75696100  0.91432000  0.39326200  1
  H  3654  1  0.22680300  0.64845500  0.62722200  1
  H  3656  1  0.23298500  0.59869700  0.59677300  1
  H  3657  1  0.20931300  0.61472700  0.59315500  1
  H  3662  1  0.20362500  0.65497000  0.60995000  1
  H  3664  1  0.25696100  0.59215000  0.61314300  1
  H  3670  1  0.27961900  0.35797400  0.12721100  1
  H  3672  1  0.27342200  0.40772900  0.09675900  1
  H  3673  1  0.29708600  0.39169300  0.09312200  1
  H  3678  1  0.30277200  0.35144800  0.10989100  1
  H  3680  1  0.24945900  0.41428300  0.11314400  1
  H  3686  1  0.77962000  0.14849900  0.87925200  1
  H  3688  1  0.77346200  0.09869700  0.90963700  1
  H  3689  1  0.79711700  0.11474300  0.91329100  1
  H  3694  1  0.80277100  0.15501700  0.89658300  1
  H  3696  1  0.74950200  0.09215000  0.89323200  1
  C  1  1  0.13414400  0.35249700  0.96970800  1
  C  2  1  0.13990000  0.33726700  0.96441100  1
  C  3  1  0.13757200  0.33219300  0.94825500  1
  C  4  1  0.12895700  0.34176900  0.93682000  1
  C  5  1  0.12364300  0.35719800  0.94238900  1
  C  6  1  0.12602000  0.36238700  0.95843600  1
  C  7  1  0.12813000  0.33748400  0.91877600  1
  C  8  1  0.14381600  0.34548100  0.91289400  1
  C  9  1  0.14466000  0.36212400  0.90854100  1
  C  10  1  0.15947900  0.36978100  0.90485200  1
  C  11  1  0.17423100  0.36120500  0.90561500  1
  C  12  1  0.17372900  0.34482900  0.91057500  1
  C  13  1  0.15891500  0.33728500  0.91429800  1
  C  14  1  0.12739100  0.31946400  0.91436700  1
  C  15  1  0.11234300  0.34329200  0.91091900  1
  C  16  1  0.11138900  0.34801900  0.89438400  1
  C  17  1  0.09647900  0.35149500  0.88680700  1
  C  18  1  0.08175900  0.35020900  0.89537400  1
  C  19  1  0.08238400  0.34492800  0.91164100  1
  C  20  1  0.09728700  0.34139000  0.91909700  1
  C  21  1  0.11923100  0.30781400  0.92408600  1
  C  22  1  0.11691800  0.29169500  0.91888800  1
  C  23  1  0.12229000  0.28664300  0.90344000  1
  C  24  1  0.13000500  0.29810400  0.89344500  1
  C  25  1  0.13233700  0.31411800  0.89873800  1
  C  46  1  0.37230300  0.65394500  0.46970500  1
  C  47  1  0.36658500  0.66919400  0.46442900  1
  C  48  1  0.36890500  0.67427500  0.44827300  1
  C  49  1  0.37744600  0.66466700  0.43681000  1
  C  50  1  0.38271000  0.64921400  0.44235800  1
  C  51  1  0.38036300  0.64403000  0.45840900  1
  C  52  1  0.37827000  0.66896100  0.41876800  1
  C  53  1  0.36256600  0.66099500  0.41289200  1
  C  54  1  0.36170600  0.64437100  0.40846300  1
  C  55  1  0.34687500  0.63673600  0.40477000  1
  C  56  1  0.33212400  0.64531100  0.40560300  1
  C  57  1  0.33264800  0.66166400  0.41063800  1
  C  58  1  0.34747200  0.66918600  0.41436100  1
  C  59  1  0.37901700  0.68698500  0.41438000  1
  C  60  1  0.39405700  0.66314700  0.41091800  1
  C  61  1  0.39501200  0.65846200  0.39437100  1
  C  62  1  0.40991900  0.65498200  0.38678900  1
  C  63  1  0.42463800  0.65620900  0.39536700  1
  C  64  1  0.42401500  0.66146800  0.41164100  1
  C  65  1  0.40911400  0.66500000  0.41910300  1
  C  66  1  0.38724300  0.69861800  0.42406500  1
  C  67  1  0.38956800  0.71473500  0.41886500  1
  C  68  1  0.38414800  0.71980100  0.40344000  1
  C  69  1  0.37639700  0.70835300  0.39346100  1
  C  70  1  0.37405100  0.69234200  0.39876000  1
  C  91  1  0.87227500  0.85249100  0.53674900  1
  C  92  1  0.86659400  0.83722900  0.54203100  1
  C  93  1  0.86892800  0.83216000  0.55818700  1
  C  94  1  0.87747700  0.84176900  0.56964400  1
  C  95  1  0.88270900  0.85723100  0.56408400  1
  C  96  1  0.88034000  0.86241200  0.54803400  1
  C  97  1  0.87829900  0.83749100  0.58768800  1
  C  98  1  0.86260200  0.84546700  0.59356800  1
  C  99  1  0.86173300  0.86209500  0.59797400  1
  C  100  1  0.84690100  0.86973200  0.60165700  1
  C  101  1  0.83215400  0.86115700  0.60081900  1
  C  102  1  0.83267900  0.84479900  0.59579900  1
  C  103  1  0.84750600  0.83727800  0.59208600  1
  C  104  1  0.87904500  0.81947300  0.59209700  1
  C  105  1  0.89407500  0.84332400  0.59554100  1
  C  106  1  0.89503800  0.84798400  0.61209500  1
  C  107  1  0.90994400  0.85147400  0.61967600  1
  C  108  1  0.92466200  0.85023900  0.61110000  1
  C  109  1  0.92403800  0.84499600  0.59482000  1
  C  110  1  0.90913600  0.84146300  0.58736000  1
  C  111  1  0.88728500  0.80784000  0.58242100  1
  C  112  1  0.88960300  0.79172200  0.58761800  1
  C  113  1  0.88416900  0.78665000  0.60303800  1
  C  114  1  0.87641300  0.79810000  0.61301300  1
  C  115  1  0.87407100  0.81411000  0.60771100  1
  C  136  1  0.63415200  0.15395900  0.03675000  1
  C  137  1  0.63987200  0.16920600  0.04203800  1
  C  138  1  0.63754200  0.17428100  0.05819200  1
  C  139  1  0.62898500  0.16467400  0.06964400  1
  C  140  1  0.62372500  0.14922200  0.06408800  1
  C  141  1  0.62608500  0.14404300  0.04803700  1
  C  142  1  0.62815200  0.16896100  0.08768700  1
  C  143  1  0.64383500  0.16095900  0.09357100  1
  C  144  1  0.64466600  0.14433400  0.09798900  1
  C  145  1  0.65948300  0.13667300  0.10167800  1
  C  146  1  0.67424500  0.14522700  0.10084600  1
  C  147  1  0.67375300  0.16158300  0.09582300  1
  C  148  1  0.65894100  0.16913500  0.09211200  1
  C  149  1  0.62741700  0.18698100  0.09209300  1
  C  150  1  0.61235600  0.16315900  0.09552800  1
  C  151  1  0.61138900  0.15849400  0.11208100  1
  C  152  1  0.59647800  0.15501600  0.11965400  1
  C  153  1  0.58176400  0.15625000  0.11106900  1
  C  154  1  0.58239900  0.16149100  0.09479000  1
  C  155  1  0.59730500  0.16500900  0.08733200  1
  C  156  1  0.61920300  0.19861600  0.08240000  1
  C  157  1  0.61688200  0.21473400  0.08760200  1
  C  158  1  0.62232700  0.21980600  0.10301800  1
  C  159  1  0.63007100  0.20835200  0.11299800  1
  C  160  1  0.63241500  0.19234200  0.10770000  1
  C  181  1  0.96972200  0.13416900  0.35249400  1
  C  182  1  0.96443100  0.13988000  0.33724500  1
  C  183  1  0.94827100  0.13756000  0.33218200  1
  C  184  1  0.93682100  0.12899700  0.34179100  1
  C  185  1  0.94239200  0.12372600  0.35723300  1
  C  186  1  0.95844300  0.12608900  0.36240900  1
  C  187  1  0.91878200  0.12816700  0.33749500  1
  C  188  1  0.91289600  0.14385300  0.34548900  1
  C  189  1  0.90849000  0.14468000  0.36211900  1
  C  190  1  0.90479200  0.15949200  0.36978400  1
  C  191  1  0.90559300  0.17425600  0.36123100  1
  C  192  1  0.91060800  0.17377000  0.34487200  1
  C  193  1  0.91433500  0.15896300  0.33731900  1
  C  194  1  0.91439200  0.12743400  0.31947100  1
  C  195  1  0.91093800  0.11237300  0.34329700  1
  C  196  1  0.89438800  0.11140800  0.34797000  1
  C  197  1  0.88681500  0.09649700  0.35145200  1
  C  198  1  0.89539900  0.08178200  0.35021800  1
  C  199  1  0.91167400  0.08241500  0.34496300  1
  C  200  1  0.91913300  0.09732100  0.34144300  1
  C  201  1  0.92407600  0.11921200  0.30783600  1
  C  202  1  0.91886600  0.11687300  0.29172400  1
  C  203  1  0.90344600  0.12230600  0.28665500  1
  C  204  1  0.89347100  0.13006000  0.29810500  1
  C  205  1  0.89877100  0.13240100  0.31411600  1
  C  226  1  0.46973500  0.37229600  0.65397900  1
  C  227  1  0.46443600  0.36655700  0.66921300  1
  C  228  1  0.44828100  0.36889100  0.67428200  1
  C  229  1  0.43683800  0.37749200  0.66469900  1
  C  230  1  0.44241300  0.38277500  0.64926100  1
  C  231  1  0.45846200  0.38040100  0.64407800  1
  C  232  1  0.41879400  0.37830700  0.66897100  1
  C  233  1  0.41291300  0.36262200  0.66097600  1
  C  234  1  0.40855800  0.36177100  0.64433400  1
  C  235  1  0.40487700  0.34695100  0.63667500  1
  C  236  1  0.40566700  0.33219700  0.64524200  1
  C  237  1  0.41063500  0.33270100  0.66161600  1
  C  238  1  0.41434900  0.34751700  0.66915900  1
  C  239  1  0.41438400  0.37904000  0.68699000  1
  C  240  1  0.41093600  0.39408700  0.66315300  1
  C  241  1  0.39439000  0.39504500  0.65846000  1
  C  242  1  0.38680500  0.40995100  0.65498100  1
  C  243  1  0.39537100  0.42467300  0.65624800  1
  C  244  1  0.41163700  0.42405300  0.66152900  1
  C  245  1  0.41910300  0.40915000  0.66505100  1
  C  246  1  0.42407300  0.38724300  0.69863600  1
  C  247  1  0.41887100  0.38956200  0.71475300  1
  C  248  1  0.40343400  0.38416100  0.71981000  1
  C  249  1  0.39345400  0.37642600  0.70835100  1
  C  250  1  0.39875800  0.37408600  0.69234100  1
  C  271  1  0.53674800  0.87231800  0.85249600  1
  C  272  1  0.54204700  0.86656200  0.83726700  1
  C  273  1  0.55820100  0.86889300  0.83219400  1
  C  274  1  0.56963900  0.87749800  0.84177700  1
  C  275  1  0.56406900  0.88280600  0.85720600  1
  C  276  1  0.54802000  0.88043500  0.86239000  1
  C  277  1  0.58768100  0.87832800  0.83749300  1
  C  278  1  0.59356300  0.86263800  0.84547800  1
  C  279  1  0.59792100  0.86179400  0.86212200  1
  C  280  1  0.60161300  0.84697600  0.86977800  1
  C  281  1  0.60083700  0.83222300  0.86120800  1
  C  282  1  0.59587100  0.83272300  0.84483400  1
  C  283  1  0.59216100  0.84753600  0.83728700  1
  C  284  1  0.59207600  0.87906700  0.81947000  1
  C  285  1  0.59552700  0.89412000  0.84329800  1
  C  286  1  0.61206100  0.89507300  0.84802900  1
  C  287  1  0.61964000  0.90998400  0.85150700  1
  C  288  1  0.61106900  0.92470300  0.85023700  1
  C  289  1  0.59481200  0.92408000  0.84492900  1
  C  290  1  0.58735300  0.90917700  0.84140200  1
  C  291  1  0.58237700  0.88725300  0.80782100  1
  C  292  1  0.58758000  0.88956800  0.79170500  1
  C  293  1  0.60301400  0.88416400  0.78664700  1
  C  294  1  0.61301300  0.87646800  0.79811600  1
  C  295  1  0.60771500  0.87413700  0.81412900  1
  C  316  1  0.03675100  0.63415000  0.15395900  1
  C  317  1  0.04204500  0.63986900  0.16920200  1
  C  318  1  0.05820400  0.63754200  0.17426800  1
  C  319  1  0.06965000  0.62896900  0.16466400  1
  C  320  1  0.06407800  0.62368800  0.14922700  1
  C  321  1  0.04802600  0.62605300  0.14405100  1
  C  322  1  0.08769100  0.62814800  0.16896000  1
  C  323  1  0.09356500  0.64385300  0.16099600  1
  C  324  1  0.09795100  0.64471900  0.14436000  1
  C  325  1  0.10163700  0.65955000  0.13672500  1
  C  326  1  0.10084700  0.67429500  0.14531400  1
  C  327  1  0.09585300  0.67376800  0.16167900  1
  C  328  1  0.09213900  0.65894200  0.16920200  1
  C  329  1  0.09208500  0.62739000  0.18698300  1
  C  330  1  0.09554700  0.61237300  0.16312700  1
  C  331  1  0.11209100  0.61141500  0.15843000  1
  C  332  1  0.11967400  0.59650900  0.15494500  1
  C  333  1  0.11110500  0.58178800  0.15619800  1
  C  334  1  0.09483700  0.58240800  0.16147800  1
  C  335  1  0.08737800  0.59731000  0.16501500  1
  C  336  1  0.08238900  0.61919000  0.19862300  1
  C  337  1  0.08759400  0.61685700  0.21473700  1
  C  338  1  0.10302600  0.62226400  0.21980000  1
  C  339  1  0.11301600  0.62998600  0.20834300  1
  C  340  1  0.10771800  0.63232900  0.19233100  1
  C  361  1  0.35248000  0.96970200  0.13414600  1
  C  362  1  0.33724400  0.96440600  0.13988400  1
  C  363  1  0.33217800  0.94824800  0.13756100  1
  C  364  1  0.34176800  0.93680900  0.12896700  1
  C  365  1  0.35720300  0.94237800  0.12367300  1
  C  366  1  0.36238600  0.95842600  0.12604700  1
  C  367  1  0.33748600  0.91876600  0.12813600  1
  C  368  1  0.34548000  0.91288300  0.14382400  1
  C  369  1  0.36211800  0.90851300  0.14466900  1
  C  370  1  0.36977000  0.90482400  0.15949100  1
  C  371  1  0.36119600  0.90560500  0.17424200  1
  C  372  1  0.34482700  0.91058800  0.17373700  1
  C  373  1  0.33728400  0.91430400  0.15892200  1
  C  374  1  0.31946600  0.91435200  0.12739400  1
  C  375  1  0.34329700  0.91091500  0.11234700  1
  C  376  1  0.34801600  0.89437900  0.11138600  1
  C  377  1  0.35149200  0.88680900  0.09647300  1
  C  378  1  0.35021300  0.89538400  0.08175700  1
  C  379  1  0.34494100  0.91165300  0.08238900  1
  C  380  1  0.34140300  0.91910300  0.09729600  1
  C  381  1  0.30782000  0.92406000  0.11921700  1
  C  382  1  0.29169900  0.91886600  0.11691500  1
  C  383  1  0.28664800  0.90342100  0.12229600  1
  C  384  1  0.29810700  0.89343100  0.13001700  1
  C  385  1  0.31412100  0.89872600  0.13234900  1
  C  406  1  0.65394000  0.46968300  0.37231000  1
  C  407  1  0.66918700  0.46440800  0.36658100  1
  C  408  1  0.67427400  0.44825600  0.36890200  1
  C  409  1  0.66467500  0.43679200  0.37745300  1
  C  410  1  0.64922300  0.44233700  0.38272600  1
  C  411  1  0.64403600  0.45838800  0.38038100  1
  C  412  1  0.66897400  0.41875200  0.37827300  1
  C  413  1  0.66100900  0.41287800  0.36256700  1
  C  414  1  0.64438200  0.40846300  0.36170200  1
  C  415  1  0.63674900  0.40477900  0.34686800  1
  C  416  1  0.64532800  0.40560400  0.33212100  1
  C  417  1  0.66168500  0.41062300  0.33264900  1
  C  418  1  0.66920600  0.41433900  0.34747500  1
  C  419  1  0.68699800  0.41436800  0.37902400  1
  C  420  1  0.66315700  0.41089500  0.39405600  1
  C  421  1  0.65846000  0.39435000  0.39500100  1
  C  422  1  0.65496800  0.38676400  0.40990300  1
  C  423  1  0.65619700  0.39533600  0.42462700  1
  C  424  1  0.66146900  0.41160600  0.42401300  1
  C  425  1  0.66501300  0.41907100  0.40911600  1
  C  426  1  0.69863000  0.42405900  0.38724200  1
  C  427  1  0.71474800  0.41886400  0.38956900  1
  C  428  1  0.71981800  0.40343600  0.38415600  1
  C  429  1  0.70837100  0.39345100  0.37641000  1
  C  430  1  0.69235800  0.39874500  0.37406400  1
  C  451  1  0.85250000  0.53674500  0.87225500  1
  C  452  1  0.83723000  0.54202300  0.86659100  1
  C  453  1  0.83216300  0.55818100  0.86891800  1
  C  454  1  0.84178500  0.56964400  0.87744700  1
  C  455  1  0.85725500  0.56408800  0.88265900  1
  C  456  1  0.86243300  0.54803700  0.88029500  1
  C  457  1  0.83750500  0.58768600  0.87827600  1
  C  458  1  0.84548700  0.59357500  0.86258700  1
  C  459  1  0.86210800  0.59800900  0.86172900  1
  C  460  1  0.86975200  0.60169900  0.84690200  1
  C  461  1  0.86119000  0.60084000  0.83214700  1
  C  462  1  0.84484200  0.59579400  0.83266100  1
  C  463  1  0.83731300  0.59207400  0.84748300  1
  C  464  1  0.81948600  0.59209200  0.87901700  1
  C  465  1  0.84332900  0.59553000  0.89406100  1
  C  466  1  0.84796300  0.61209100  0.89504200  1
  C  467  1  0.85143800  0.61966100  0.90995400  1
  C  468  1  0.85021200  0.61107000  0.92466600  1
  C  469  1  0.84499900  0.59478200  0.92402400  1
  C  470  1  0.84148100  0.58733100  0.90911200  1
  C  471  1  0.80785900  0.58242500  0.88727400  1
  C  472  1  0.79174100  0.58762300  0.88959600  1
  C  473  1  0.78666500  0.60303500  0.88414600  1
  C  474  1  0.79810800  0.61300200  0.87637100  1
  C  475  1  0.81411900  0.60770000  0.87402600  1
  C  496  1  0.15395300  0.03674900  0.63415300  1
  C  497  1  0.16918900  0.04204200  0.63989600  1
  C  498  1  0.17426900  0.05819400  0.63755800  1
  C  499  1  0.16467700  0.06963800  0.62897100  1
  C  500  1  0.14923700  0.06407600  0.62368700  1
  C  501  1  0.14405300  0.04802700  0.62605300  1
  C  502  1  0.16896400  0.08768100  0.62813900  1
  C  503  1  0.16096400  0.09356500  0.64382400  1
  C  504  1  0.14433100  0.09795600  0.64466000  1
  C  505  1  0.13667200  0.10164700  0.65947600  1
  C  506  1  0.14523600  0.10085100  0.67423400  1
  C  507  1  0.16159800  0.09584400  0.67374000  1
  C  508  1  0.16914800  0.09213100  0.65892800  1
  C  509  1  0.18698500  0.09208700  0.62740300  1
  C  510  1  0.16316100  0.09552900  0.61234700  1
  C  511  1  0.15847300  0.11207600  0.61139000  1
  C  512  1  0.15499500  0.11965600  0.59648100  1
  C  513  1  0.15624500  0.11108100  0.58176300  1
  C  514  1  0.16149000  0.09480300  0.58238900  1
  C  515  1  0.16502600  0.08734500  0.59729200  1
  C  516  1  0.19862500  0.08238200  0.61921300  1
  C  517  1  0.21474300  0.08758000  0.61689500  1
  C  518  1  0.21981200  0.10300400  0.62232100  1
  C  519  1  0.20835400  0.11299600  0.63004200  1
  C  520  1  0.19234100  0.10770100  0.63238300  1
  C  541  1  0.10205000  0.38422800  0.28614100  1
  C  542  1  0.08673100  0.38978900  0.29139200  1
  C  543  1  0.08165900  0.38745700  0.30754900  1
  C  544  1  0.09133600  0.37902800  0.31904000  1
  C  545  1  0.10683500  0.37388600  0.31350600  1
  C  546  1  0.11201600  0.37626000  0.29745700  1
  C  547  1  0.08702800  0.37819100  0.33707700  1
  C  548  1  0.09501700  0.39387600  0.34296300  1
  C  549  1  0.11160900  0.39468800  0.34751800  1
  C  550  1  0.11925300  0.40949000  0.35128600  1
  C  551  1  0.11072200  0.42426000  0.35039600  1
  C  552  1  0.09441600  0.42379200  0.34520500  1
  C  553  1  0.08688000  0.40899100  0.34141900  1
  C  554  1  0.06900200  0.37743500  0.34146000  1
  C  555  1  0.09286100  0.36241800  0.34493600  1
  C  556  1  0.09742100  0.36146800  0.36151900  1
  C  557  1  0.10102200  0.34658500  0.36908500  1
  C  558  1  0.09998900  0.33187700  0.36046500  1
  C  559  1  0.09480600  0.33248400  0.34416400  1
  C  560  1  0.09118300  0.34736600  0.33671000  1
  C  561  1  0.05742000  0.36904500  0.33185500  1
  C  562  1  0.04131600  0.36666600  0.33707500  1
  C  563  1  0.03620000  0.37221900  0.35243700  1
  C  564  1  0.04759800  0.38014800  0.36233600  1
  C  565  1  0.06360300  0.38252400  0.35702700  1
  C  586  1  0.40440200  0.62223800  0.78611600  1
  C  587  1  0.41972800  0.61669300  0.79136100  1
  C  588  1  0.42480500  0.61903400  0.80751500  1
  C  589  1  0.41512800  0.62745100  0.81901200  1
  C  590  1  0.39961200  0.63256000  0.81348700  1
  C  591  1  0.39442600  0.63018100  0.79744000  1
  C  592  1  0.41941800  0.62828500  0.83705300  1
  C  593  1  0.41142000  0.61260700  0.84294400  1
  C  594  1  0.39483200  0.61179100  0.84751200  1
  C  595  1  0.38718800  0.59698900  0.85127800  1
  C  596  1  0.39570900  0.58221800  0.85035700  1
  C  597  1  0.41201200  0.58268500  0.84515200  1
  C  598  1  0.41954400  0.59748600  0.84136200  1
  C  599  1  0.43743900  0.62903200  0.84144900  1
  C  600  1  0.41357600  0.64404900  0.84491800  1
  C  601  1  0.40906000  0.64501200  0.86151300  1
  C  602  1  0.40546700  0.65989700  0.86907900  1
  C  603  1  0.40648700  0.67460100  0.86045300  1
  C  604  1  0.41164200  0.67398900  0.84414500  1
  C  605  1  0.41525400  0.65910300  0.83669100  1
  C  606  1  0.44901400  0.63744900  0.83185500  1
  C  607  1  0.46511900  0.63982900  0.83707100  1
  C  608  1  0.47023800  0.63426700  0.85242800  1
  C  609  1  0.45885300  0.62630200  0.86231200  1
  C  610  1  0.44285100  0.62391600  0.85700200  1
  C  631  1  0.60206800  0.12222700  0.72028600  1
  C  632  1  0.58676000  0.11663100  0.71504000  1
  C  633  1  0.58166600  0.11898100  0.69889300  1
  C  634  1  0.59131400  0.12745000  0.68740900  1
  C  635  1  0.60680800  0.13262000  0.69293400  1
  C  636  1  0.61200900  0.13023000  0.70897300  1
  C  637  1  0.58701100  0.12829000  0.66937100  1
  C  638  1  0.59500000  0.11260400  0.66348400  1
  C  639  1  0.61160000  0.11179200  0.65896000  1
  C  640  1  0.61924800  0.09699000  0.65519600  1
  C  641  1  0.61071500  0.08222200  0.65607600  1
  C  642  1  0.59439900  0.08268900  0.66123300  1
  C  643  1  0.58685600  0.09749000  0.66500300  1
  C  644  1  0.56898400  0.12904300  0.66499300  1
  C  645  1  0.59283800  0.14406200  0.66150900  1
  C  646  1  0.59743100  0.14500600  0.64493500  1
  C  647  1  0.60102900  0.15989000  0.63736800  1
  C  648  1  0.59998600  0.17460000  0.64598400  1
  C  649  1  0.59476200  0.17399800  0.66227100  1
  C  650  1  0.59113300  0.15911700  0.66972500  1
  C  651  1  0.55739800  0.13740700  0.67461300  1
  C  652  1  0.54129100  0.13978200  0.66940000  1
  C  653  1  0.53617800  0.13424700  0.65403000  1
  C  654  1  0.54758400  0.12635100  0.64411300  1
  C  655  1  0.56359000  0.12397800  0.64941600  1
  C  676  1  0.90438600  0.88424000  0.22030600  1
  C  677  1  0.91971100  0.88979100  0.21505900  1
  C  678  1  0.92478700  0.88744900  0.19890600  1
  C  679  1  0.91510700  0.87902600  0.18741500  1
  C  680  1  0.89960300  0.87389300  0.19294400  1
  C  681  1  0.89442200  0.87627000  0.20899200  1
  C  682  1  0.91941500  0.87818700  0.16937800  1
  C  683  1  0.91144300  0.89388400  0.16349500  1
  C  684  1  0.89485500  0.89471200  0.15893000  1
  C  685  1  0.88722800  0.90952600  0.15516500  1
  C  686  1  0.89577400  0.92428500  0.15606200  1
  C  687  1  0.91207800  0.92379800  0.16126100  1
  C  688  1  0.91959700  0.90898900  0.16504300  1
  C  689  1  0.93744100  0.87741700  0.16499600  1
  C  690  1  0.91356100  0.86242900  0.16151200  1
  C  691  1  0.90901700  0.86147300  0.14492500  1
  C  692  1  0.90542000  0.84659000  0.13735700  1
  C  693  1  0.90644000  0.83188200  0.14597900  1
  C  694  1  0.91161900  0.83248900  0.16228000  1
  C  695  1  0.91525200  0.84737100  0.16973100  1
  C  696  1  0.94901600  0.86902400  0.17460600  1
  C  697  1  0.96512100  0.86663700  0.16939000  1
  C  698  1  0.97023900  0.87218600  0.15402700  1
  C  699  1  0.95884800  0.88011600  0.14412400  1
  C  700  1  0.94284300  0.88250000  0.14942900  1
  C  721  1  0.88422300  0.22030600  0.90436600  1
  C  722  1  0.88979100  0.21506700  0.91968500  1
  C  723  1  0.88745700  0.19891500  0.92477100  1
  C  724  1  0.87901500  0.18742400  0.91510900  1
  C  725  1  0.87386700  0.19294300  0.89960600  1
  C  726  1  0.87625100  0.20898600  0.89441000  1
  C  727  1  0.87817500  0.16938400  0.91941000  1
  C  728  1  0.89385700  0.16349700  0.91141200  1
  C  729  1  0.89466900  0.15894500  0.89482100  1
  C  730  1  0.90947200  0.15517400  0.88718000  1
  C  731  1  0.92423900  0.15606700  0.89571300  1
  C  732  1  0.92377200  0.16126600  0.91201800  1
  C  733  1  0.90897000  0.16504600  0.91955500  1
  C  734  1  0.87742200  0.16498600  0.93743400  1
  C  735  1  0.86240600  0.16151500  0.91357900  1
  C  736  1  0.86145600  0.14493600  0.90901300  1
  C  737  1  0.84656900  0.13737200  0.90542200  1
  C  738  1  0.83186400  0.14599500  0.90646000  1
  C  739  1  0.83247500  0.16229900  0.91163400  1
  C  740  1  0.84735700  0.16974500  0.91526900  1
  C  741  1  0.86905300  0.17460900  0.94901600  1
  C  742  1  0.86668300  0.16939900  0.96512400  1
  C  743  1  0.87221000  0.15402300  0.97023300  1
  C  744  1  0.88014800  0.14412400  0.95884100  1
  C  745  1  0.88252500  0.14942800  0.94283600  1
  C  766  1  0.12225100  0.72028700  0.60205700  1
  C  767  1  0.11671700  0.71506100  0.58672000  1
  C  768  1  0.11904100  0.69890600  0.58163600  1
  C  769  1  0.12740800  0.68739100  0.59133500  1
  C  770  1  0.13250300  0.69289400  0.60686000  1
  C  771  1  0.13015700  0.70894600  0.61204200  1
  C  772  1  0.12824500  0.66935400  0.58702800  1
  C  773  1  0.11254800  0.66347200  0.59500000  1
  C  774  1  0.11172000  0.65884800  0.61157100  1
  C  775  1  0.09690500  0.65508000  0.61919400  1
  C  776  1  0.08213900  0.65603800  0.61066200  1
  C  777  1  0.08262800  0.66129400  0.59437600  1
  C  778  1  0.09743900  0.66508100  0.58686300  1
  C  779  1  0.12900800  0.66497400  0.56900100  1
  C  780  1  0.14401400  0.66149400  0.59286900  1
  C  781  1  0.14496700  0.64490000  0.59738900  1
  C  782  1  0.15985200  0.63733400  0.60098800  1
  C  783  1  0.17455500  0.64596800  0.60001300  1
  C  784  1  0.17394500  0.66227900  0.59486400  1
  C  785  1  0.15906400  0.66973100  0.59123100  1
  C  786  1  0.13744700  0.67455900  0.55743700  1
  C  787  1  0.13981700  0.66934900  0.54132700  1
  C  788  1  0.13423700  0.65400000  0.53620300  1
  C  789  1  0.12626600  0.64411700  0.54758500  1
  C  790  1  0.12388100  0.64942500  0.56358800  1
  C  811  1  0.62219100  0.78616900  0.40438700  1
  C  812  1  0.61666800  0.79140300  0.41972400  1
  C  813  1  0.61902300  0.80755300  0.42481100  1
  C  814  1  0.62743800  0.81905100  0.41513400  1
  C  815  1  0.63253100  0.81353400  0.39961000  1
  C  816  1  0.63014800  0.79749000  0.39441900  1
  C  817  1  0.62827300  0.83709000  0.41942800  1
  C  818  1  0.61258700  0.84298100  0.41144600  1
  C  819  1  0.61175400  0.84755700  0.39486100  1
  C  820  1  0.59694100  0.85132000  0.38723200  1
  C  821  1  0.58217700  0.85038100  0.39576600  1
  C  822  1  0.58266300  0.84516000  0.41206200  1
  C  823  1  0.59747500  0.84138500  0.41958200  1
  C  824  1  0.62903200  0.84148300  0.43745100  1
  C  825  1  0.64403500  0.84495400  0.41357700  1
  C  826  1  0.64499500  0.86154800  0.40905800  1
  C  827  1  0.65987900  0.86911300  0.40545500  1
  C  828  1  0.67458300  0.86048400  0.40645600  1
  C  829  1  0.67397200  0.84417700  0.41161900  1
  C  830  1  0.65908900  0.83672800  0.41525000  1
  C  831  1  0.63745200  0.83188700  0.44902100  1
  C  832  1  0.63982500  0.83709300  0.46513000  1
  C  833  1  0.63426000  0.85244800  0.47025400  1
  C  834  1  0.62630600  0.86234100  0.45886900  1
  C  835  1  0.62392200  0.85703700  0.44286500  1
  C  856  1  0.38423500  0.28616700  0.10208200  1
  C  857  1  0.38980100  0.29140700  0.08676200  1
  C  858  1  0.38744900  0.30755500  0.08166900  1
  C  859  1  0.37902000  0.31904700  0.09134000  1
  C  860  1  0.37389100  0.31353200  0.10685100  1
  C  861  1  0.37627100  0.29748800  0.11204400  1
  C  862  1  0.37817400  0.33708500  0.08703700  1
  C  863  1  0.39385300  0.34297700  0.09503700  1
  C  864  1  0.39466000  0.34755200  0.11162200  1
  C  865  1  0.40946300  0.35131600  0.11926700  1
  C  866  1  0.42423400  0.35039300  0.11074400  1
  C  867  1  0.42377000  0.34518400  0.09444400  1
  C  868  1  0.40896900  0.34140900  0.08690400  1
  C  869  1  0.37742200  0.34148000  0.06901300  1
  C  870  1  0.36239900  0.34494200  0.09286500  1
  C  871  1  0.36144300  0.36153100  0.09740100  1
  C  872  1  0.34655600  0.36909500  0.10099500  1
  C  873  1  0.33185300  0.36046500  0.09998100  1
  C  874  1  0.33246600  0.34415500  0.09483300  1
  C  875  1  0.34734900  0.33670700  0.09119900  1
  C  876  1  0.36903600  0.33186100  0.05743800  1
  C  877  1  0.36666500  0.33707000  0.04132900  1
  C  878  1  0.37223000  0.35242400  0.03620500  1
  C  879  1  0.38016200  0.36232900  0.04759700  1
  C  880  1  0.38254600  0.35702700  0.06360200  1
  C  901  1  0.72030900  0.60206700  0.12221400  1
  C  902  1  0.71506100  0.58674700  0.11665400  1
  C  903  1  0.69890800  0.58166800  0.11899800  1
  C  904  1  0.68742000  0.59134100  0.12743700  1
  C  905  1  0.69295200  0.60684100  0.13257800  1
  C  906  1  0.70899800  0.61202600  0.13019500  1
  C  907  1  0.66938300  0.58703300  0.12827500  1
  C  908  1  0.66349600  0.59501800  0.11258800  1
  C  909  1  0.65894600  0.61161100  0.11177300  1
  C  910  1  0.65517800  0.61925200  0.09696900  1
  C  911  1  0.65606500  0.61071800  0.08220200  1
  C  912  1  0.66125100  0.59441000  0.08267300  1
  C  913  1  0.66503700  0.58687700  0.09747500  1
  C  914  1  0.66500200  0.56900700  0.12903500  1
  C  915  1  0.66152300  0.59286900  0.14404500  1
  C  916  1  0.64494000  0.59743000  0.14499300  1
  C  917  1  0.63737400  0.60103700  0.15987400  1
  C  918  1  0.64599400  0.60001400  0.17458300  1
  C  919  1  0.66229100  0.59482200  0.17397900  1
  C  920  1  0.66974600  0.59119200  0.15910000  1
  C  921  1  0.67461000  0.55742800  0.13742700  1
  C  922  1  0.66939500  0.54132200  0.13980500  1
  C  923  1  0.65403000  0.53620700  0.13425800  1
  C  924  1  0.64412800  0.54760300  0.12633100  1
  C  925  1  0.64943400  0.56360700  0.12395000  1
  C  946  1  0.22030500  0.90440800  0.88423400  1
  C  947  1  0.21505800  0.91973000  0.88979000  1
  C  948  1  0.19890600  0.92480900  0.88744600  1
  C  949  1  0.18741400  0.91514100  0.87901000  1
  C  950  1  0.19294200  0.89963000  0.87389000  1
  C  951  1  0.20898700  0.89444100  0.87627300  1
  C  952  1  0.16937300  0.91943000  0.87817800  1
  C  953  1  0.16348200  0.91143300  0.89385600  1
  C  954  1  0.15893100  0.89484000  0.89467200  1
  C  955  1  0.15517100  0.88719300  0.90947600  1
  C  956  1  0.15608300  0.89571800  0.92424600  1
  C  957  1  0.16127200  0.91202500  0.92377800  1
  C  958  1  0.16505400  0.91955800  0.90897400  1
  C  959  1  0.16497800  0.93745200  0.87742900  1
  C  960  1  0.16151100  0.91358900  0.86241100  1
  C  961  1  0.14492000  0.90905700  0.86144800  1
  C  962  1  0.13735400  0.90546900  0.84656100  1
  C  963  1  0.14597900  0.90649700  0.83185700  1
  C  964  1  0.16228300  0.91166800  0.83247100  1
  C  965  1  0.16973400  0.91528200  0.84735700  1
  C  966  1  0.17457700  0.94902900  0.86902500  1
  C  967  1  0.16936600  0.96513800  0.86665300  1
  C  968  1  0.15400200  0.97025300  0.87220100  1
  C  969  1  0.14411100  0.95886300  0.88015100  1
  C  970  1  0.14942100  0.94286000  0.88253300  1
  C  991  1  0.28614600  0.10206900  0.38422200  1
  C  992  1  0.29139100  0.08675500  0.38980200  1
  C  993  1  0.30754000  0.08166500  0.38745500  1
  C  994  1  0.31902700  0.09132500  0.37900500  1
  C  995  1  0.31350500  0.10682400  0.37385100  1
  C  996  1  0.29746200  0.11201900  0.37623400  1
  C  997  1  0.33706600  0.08702300  0.37816400  1
  C  998  1  0.34295300  0.09501100  0.39384900  1
  C  999  1  0.34749200  0.11160700  0.39466000  1
  C  1000  1  0.35126400  0.11925200  0.40946100  1
  C  1001  1  0.35037500  0.11072200  0.42423000  1
  C  1002  1  0.34520000  0.09441000  0.42376400  1
  C  1003  1  0.34142400  0.08687000  0.40896300  1
  C  1004  1  0.34144700  0.06899600  0.37740800  1
  C  1005  1  0.34492600  0.09285300  0.36239300  1
  C  1006  1  0.36150600  0.09742800  0.36144700  1
  C  1007  1  0.36907300  0.10102600  0.34656300  1
  C  1008  1  0.36045300  0.09999800  0.33185500  1
  C  1009  1  0.34416100  0.09479100  0.33245700  1
  C  1010  1  0.33670600  0.09116200  0.34733900  1
  C  1011  1  0.33183700  0.05741500  0.36902300  1
  C  1012  1  0.33705000  0.04130800  0.36664900  1
  C  1013  1  0.35241600  0.03619400  0.37219800  1
  C  1014  1  0.36232400  0.04759500  0.38010900  1
  C  1015  1  0.35701700  0.06360000  0.38248700  1
  C  1036  1  0.78612600  0.40438600  0.62224100  1
  C  1037  1  0.79137000  0.41971400  0.61670300  1
  C  1038  1  0.80752800  0.42478600  0.61903400  1
  C  1039  1  0.81902600  0.41509500  0.62743600  1
  C  1040  1  0.81349900  0.39958600  0.63255400  1
  C  1041  1  0.79744600  0.39440900  0.63018700  1
  C  1042  1  0.83706400  0.41940300  0.62827000  1
  C  1043  1  0.84294400  0.41143000  0.61257500  1
  C  1044  1  0.84752800  0.39484700  0.61174800  1
  C  1045  1  0.85129700  0.38722000  0.59693600  1
  C  1046  1  0.85038600  0.39576100  0.58217300  1
  C  1047  1  0.84516900  0.41206000  0.58265900  1
  C  1048  1  0.84138000  0.41957700  0.59746800  1
  C  1049  1  0.84144900  0.43742900  0.62903800  1
  C  1050  1  0.84493000  0.41354900  0.64403000  1
  C  1051  1  0.86152100  0.40901800  0.64498700  1
  C  1052  1  0.86909000  0.40542600  0.65987100  1
  C  1053  1  0.86046500  0.40643500  0.67457700  1
  C  1054  1  0.84416000  0.41160100  0.67396900  1
  C  1055  1  0.83670800  0.41522900  0.65908600  1
  C  1056  1  0.83185100  0.44900400  0.63744500  1
  C  1057  1  0.83707000  0.46510700  0.63983100  1
  C  1058  1  0.85242700  0.47022700  0.63426600  1
  C  1059  1  0.86232100  0.45883400  0.62632300  1
  C  1060  1  0.85701100  0.44283100  0.62394000  1
  C  1081  1  0.87231300  0.65395900  0.03674600  1
  C  1082  1  0.86655900  0.66918900  0.04204300  1
  C  1083  1  0.86888500  0.67426300  0.05819900  1
  C  1084  1  0.87749900  0.66468600  0.06963500  1
  C  1085  1  0.88281200  0.64925700  0.06406500  1
  C  1086  1  0.88043500  0.64406800  0.04801900  1
  C  1087  1  0.87832700  0.66897000  0.08767900  1
  C  1088  1  0.86263900  0.66097300  0.09356000  1
  C  1089  1  0.86179600  0.64433100  0.09791500  1
  C  1090  1  0.84697600  0.63667500  0.10160300  1
  C  1091  1  0.83222400  0.64525000  0.10083800  1
  C  1092  1  0.83272700  0.66162500  0.09587700  1
  C  1093  1  0.84754000  0.66916900  0.09215500  1
  C  1094  1  0.87906600  0.68699000  0.09208800  1
  C  1095  1  0.89411300  0.66316200  0.09553600  1
  C  1096  1  0.89506700  0.65843600  0.11207000  1
  C  1097  1  0.90997600  0.65496000  0.11964800  1
  C  1098  1  0.92469700  0.65624500  0.11108000  1
  C  1099  1  0.92407200  0.66152500  0.09481300  1
  C  1100  1  0.90916800  0.66506300  0.08735800  1
  C  1101  1  0.88722700  0.69864000  0.08236900  1
  C  1102  1  0.88953900  0.71475900  0.08756700  1
  C  1103  1  0.88416500  0.71981100  0.10301500  1
  C  1104  1  0.87644900  0.70835100  0.11300900  1
  C  1105  1  0.87411700  0.69233600  0.10771500  1
  C  1126  1  0.63415300  0.35251000  0.53675000  1
  C  1127  1  0.63986700  0.33725900  0.54202600  1
  C  1128  1  0.63754700  0.33217800  0.55818100  1
  C  1129  1  0.62901100  0.34179100  0.56964600  1
  C  1130  1  0.62375500  0.35724700  0.56409900  1
  C  1131  1  0.62609800  0.36242800  0.54804600  1
  C  1132  1  0.62818400  0.33749600  0.58768700  1
  C  1133  1  0.64388800  0.34546200  0.59356400  1
  C  1134  1  0.64474900  0.36208400  0.59799800  1
  C  1135  1  0.65958100  0.36971800  0.60169100  1
  C  1136  1  0.67433100  0.36114200  0.60085700  1
  C  1137  1  0.67380600  0.34479100  0.59581600  1
  C  1138  1  0.65898200  0.33727100  0.59209300  1
  C  1139  1  0.62743600  0.31947200  0.59207500  1
  C  1140  1  0.61239700  0.34331100  0.59553600  1
  C  1141  1  0.61144100  0.34799200  0.61208600  1
  C  1142  1  0.59653400  0.35147100  0.61966600  1
  C  1143  1  0.58181600  0.35025000  0.61108600  1
  C  1144  1  0.58244000  0.34500600  0.59480700  1
  C  1145  1  0.59734200  0.34146600  0.58734900  1
  C  1146  1  0.61919700  0.30784300  0.58239600  1
  C  1147  1  0.61688200  0.29172300  0.58759000  1
  C  1148  1  0.62230500  0.28665500  0.60301500  1
  C  1149  1  0.63005700  0.29810300  0.61299300  1
  C  1150  1  0.63240400  0.31411400  0.60769400  1
  C  1171  1  0.13418100  0.15396500  0.46970600  1
  C  1172  1  0.13986400  0.16922700  0.46442400  1
  C  1173  1  0.13753000  0.17429600  0.44826700  1
  C  1174  1  0.12897900  0.16468700  0.43681100  1
  C  1175  1  0.12374600  0.14922600  0.44237200  1
  C  1176  1  0.12611500  0.14404500  0.45842100  1
  C  1177  1  0.12815800  0.16896500  0.41876800  1
  C  1178  1  0.14385300  0.16099000  0.41288700  1
  C  1179  1  0.14472400  0.14436000  0.40848400  1
  C  1180  1  0.15955500  0.13672300  0.40480100  1
  C  1181  1  0.17430300  0.14530000  0.40563700  1
  C  1182  1  0.17377700  0.16165800  0.41065500  1
  C  1183  1  0.15894900  0.16917900  0.41436700  1
  C  1184  1  0.12740900  0.18698300  0.41435800  1
  C  1185  1  0.11238100  0.16313000  0.41091400  1
  C  1186  1  0.11141800  0.15846700  0.39436100  1
  C  1187  1  0.09651300  0.15497400  0.38678200  1
  C  1188  1  0.08179400  0.15619900  0.39536000  1
  C  1189  1  0.08241900  0.16145500  0.41163500  1
  C  1190  1  0.09732100  0.16499200  0.41909400  1
  C  1191  1  0.11917200  0.19861600  0.42403600  1
  C  1192  1  0.11685300  0.21473500  0.41883800  1
  C  1193  1  0.12228500  0.21980500  0.40341800  1
  C  1194  1  0.13003900  0.20835500  0.39344300  1
  C  1195  1  0.13238200  0.19234500  0.39874300  1
  C  1216  1  0.37230300  0.85249500  0.96970500  1
  C  1217  1  0.36658300  0.83724900  0.96441700  1
  C  1218  1  0.36891300  0.83217300  0.94826300  1
  C  1219  1  0.37747000  0.84178100  0.93681000  1
  C  1220  1  0.38273000  0.85723300  0.94236600  1
  C  1221  1  0.38037000  0.86241200  0.95841700  1
  C  1222  1  0.37830400  0.83749400  0.91876800  1
  C  1223  1  0.36262100  0.84549500  0.91288400  1
  C  1224  1  0.36178900  0.86212000  0.90846600  1
  C  1225  1  0.34697300  0.86978100  0.90477600  1
  C  1226  1  0.33221000  0.86122900  0.90560900  1
  C  1227  1  0.33270200  0.84487200  0.91063200  1
  C  1228  1  0.34751400  0.83732100  0.91434300  1
  C  1229  1  0.37903900  0.81947300  0.91436200  1
  C  1230  1  0.39409900  0.84329500  0.91092600  1
  C  1231  1  0.39506600  0.84796000  0.89437400  1
  C  1232  1  0.40997700  0.85143800  0.88680000  1
  C  1233  1  0.42469100  0.85020500  0.89538600  1
  C  1234  1  0.42405600  0.84496400  0.91166500  1
  C  1235  1  0.40915000  0.84144600  0.91912300  1
  C  1236  1  0.38725200  0.80783800  0.92405500  1
  C  1237  1  0.38957300  0.79172200  0.91885300  1
  C  1238  1  0.38413000  0.78664900  0.90343800  1
  C  1239  1  0.37638600  0.79810200  0.89345700  1
  C  1240  1  0.37404000  0.81411300  0.89875500  1
  C  1261  1  0.03673200  0.87228600  0.65396300  1
  C  1262  1  0.04202300  0.86658000  0.66921200  1
  C  1263  1  0.05818300  0.86890000  0.67427500  1
  C  1264  1  0.06963400  0.87745800  0.66466400  1
  C  1265  1  0.06406500  0.88272600  0.64922100  1
  C  1266  1  0.04801300  0.88036200  0.64404500  1
  C  1267  1  0.08767300  0.87828800  0.66896000  1
  C  1268  1  0.09355900  0.86260200  0.66096700  1
  C  1269  1  0.09797000  0.86177600  0.64433600  1
  C  1270  1  0.10166800  0.84696400  0.63667100  1
  C  1271  1  0.10086300  0.83220100  0.64522200  1
  C  1272  1  0.09584400  0.83268500  0.66158100  1
  C  1273  1  0.09211500  0.84749200  0.66913300  1
  C  1274  1  0.09206200  0.87901800  0.68698500  1
  C  1275  1  0.09551600  0.89408200  0.66315900  1
  C  1276  1  0.11206800  0.89504800  0.65849200  1
  C  1277  1  0.11964200  0.90995900  0.65501000  1
  C  1278  1  0.11105600  0.92467300  0.65623800  1
  C  1279  1  0.09478000  0.92404000  0.66149000  1
  C  1280  1  0.08732100  0.90913400  0.66500800  1
  C  1281  1  0.08238300  0.88724800  0.69861800  1
  C  1282  1  0.08758400  0.88957000  0.71473600  1
  C  1283  1  0.10300900  0.88414600  0.71980100  1
  C  1284  1  0.11298300  0.87639100  0.70835000  1
  C  1285  1  0.10768100  0.87404600  0.69234000  1
  C  1306  1  0.53671900  0.63415700  0.35247700  1
  C  1307  1  0.54201800  0.63989800  0.33724300  1
  C  1308  1  0.55817300  0.63756400  0.33217400  1
  C  1309  1  0.56961500  0.62896200  0.34175600  1
  C  1310  1  0.56404000  0.62367700  0.35719400  1
  C  1311  1  0.54799200  0.62605100  0.36237700  1
  C  1312  1  0.58766000  0.62814700  0.33748400  1
  C  1313  1  0.59354100  0.64383200  0.34548000  1
  C  1314  1  0.59789400  0.64468400  0.36212300  1
  C  1315  1  0.60157500  0.65950300  0.36978300  1
  C  1316  1  0.60078600  0.67425700  0.36121400  1
  C  1317  1  0.59581900  0.67375400  0.34484000  1
  C  1318  1  0.59210500  0.65893700  0.33729700  1
  C  1319  1  0.59207000  0.62741500  0.31946500  1
  C  1320  1  0.59551900  0.61236700  0.34330200  1
  C  1321  1  0.61206400  0.61141000  0.34799800  1
  C  1322  1  0.61964900  0.59650400  0.35147600  1
  C  1323  1  0.61108400  0.58178200  0.35020700  1
  C  1324  1  0.59481700  0.58240200  0.34492400  1
  C  1325  1  0.58735300  0.59730400  0.34140200  1
  C  1326  1  0.58237800  0.61921800  0.30781800  1
  C  1327  1  0.58758400  0.61689400  0.29170200  1
  C  1328  1  0.60302000  0.62229500  0.28664700  1
  C  1329  1  0.61300200  0.63002900  0.29810500  1
  C  1330  1  0.60769600  0.63236800  0.31411500  1
  C  1351  1  0.46970700  0.13413800  0.15395900  1
  C  1352  1  0.46440800  0.13989300  0.16918700  1
  C  1353  1  0.44825400  0.13756100  0.17426200  1
  C  1354  1  0.43681700  0.12895600  0.16467900  1
  C  1355  1  0.44238800  0.12364800  0.14924900  1
  C  1356  1  0.45843700  0.12601800  0.14406600  1
  C  1357  1  0.41877400  0.12812600  0.16896300  1
  C  1358  1  0.41289200  0.14381600  0.16097700  1
  C  1359  1  0.40853600  0.14466000  0.14433400  1
  C  1360  1  0.40484300  0.15947800  0.13667600  1
  C  1361  1  0.40561800  0.17423300  0.14524700  1
  C  1362  1  0.41058400  0.17373100  0.16162100  1
  C  1363  1  0.41429400  0.15891800  0.16917000  1
  C  1364  1  0.41437900  0.12738700  0.18698500  1
  C  1365  1  0.41092800  0.11233400  0.16315700  1
  C  1366  1  0.39439400  0.11138000  0.15842600  1
  C  1367  1  0.38681600  0.09647100  0.15494700  1
  C  1368  1  0.39538600  0.08175100  0.15621900  1
  C  1369  1  0.41164300  0.08237400  0.16152700  1
  C  1370  1  0.41910400  0.09727800  0.16505400  1
  C  1371  1  0.42407800  0.11920200  0.19863400  1
  C  1372  1  0.41887600  0.11688600  0.21475000  1
  C  1373  1  0.40344100  0.12229100  0.21980900  1
  C  1374  1  0.39344300  0.12998600  0.20833900  1
  C  1375  1  0.39874200  0.13231700  0.19232500  1
  C  1396  1  0.96970400  0.37230500  0.85249700  1
  C  1397  1  0.96441000  0.36658500  0.83725400  1
  C  1398  1  0.94825200  0.36891200  0.83218700  1
  C  1399  1  0.93680500  0.37748700  0.84179000  1
  C  1400  1  0.94237900  0.38277400  0.85722600  1
  C  1401  1  0.95843100  0.38040600  0.86240300  1
  C  1402  1  0.91876600  0.37830800  0.83749500  1
  C  1403  1  0.91289100  0.36260400  0.84546000  1
  C  1404  1  0.90850900  0.36173700  0.86209500  1
  C  1405  1  0.90482300  0.34690600  0.86973100  1
  C  1406  1  0.90561000  0.33216200  0.86114300  1
  C  1407  1  0.91060100  0.33268900  0.84477600  1
  C  1408  1  0.91431500  0.34751400  0.83725300  1
  C  1409  1  0.91437000  0.37906600  0.81947300  1
  C  1410  1  0.91090800  0.39408400  0.84332900  1
  C  1411  1  0.89436600  0.39504100  0.84802800  1
  C  1412  1  0.88678200  0.40994600  0.85151200  1
  C  1413  1  0.89535100  0.42466800  0.85025700  1
  C  1414  1  0.91161700  0.42404800  0.84497400  1
  C  1415  1  0.91907700  0.40914600  0.84143600  1
  C  1416  1  0.92407000  0.38725900  0.80783000  1
  C  1417  1  0.91886200  0.38959700  0.79171800  1
  C  1418  1  0.90342900  0.38419200  0.78665500  1
  C  1419  1  0.89343800  0.37647100  0.79811400  1
  C  1420  1  0.89873700  0.37412900  0.81412500  1
  C  1441  1  0.65397500  0.03675300  0.87230900  1
  C  1442  1  0.66921100  0.04204800  0.86657300  1
  C  1443  1  0.67427900  0.05820600  0.86889400  1
  C  1444  1  0.66468700  0.06964500  0.87748800  1
  C  1445  1  0.64925300  0.06407700  0.88278300  1
  C  1446  1  0.64407000  0.04802800  0.88040800  1
  C  1447  1  0.66896900  0.08768900  0.87831900  1
  C  1448  1  0.66097500  0.09357000  0.86263200  1
  C  1449  1  0.64433700  0.09794100  0.86178600  1
  C  1450  1  0.63668600  0.10163200  0.84696500  1
  C  1451  1  0.64525900  0.10084900  0.83221300  1
  C  1452  1  0.66162600  0.09585900  0.83271700  1
  C  1453  1  0.66917000  0.09214800  0.84753400  1
  C  1454  1  0.68698900  0.09210200  0.87906100  1
  C  1455  1  0.66315800  0.09553900  0.89410800  1
  C  1456  1  0.65844100  0.11207500  0.89506900  1
  C  1457  1  0.65496500  0.11964700  0.90998200  1
  C  1458  1  0.65624300  0.11107100  0.92469700  1
  C  1459  1  0.66151400  0.09480100  0.92406600  1
  C  1460  1  0.66505200  0.08735200  0.90916000  1
  C  1461  1  0.69863500  0.08239400  0.88723900  1
  C  1462  1  0.71475700  0.08758900  0.88954000  1
  C  1463  1  0.71980700  0.10303400  0.88415800  1
  C  1464  1  0.70834800  0.11302400  0.87643700  1
  C  1465  1  0.69233400  0.10772700  0.87410500  1
  C  1486  1  0.35251400  0.53677200  0.63414600  1
  C  1487  1  0.33726600  0.54204600  0.63987300  1
  C  1488  1  0.33217900  0.55819900  0.63755200  1
  C  1489  1  0.34178000  0.56966200  0.62900200  1
  C  1490  1  0.35723200  0.56411800  0.62373100  1
  C  1491  1  0.36241900  0.54806700  0.62607600  1
  C  1492  1  0.33748200  0.58770300  0.62818200  1
  C  1493  1  0.34544500  0.59357700  0.64388700  1
  C  1494  1  0.36207200  0.59799300  0.64475300  1
  C  1495  1  0.36970500  0.60167800  0.65958700  1
  C  1496  1  0.36112600  0.60085100  0.67433400  1
  C  1497  1  0.34476900  0.59583100  0.67380500  1
  C  1498  1  0.33724800  0.59211600  0.65897900  1
  C  1499  1  0.31945700  0.59208700  0.62743000  1
  C  1500  1  0.34329800  0.59556100  0.61240000  1
  C  1501  1  0.34799400  0.61210500  0.61145300  1
  C  1502  1  0.35148600  0.61969000  0.59655000  1
  C  1503  1  0.35025900  0.61111800  0.58182800  1
  C  1504  1  0.34498700  0.59484800  0.58244100  1
  C  1505  1  0.34144400  0.58738300  0.59733800  1
  C  1506  1  0.30782600  0.58239800  0.61920800  1
  C  1507  1  0.29170600  0.58759100  0.61688500  1
  C  1508  1  0.28663600  0.60301900  0.62229800  1
  C  1509  1  0.29808400  0.61300300  0.63004400  1
  C  1510  1  0.31409600  0.60770900  0.63238900  1
  C  1531  1  0.15395700  0.46971100  0.13419800  1
  C  1532  1  0.16922500  0.46443300  0.13986600  1
  C  1533  1  0.17429200  0.44827500  0.13753700  1
  C  1534  1  0.16467000  0.43681200  0.12900700  1
  C  1535  1  0.14920200  0.44236800  0.12379200  1
  C  1536  1  0.14402600  0.45842100  0.12615400  1
  C  1537  1  0.16894900  0.41876900  0.12817900  1
  C  1538  1  0.16096800  0.41288100  0.14387000  1
  C  1539  1  0.14434600  0.40845000  0.14472700  1
  C  1540  1  0.13670400  0.40476100  0.15955500  1
  C  1541  1  0.14526700  0.40561700  0.17431000  1
  C  1542  1  0.16161600  0.41066100  0.17379400  1
  C  1543  1  0.16914300  0.41438000  0.15897200  1
  C  1544  1  0.18696800  0.41436300  0.12743700  1
  C  1545  1  0.16312300  0.41092500  0.11239500  1
  C  1546  1  0.15848700  0.39436600  0.11141600  1
  C  1547  1  0.15500500  0.38679500  0.09650300  1
  C  1548  1  0.15621900  0.39538800  0.08179200  1
  C  1549  1  0.16144800  0.41167100  0.08243300  1
  C  1550  1  0.16497200  0.41912200  0.09734200  1
  C  1551  1  0.19859500  0.42403000  0.11918000  1
  C  1552  1  0.21471300  0.41883200  0.11685800  1
  C  1553  1  0.21978800  0.40341900  0.12230600  1
  C  1554  1  0.20834500  0.39345200  0.13008000  1
  C  1555  1  0.19233500  0.39875400  0.13242700  1
  C  1576  1  0.85250200  0.96970600  0.37230300  1
  C  1577  1  0.83726500  0.96441400  0.36656300  1
  C  1578  1  0.83218500  0.94826100  0.36890100  1
  C  1579  1  0.84177800  0.93681700  0.37748600  1
  C  1580  1  0.85722100  0.94237900  0.38276700  1
  C  1581  1  0.86240400  0.95842800  0.38040100  1
  C  1582  1  0.83749300  0.91877400  0.37831600  1
  C  1583  1  0.84549200  0.91289100  0.36263100  1
  C  1584  1  0.86212400  0.90849800  0.36179700  1
  C  1585  1  0.86978400  0.90480900  0.34698000  1
  C  1586  1  0.86122400  0.90561500  0.33222100  1
  C  1587  1  0.84486100  0.91061700  0.33271600  1
  C  1588  1  0.83731000  0.91432800  0.34752900  1
  C  1589  1  0.81947100  0.91436900  0.37905200  1
  C  1590  1  0.84329500  0.91092700  0.39410800  1
  C  1591  1  0.84798000  0.89437900  0.39506600  1
  C  1592  1  0.85145800  0.88679900  0.40997400  1
  C  1593  1  0.85021000  0.89537400  0.42469200  1
  C  1594  1  0.84496000  0.91165100  0.42406700  1
  C  1595  1  0.84143100  0.91911100  0.40916400  1
  C  1596  1  0.80783200  0.92407100  0.38724800  1
  C  1597  1  0.79171300  0.91887400  0.38956100  1
  C  1598  1  0.78664300  0.90345100  0.38413300  1
  C  1599  1  0.79810200  0.89346100  0.37641000  1
  C  1600  1  0.81411400  0.89875600  0.37406900  1
  C  1621  1  0.90440600  0.62222900  0.72031400  1
  C  1622  1  0.91972400  0.61666600  0.71506300  1
  C  1623  1  0.92479700  0.61899900  0.69890600  1
  C  1624  1  0.91511900  0.62742800  0.68741600  1
  C  1625  1  0.89962000  0.63257000  0.69295100  1
  C  1626  1  0.89444000  0.63019700  0.70900000  1
  C  1627  1  0.91942600  0.62826400  0.66937800  1
  C  1628  1  0.91143900  0.61257900  0.66349300  1
  C  1629  1  0.89484600  0.61176700  0.65894000  1
  C  1630  1  0.88720200  0.59696400  0.65517200  1
  C  1631  1  0.89573400  0.58219400  0.65606000  1
  C  1632  1  0.91204100  0.58266300  0.66125000  1
  C  1633  1  0.91957500  0.59746400  0.66503600  1
  C  1634  1  0.93745200  0.62902000  0.66499400  1
  C  1635  1  0.91359300  0.64403600  0.66151900  1
  C  1636  1  0.90903000  0.64498600  0.64493700  1
  C  1637  1  0.90542600  0.65986900  0.63737200  1
  C  1638  1  0.90645000  0.67457700  0.64599400  1
  C  1639  1  0.91164300  0.67397100  0.66229100  1
  C  1640  1  0.91527200  0.65909000  0.66974400  1
  C  1641  1  0.94903400  0.63741000  0.67460000  1
  C  1642  1  0.96513900  0.63978900  0.66938100  1
  C  1643  1  0.97025400  0.63423700  0.65401700  1
  C  1644  1  0.95885600  0.62631000  0.64411800  1
  C  1645  1  0.94285100  0.62393300  0.64942700  1
  C  1666  1  0.60205300  0.38421700  0.22033800  1
  C  1667  1  0.58672600  0.38976100  0.21509300  1
  C  1668  1  0.58165000  0.38742100  0.19893900  1
  C  1669  1  0.59132800  0.37900400  0.18744200  1
  C  1670  1  0.60684400  0.37389700  0.19296700  1
  C  1671  1  0.61203000  0.37627600  0.20901500  1
  C  1672  1  0.58703900  0.37817000  0.16940100  1
  C  1673  1  0.59503600  0.39384900  0.16351000  1
  C  1674  1  0.61162300  0.39466300  0.15894100  1
  C  1675  1  0.61926900  0.40946500  0.15517300  1
  C  1676  1  0.61074700  0.42423600  0.15609600  1
  C  1677  1  0.59444600  0.42377000  0.16130300  1
  C  1678  1  0.58691400  0.40896900  0.16509300  1
  C  1679  1  0.56901600  0.37742300  0.16500600  1
  C  1680  1  0.59288000  0.36240500  0.16153600  1
  C  1681  1  0.59739400  0.36144300  0.14494100  1
  C  1682  1  0.60098000  0.34655700  0.13737200  1
  C  1683  1  0.59996800  0.33185300  0.14600100  1
  C  1684  1  0.59481600  0.33246600  0.16231000  1
  C  1685  1  0.59120300  0.34735200  0.16976500  1
  C  1686  1  0.55744300  0.36900000  0.17459600  1
  C  1687  1  0.54133600  0.36662600  0.16938400  1
  C  1688  1  0.53621700  0.37218900  0.15402600  1
  C  1689  1  0.54760200  0.38015500  0.14414300  1
  C  1690  1  0.56360500  0.38254000  0.14945400  1
  C  1711  1  0.40438900  0.88423000  0.28617000  1
  C  1712  1  0.41969600  0.88982500  0.29141600  1
  C  1713  1  0.42479100  0.88747500  0.30756300  1
  C  1714  1  0.41514200  0.87900600  0.31904600  1
  C  1715  1  0.39964700  0.87383700  0.31352200  1
  C  1716  1  0.39444700  0.87622700  0.29748200  1
  C  1717  1  0.41944500  0.87816700  0.33708400  1
  C  1718  1  0.41145500  0.89385200  0.34297200  1
  C  1719  1  0.39485500  0.89466400  0.34749500  1
  C  1720  1  0.38720800  0.90946500  0.35126000  1
  C  1721  1  0.39574000  0.92423500  0.35037900  1
  C  1722  1  0.41205600  0.92376700  0.34522200  1
  C  1723  1  0.41959900  0.90896600  0.34145200  1
  C  1724  1  0.43747100  0.87741300  0.34146400  1
  C  1725  1  0.41361700  0.86239400  0.34494600  1
  C  1726  1  0.40902500  0.86144900  0.36152000  1
  C  1727  1  0.40542700  0.84656600  0.36908600  1
  C  1728  1  0.40646900  0.83185700  0.36047000  1
  C  1729  1  0.41169300  0.83245900  0.34418300  1
  C  1730  1  0.41532300  0.84734000  0.33672900  1
  C  1731  1  0.44905700  0.86904400  0.33184400  1
  C  1732  1  0.46516500  0.86667400  0.33705500  1
  C  1733  1  0.47027800  0.87220900  0.35242600  1
  C  1734  1  0.45887300  0.88010400  0.36234200  1
  C  1735  1  0.44286600  0.88247900  0.35703900  1
  C  1756  1  0.10206800  0.12221400  0.78615000  1
  C  1757  1  0.08674500  0.11666200  0.79139700  1
  C  1758  1  0.08166800  0.11900400  0.80755000  1
  C  1759  1  0.09134800  0.12742900  0.81904100  1
  C  1760  1  0.10685100  0.13256300  0.81351200  1
  C  1761  1  0.11203300  0.13018600  0.79746300  1
  C  1762  1  0.08703900  0.12826700  0.83707800  1
  C  1763  1  0.09501100  0.11257100  0.84296100  1
  C  1764  1  0.11159900  0.11174200  0.84752500  1
  C  1765  1  0.11922700  0.09693000  0.85129200  1
  C  1766  1  0.11068100  0.08216900  0.85039500  1
  C  1767  1  0.09437700  0.08265600  0.84519700  1
  C  1768  1  0.08685800  0.09746600  0.84141300  1
  C  1769  1  0.06901300  0.12903700  0.84145900  1
  C  1770  1  0.09289300  0.14402600  0.84494500  1
  C  1771  1  0.09743800  0.14498200  0.86153200  1
  C  1772  1  0.10103400  0.15986500  0.86909900  1
  C  1773  1  0.10001500  0.17457200  0.86047700  1
  C  1774  1  0.09483400  0.17396500  0.84417700  1
  C  1775  1  0.09120100  0.15908300  0.83672600  1
  C  1776  1  0.05743700  0.13742900  0.83184900  1
  C  1777  1  0.04133300  0.13981600  0.83706500  1
  C  1778  1  0.03621500  0.13426800  0.85242800  1
  C  1779  1  0.04760700  0.12633800  0.86233200  1
  C  1780  1  0.06361100  0.12395400  0.85702700  1
  C  1801  1  0.12223100  0.78615000  0.10209000  1
  C  1802  1  0.11666100  0.79139000  0.08677100  1
  C  1803  1  0.11899600  0.80754300  0.08168500  1
  C  1804  1  0.12744000  0.81903300  0.09134600  1
  C  1805  1  0.13258700  0.81351300  0.10685000  1
  C  1806  1  0.13020300  0.79747200  0.11204600  1
  C  1807  1  0.12828000  0.83707200  0.08704400  1
  C  1808  1  0.11259800  0.84296000  0.09504200  1
  C  1809  1  0.11178600  0.84751200  0.11163300  1
  C  1810  1  0.09698200  0.85128000  0.11927400  1
  C  1811  1  0.08221500  0.85038900  0.11074000  1
  C  1812  1  0.08268400  0.84520500  0.09443100  1
  C  1813  1  0.09748600  0.84141400  0.08689900  1
  C  1814  1  0.12903500  0.84147000  0.06902100  1
  C  1815  1  0.14404800  0.84494000  0.09287600  1
  C  1816  1  0.14499900  0.86152100  0.09744300  1
  C  1817  1  0.15988600  0.86908300  0.10103500  1
  C  1818  1  0.17459100  0.86046100  0.09999500  1
  C  1819  1  0.17398100  0.84415700  0.09482100  1
  C  1820  1  0.15909800  0.83671100  0.09118400  1
  C  1821  1  0.13740100  0.83184500  0.05743900  1
  C  1822  1  0.13977100  0.83705700  0.04133000  1
  C  1823  1  0.13424700  0.85243200  0.03622100  1
  C  1824  1  0.12631000  0.86233100  0.04761300  1
  C  1825  1  0.12393300  0.85702800  0.06361900  1
  C  1846  1  0.88420500  0.28616800  0.40439800  1
  C  1847  1  0.88973800  0.29139400  0.41973500  1
  C  1848  1  0.88741300  0.30754900  0.42482000  1
  C  1849  1  0.87904800  0.31906400  0.41512000  1
  C  1850  1  0.87395000  0.31356200  0.39959600  1
  C  1851  1  0.87630000  0.29750900  0.39441200  1
  C  1852  1  0.87820900  0.33710200  0.41942700  1
  C  1853  1  0.89390700  0.34298300  0.41145500  1
  C  1854  1  0.89473400  0.34760700  0.39488400  1
  C  1855  1  0.90955000  0.35137500  0.38726200  1
  C  1856  1  0.92431600  0.35041700  0.39579300  1
  C  1857  1  0.92382600  0.34516100  0.41207800  1
  C  1858  1  0.90901600  0.34137400  0.41959200  1
  C  1859  1  0.87744600  0.34148100  0.43745500  1
  C  1860  1  0.86244100  0.34496200  0.41358600  1
  C  1861  1  0.86148800  0.36155600  0.40906600  1
  C  1862  1  0.84660300  0.36912200  0.40546600  1
  C  1863  1  0.83190000  0.36048700  0.40644200  1
  C  1864  1  0.83251000  0.34417600  0.41159100  1
  C  1865  1  0.84739000  0.33672400  0.41522400  1
  C  1866  1  0.86900400  0.33189900  0.44901700  1
  C  1867  1  0.86663800  0.33710500  0.46512800  1
  C  1868  1  0.87221800  0.35245500  0.47025300  1
  C  1869  1  0.88018900  0.36233800  0.45887000  1
  C  1870  1  0.88257300  0.35703100  0.44286800  1
  C  1891  1  0.38426500  0.22028500  0.60207000  1
  C  1892  1  0.38978800  0.21505200  0.58673100  1
  C  1893  1  0.38743400  0.19890400  0.58164400  1
  C  1894  1  0.37902000  0.18740300  0.59132200  1
  C  1895  1  0.37392900  0.19291900  0.60684600  1
  C  1896  1  0.37631400  0.20896200  0.61204000  1
  C  1897  1  0.37818400  0.16936500  0.58702600  1
  C  1898  1  0.39386900  0.16347200  0.59500800  1
  C  1899  1  0.39470100  0.15889400  0.61159300  1
  C  1900  1  0.40951300  0.15513100  0.61922200  1
  C  1901  1  0.42427800  0.15607200  0.61068900  1
  C  1902  1  0.42379200  0.16129000  0.59439200  1
  C  1903  1  0.40898200  0.16507100  0.58687400  1
  C  1904  1  0.37742500  0.16497300  0.56900300  1
  C  1905  1  0.36242100  0.16150100  0.59287500  1
  C  1906  1  0.36145900  0.14490600  0.59739100  1
  C  1907  1  0.34657400  0.13734100  0.60098900  1
  C  1908  1  0.33187000  0.14596900  0.59998000  1
  C  1909  1  0.33248300  0.16228000  0.59483000  1
  C  1910  1  0.34736800  0.16972900  0.59120400  1
  C  1911  1  0.36900400  0.17456800  0.55743400  1
  C  1912  1  0.36663800  0.16936700  0.54132100  1
  C  1913  1  0.37219800  0.15401000  0.53619900  1
  C  1914  1  0.38015200  0.14411700  0.54758400  1
  C  1915  1  0.38253700  0.14942100  0.56358800  1
  C  1936  1  0.62222200  0.72028800  0.90437400  1
  C  1937  1  0.61665600  0.71504900  0.91969400  1
  C  1938  1  0.61900700  0.69890200  0.92478700  1
  C  1939  1  0.62743600  0.68740800  0.91511700  1
  C  1940  1  0.63256500  0.69292300  0.89960600  1
  C  1941  1  0.63018700  0.70896700  0.89441300  1
  C  1942  1  0.62828000  0.66937000  0.91942000  1
  C  1943  1  0.61260100  0.66347900  0.91141900  1
  C  1944  1  0.61179600  0.65890300  0.89483500  1
  C  1945  1  0.59699300  0.65513900  0.88718900  1
  C  1946  1  0.58222100  0.65606400  0.89571100  1
  C  1947  1  0.58268500  0.66127200  0.91201200  1
  C  1948  1  0.59748600  0.66504700  0.91955200  1
  C  1949  1  0.62903200  0.66497700  0.93744400  1
  C  1950  1  0.64405500  0.66151300  0.91359400  1
  C  1951  1  0.64501200  0.64492300  0.90905700  1
  C  1952  1  0.65989800  0.63735900  0.90546200  1
  C  1953  1  0.67460200  0.64598800  0.90647900  1
  C  1954  1  0.67398900  0.66229300  0.91164200  1
  C  1955  1  0.65910600  0.66974600  0.91526100  1
  C  1956  1  0.63741800  0.67459500  0.94901900  1
  C  1957  1  0.63978900  0.66938500  0.96512800  1
  C  1958  1  0.63422200  0.65403100  0.97025300  1
  C  1959  1  0.62629100  0.64412800  0.95886000  1
  C  1960  1  0.62390600  0.64942900  0.94285600  1
  C  1981  1  0.28614600  0.40438900  0.88424000  1
  C  1982  1  0.29139400  0.41970700  0.88980300  1
  C  1983  1  0.30754900  0.42478600  0.88745900  1
  C  1984  1  0.31903500  0.41511400  0.87901800  1
  C  1985  1  0.31350300  0.39961700  0.87387400  1
  C  1986  1  0.29745700  0.39443000  0.87625600  1
  C  1987  1  0.33707200  0.41942200  0.87818100  1
  C  1988  1  0.34295900  0.41143700  0.89386900  1
  C  1989  1  0.34750700  0.39484400  0.89468300  1
  C  1990  1  0.35127500  0.38720200  0.90948700  1
  C  1991  1  0.35038900  0.39573700  0.92425400  1
  C  1992  1  0.34520500  0.41204500  0.92378400  1
  C  1993  1  0.34141900  0.41957900  0.90898200  1
  C  1994  1  0.34145300  0.43744800  0.87742300  1
  C  1995  1  0.34493200  0.41358800  0.86241100  1
  C  1996  1  0.36151600  0.40902400  0.86146500  1
  C  1997  1  0.36908200  0.40541700  0.84658300  1
  C  1998  1  0.36046300  0.40644200  0.83187400  1
  C  1999  1  0.34416700  0.41163800  0.83247700  1
  C  2000  1  0.33671100  0.41526800  0.84735700  1
  C  2001  1  0.33184100  0.44902900  0.86904000  1
  C  2002  1  0.33706100  0.46513300  0.86665300  1
  C  2003  1  0.35242600  0.47024800  0.87219900  1
  C  2004  1  0.36232900  0.45885200  0.88012600  1
  C  2005  1  0.35702200  0.44284800  0.88250500  1
  C  2026  1  0.78615000  0.10204600  0.12222100  1
  C  2027  1  0.79139700  0.08672600  0.11666300  1
  C  2028  1  0.80755000  0.08164600  0.11900900  1
  C  2029  1  0.81904100  0.09131400  0.12744400  1
  C  2030  1  0.81351400  0.10682400  0.13256600  1
  C  2031  1  0.79746900  0.11201300  0.13018300  1
  C  2032  1  0.83708200  0.08702500  0.12827700  1
  C  2033  1  0.84297400  0.09502300  0.11259900  1
  C  2034  1  0.84752300  0.11161500  0.11178200  1
  C  2035  1  0.85128500  0.11926200  0.09697900  1
  C  2036  1  0.85037200  0.11073600  0.08220800  1
  C  2037  1  0.84518300  0.09442900  0.08267700  1
  C  2038  1  0.84140100  0.08689500  0.09748000  1
  C  2039  1  0.84147900  0.06900300  0.12902500  1
  C  2040  1  0.84494600  0.09286600  0.14404300  1
  C  2041  1  0.86153500  0.09740000  0.14500600  1
  C  2042  1  0.86910000  0.10099400  0.15989200  1
  C  2043  1  0.86047600  0.09995900  0.17459700  1
  C  2044  1  0.84417300  0.09478700  0.17398400  1
  C  2045  1  0.83672200  0.09117300  0.15909700  1
  C  2046  1  0.83187600  0.05742300  0.13742600  1
  C  2047  1  0.83709000  0.04131700  0.13980300  1
  C  2048  1  0.85245400  0.03620200  0.13425400  1
  C  2049  1  0.86234400  0.04759200  0.12630400  1
  C  2050  1  0.85703600  0.06359500  0.12392200  1
  C  2071  1  0.72030900  0.90438800  0.62223300  1
  C  2072  1  0.71506400  0.91970000  0.61665200  1
  C  2073  1  0.69891500  0.92479100  0.61900000  1
  C  2074  1  0.68742900  0.91513100  0.62745000  1
  C  2075  1  0.69295200  0.89963100  0.63260400  1
  C  2076  1  0.70899500  0.89443600  0.63022100  1
  C  2077  1  0.66938900  0.91943300  0.62829100  1
  C  2078  1  0.66350200  0.91144500  0.61260500  1
  C  2079  1  0.65896300  0.89484800  0.61179500  1
  C  2080  1  0.65519100  0.88720300  0.59699400  1
  C  2081  1  0.65607900  0.89573400  0.58222600  1
  C  2082  1  0.66125500  0.91204600  0.58269100  1
  C  2083  1  0.66503100  0.91958500  0.59749200  1
  C  2084  1  0.66500800  0.93745900  0.62904700  1
  C  2085  1  0.66152900  0.91360200  0.64406200  1
  C  2086  1  0.64494900  0.90902800  0.64500900  1
  C  2087  1  0.63738200  0.90542900  0.65989200  1
  C  2088  1  0.64600200  0.90645700  0.67460000  1
  C  2089  1  0.66229400  0.91166400  0.67399800  1
  C  2090  1  0.66974900  0.91529400  0.65911700  1
  C  2091  1  0.67461900  0.94904000  0.63743200  1
  C  2092  1  0.66940500  0.96514700  0.63980600  1
  C  2093  1  0.65403900  0.97026100  0.63425800  1
  C  2094  1  0.64413100  0.95886100  0.62634600  1
  C  2095  1  0.64943800  0.94285600  0.62396800  1
  C  2116  1  0.22032900  0.60206900  0.38421300  1
  C  2117  1  0.21508500  0.58674000  0.38975200  1
  C  2118  1  0.19892700  0.58166800  0.38742100  1
  C  2119  1  0.18743000  0.59136000  0.37902000  1
  C  2120  1  0.19295800  0.60686900  0.37390100  1
  C  2121  1  0.20900900  0.61204600  0.37626800  1
  C  2122  1  0.16939100  0.58705200  0.37818500  1
  C  2123  1  0.16351100  0.59502500  0.39388000  1
  C  2124  1  0.15892900  0.61160800  0.39470700  1
  C  2125  1  0.15515900  0.61923500  0.40952100  1
  C  2126  1  0.15607000  0.61069200  0.42428200  1
  C  2127  1  0.16128800  0.59439500  0.42379600  1
  C  2128  1  0.16507500  0.58687800  0.40898600  1
  C  2129  1  0.16500600  0.56902600  0.37741700  1
  C  2130  1  0.16152500  0.59290600  0.36242500  1
  C  2131  1  0.14493500  0.59743700  0.36146800  1
  C  2132  1  0.13736500  0.60103100  0.34658400  1
  C  2133  1  0.14599000  0.60002100  0.33187800  1
  C  2134  1  0.16229600  0.59485600  0.33248700  1
  C  2135  1  0.16974800  0.59122600  0.34736900  1
  C  2136  1  0.17460500  0.55745100  0.36900900  1
  C  2137  1  0.16938500  0.54134800  0.36662500  1
  C  2138  1  0.15402800  0.53622800  0.37218800  1
  C  2139  1  0.14413500  0.54762100  0.38013300  1
  C  2140  1  0.14944400  0.56362400  0.38251500  1
  C  2161  1  0.14666200  0.38254900  0.04063600  1
  C  2162  1  0.13502100  0.38660700  0.02875500  1
  C  2163  1  0.13273100  0.37712600  0.01460700  1
  C  2164  1  0.14256500  0.36317800  0.01192200  1
  C  2165  1  0.15418400  0.35914500  0.02393200  1
  C  2167  1  0.15622600  0.36861400  0.03797500  1
  C  2173  1  0.14886500  0.39263900  0.05397300  1
  C  2175  1  0.14089100  0.35300200  0.99840500  1
  C  2177  1  0.35987800  0.62397600  0.54069700  1
  C  2178  1  0.37156400  0.61994500  0.52885000  1
  C  2179  1  0.37384200  0.62941000  0.51468900  1
  C  2180  1  0.36395700  0.64331200  0.51196600  1
  C  2181  1  0.35229700  0.64732500  0.52394200  1
  C  2183  1  0.35026600  0.63787000  0.53799600  1
  C  2189  1  0.35767200  0.61388600  0.55403400  1
  C  2191  1  0.36558000  0.65343000  0.49840800  1
  C  2193  1  0.85980900  0.88251000  0.46582500  1
  C  2194  1  0.87153400  0.88650100  0.47764600  1
  C  2195  1  0.87383400  0.87700600  0.49178500  1
  C  2196  1  0.86392200  0.86312600  0.49452000  1
  C  2197  1  0.85222100  0.85915700  0.48257000  1
  C  2199  1  0.85017200  0.86863500  0.46853500  1
  C  2205  1  0.85759400  0.89261300  0.45250200  1
  C  2207  1  0.86559700  0.85295200  0.50803100  1
  C  2209  1  0.64666600  0.12391800  0.96584000  1
  C  2210  1  0.63498900  0.11988100  0.97769400  1
  C  2211  1  0.63267500  0.12937500  0.99183000  1
  C  2212  1  0.64252400  0.14331000  0.99453000  1
  C  2213  1  0.65417700  0.14732200  0.98254700  1
  C  2215  1  0.65624200  0.13784200  0.96851700  1
  C  2221  1  0.64889900  0.11381600  0.95252100  1
  C  2223  1  0.64082300  0.15349100  0.00803800  1
  C  2225  1  0.04066100  0.14660400  0.38249800  1
  C  2226  1  0.02882700  0.13489400  0.38649900  1
  C  2227  1  0.01468500  0.13260000  0.37701000  1
  C  2228  1  0.01195900  0.14250300  0.36312000  1
  C  2229  1  0.02392200  0.15418700  0.35914000  1
  C  2231  1  0.03796000  0.15623100  0.36861400  1
  C  2237  1  0.05398900  0.14881000  0.39259700  1
  C  2239  1  0.99844500  0.14083600  0.35294900  1
  C  2241  1  0.54067400  0.35982100  0.62395100  1
  C  2242  1  0.52882400  0.37150900  0.61993500  1
  C  2243  1  0.51467600  0.37379300  0.62941800  1
  C  2244  1  0.51196000  0.36390400  0.64332000  1
  C  2245  1  0.52393800  0.35223900  0.64731400  1
  C  2247  1  0.53798200  0.35020500  0.63784500  1
  C  2253  1  0.55400700  0.35762200  0.61385600  1
  C  2255  1  0.49844100  0.36556100  0.65348800  1
  C  2257  1  0.46583300  0.85979200  0.88253900  1
  C  2258  1  0.47768800  0.87147000  0.88657300  1
  C  2259  1  0.49183000  0.87377100  0.87708500  1
  C  2260  1  0.49453400  0.86391200  0.86315900  1
  C  2261  1  0.48255100  0.85225700  0.85915000  1
  C  2263  1  0.46851400  0.85020500  0.86862500  1
  C  2269  1  0.45250600  0.85757500  0.89263700  1
  C  2271  1  0.50804700  0.86559900  0.85298100  1
  C  2273  1  0.96583100  0.64665000  0.12393900  1
  C  2274  1  0.97765100  0.63492600  0.11994100  1
  C  2275  1  0.99178900  0.63261800  0.12943300  1
  C  2276  1  0.99452400  0.64252100  0.14332200  1
  C  2277  1  0.98257400  0.65422000  0.14729800  1
  C  2279  1  0.96853800  0.65627700  0.13782100  1
  C  2285  1  0.95251100  0.64887800  0.11383400  1
  C  2287  1  0.00803500  0.64084200  0.15349500  1
  C  2289  1  0.38252300  0.04061100  0.14665700  1
  C  2290  1  0.38655200  0.02876100  0.13497400  1
  C  2291  1  0.37705700  0.01462300  0.13266900  1
  C  2292  1  0.36313400  0.01191800  0.14253200  1
  C  2293  1  0.35913300  0.02389800  0.15419300  1
  C  2295  1  0.36861100  0.03793200  0.15624800  1
  C  2301  1  0.39262600  0.05393400  0.14887700  1
  C  2303  1  0.35295400  0.99840700  0.14084200  1
  C  2305  1  0.62393400  0.54065100  0.35982900  1
  C  2306  1  0.61990100  0.52880700  0.37151900  1
  C  2307  1  0.62937400  0.51465300  0.37381100  1
  C  2308  1  0.64328600  0.51193500  0.36393700  1
  C  2309  1  0.64730000  0.52390700  0.35227500  1
  C  2311  1  0.63783800  0.53795300  0.35022900  1
  C  2317  1  0.61383900  0.55397900  0.35760900  1
  C  2319  1  0.65341000  0.49838300  0.36557400  1
  C  2321  1  0.88248900  0.46580300  0.85984000  1
  C  2322  1  0.88648700  0.47763200  0.87155700  1
  C  2323  1  0.87699800  0.49177400  0.87385100  1
  C  2324  1  0.86311400  0.49450600  0.86394100  1
  C  2325  1  0.85913800  0.48254800  0.85225000  1
  C  2327  1  0.86861200  0.46850900  0.85020600  1
  C  2333  1  0.89258700  0.45247600  0.85763300  1
  C  2335  1  0.85294400  0.50801900  0.86561300  1
  C  2337  1  0.12390100  0.96582300  0.64667200  1
  C  2338  1  0.11984100  0.97770500  0.63503200  1
  C  2339  1  0.12932500  0.99185000  0.63273700  1
  C  2340  1  0.14327600  0.99453400  0.64256700  1
  C  2341  1  0.14731200  0.98252300  0.65418600  1
  C  2343  1  0.13784000  0.96848200  0.65623100  1
  C  2349  1  0.11380800  0.95249000  0.64887900  1
  C  2351  1  0.15345500  0.00804900  0.64088900  1
  C  2353  1  0.13251700  0.39642500  0.21548600  1
  C  2354  1  0.13571300  0.38407000  0.22691500  1
  C  2355  1  0.12604100  0.38189000  0.24095100  1
  C  2356  1  0.11279900  0.39255000  0.24399600  1
  C  2357  1  0.10961300  0.40487800  0.23245200  1
  C  2359  1  0.11928900  0.40683800  0.21853600  1
  C  2365  1  0.14287600  0.39880100  0.20237700  1
  C  2367  1  0.10252800  0.39102200  0.25744500  1
  C  2369  1  0.37389200  0.60997900  0.71550300  1
  C  2370  1  0.37074300  0.62238500  0.72689200  1
  C  2371  1  0.38043100  0.62458600  0.74091300  1
  C  2372  1  0.39364500  0.61389800  0.74398400  1
  C  2373  1  0.39679100  0.60152500  0.73247700  1
  C  2375  1  0.38709700  0.59954300  0.71857800  1
  C  2381  1  0.36350600  0.60754400  0.70241300  1
  C  2383  1  0.40392500  0.61544500  0.75742300  1
  C  2385  1  0.63252900  0.11006200  0.79099200  1
  C  2386  1  0.63587300  0.12225600  0.77943300  1
  C  2387  1  0.62623600  0.12439800  0.76536800  1
  C  2388  1  0.61287200  0.11386100  0.76242200  1
  C  2389  1  0.60954800  0.10168700  0.77409300  1
  C  2391  1  0.61918600  0.09976700  0.78803900  1
  C  2397  1  0.64281300  0.10777100  0.80417600  1
  C  2399  1  0.60260400  0.11537400  0.74895900  1
  C  2401  1  0.87397000  0.89637500  0.29101600  1
  C  2402  1  0.87068700  0.88411200  0.27951300  1
  C  2403  1  0.88032900  0.88196100  0.26545200  1
  C  2404  1  0.89363400  0.89256100  0.26245900  1
  C  2405  1  0.89690300  0.90480000  0.27407600  1
  C  2407  1  0.88725900  0.90672600  0.28801800  1
  C  2413  1  0.86367600  0.89867800  0.30418900  1
  C  2415  1  0.90389500  0.89105400  0.24899800  1
  C  2417  1  0.89642300  0.29097000  0.87387200  1
  C  2418  1  0.88414700  0.27947600  0.87060700  1
  C  2419  1  0.88197900  0.26543100  0.88026800  1
  C  2420  1  0.89257300  0.26244000  0.89357700  1
  C  2421  1  0.90482700  0.27404800  0.89682800  1
  C  2423  1  0.90677400  0.28797200  0.88716100  1
  C  2429  1  0.89877800  0.30409700  0.86352800  1
  C  2431  1  0.89104000  0.24898800  0.90385500  1
  C  2433  1  0.11010800  0.79101700  0.63244600  1
  C  2434  1  0.12245400  0.77958200  0.63566200  1
  C  2435  1  0.12461600  0.76552500  0.62601900  1
  C  2436  1  0.11395400  0.76247100  0.61278200  1
  C  2437  1  0.10163700  0.77401900  0.60957200  1
  C  2439  1  0.09969600  0.78795800  0.61921800  1
  C  2445  1  0.10776200  0.80417400  0.64275800  1
  C  2447  1  0.11544500  0.74897200  0.60257300  1
  C  2449  1  0.61003300  0.71546400  0.37395500  1
  C  2450  1  0.62228700  0.72697500  0.37066100  1
  C  2451  1  0.62444000  0.74103600  0.38030300  1
  C  2452  1  0.61385300  0.74402200  0.39361800  1
  C  2453  1  0.60162300  0.73239900  0.39689700  1
  C  2455  1  0.59969300  0.71845800  0.38725300  1
  C  2461  1  0.60773000  0.70228800  0.36366400  1
  C  2463  1  0.61536500  0.75748100  0.40388000  1
  C  2465  1  0.39637700  0.21544800  0.13251800  1
  C  2466  1  0.38418800  0.22701000  0.13586800  1
  C  2467  1  0.38204600  0.24107800  0.12623500  1
  C  2468  1  0.39257800  0.24402200  0.11286600  1
  C  2469  1  0.40474900  0.23234900  0.10953500  1
  C  2471  1  0.40666800  0.21840100  0.11917100  1
  C  2477  1  0.39866800  0.20226100  0.14279900  1
  C  2479  1  0.39106400  0.25748800  0.10260200  1
  C  2481  1  0.79101700  0.63249900  0.11007300  1
  C  2482  1  0.77950800  0.63578200  0.12233000  1
  C  2483  1  0.76544800  0.62613900  0.12447600  1
  C  2484  1  0.76245900  0.61283300  0.11387900  1
  C  2485  1  0.77408100  0.60956300  0.10164500  1
  C  2487  1  0.78802300  0.61920700  0.09972200  1
  C  2493  1  0.80419300  0.64279200  0.10777600  1
  C  2495  1  0.74899800  0.60257200  0.11538200  1
  C  2497  1  0.29100700  0.87397900  0.89637800  1
  C  2498  1  0.27950800  0.87070300  0.88410900  1
  C  2499  1  0.26545000  0.88034800  0.88195600  1
  C  2500  1  0.26245400  0.89364800  0.89255800  1
  C  2501  1  0.27406600  0.89691100  0.90480400  1
  C  2503  1  0.28800500  0.88726400  0.90673300  1
  C  2509  1  0.30417600  0.86368200  0.89868600  1
  C  2511  1  0.24899500  0.90390900  0.89104800  1
  C  2513  1  0.21549400  0.13257400  0.39646100  1
  C  2514  1  0.22698600  0.13584200  0.38418200  1
  C  2515  1  0.24102800  0.12617800  0.38200600  1
  C  2516  1  0.24401800  0.11286300  0.39259200  1
  C  2517  1  0.23241300  0.10960900  0.40484800  1
  C  2519  1  0.21849300  0.11927900  0.40680400  1
  C  2525  1  0.20237400  0.14292000  0.39882800  1
  C  2527  1  0.25746800  0.10258400  0.39105200  1
  C  2529  1  0.71549800  0.37390200  0.60999600  1
  C  2530  1  0.72688400  0.37075300  0.62240500  1
  C  2531  1  0.74090700  0.38043800  0.62460800  1
  C  2532  1  0.74398400  0.39364700  0.61391800  1
  C  2533  1  0.73248200  0.39679400  0.60154100  1
  C  2535  1  0.71858000  0.38710400  0.59955700  1
  C  2541  1  0.70240600  0.36351900  0.60756100  1
  C  2543  1  0.75742600  0.40392500  0.61546300  1
  C  2545  1  0.85978200  0.62390900  0.96582000  1
  C  2546  1  0.87142500  0.61984800  0.97769900  1
  C  2547  1  0.87372100  0.62933000  0.99184600  1
  C  2548  1  0.86389000  0.64328000  0.99453100  1
  C  2549  1  0.85226900  0.64731500  0.98252400  1
  C  2551  1  0.85022300  0.63784600  0.96848200  1
  C  2557  1  0.85757100  0.61381600  0.95248600  1
  C  2559  1  0.86557100  0.65345600  0.00804900  1
  C  2561  1  0.64657900  0.38247700  0.46575700  1
  C  2562  1  0.63489400  0.38650900  0.47760500  1
  C  2563  1  0.63261500  0.37704400  0.49176500  1
  C  2564  1  0.64250000  0.36314000  0.49448800  1
  C  2565  1  0.65415800  0.35912800  0.48251200  1
  C  2567  1  0.65619100  0.36858200  0.46845800  1
  C  2573  1  0.64878600  0.39256800  0.45242200  1
  C  2575  1  0.64087500  0.35302300  0.50804700  1
  C  2577  1  0.14664900  0.12394600  0.54063100  1
  C  2578  1  0.13492300  0.11995600  0.52880900  1
  C  2579  1  0.13262300  0.12944900  0.51467000  1
  C  2580  1  0.14253700  0.14332900  0.51193500  1
  C  2581  1  0.15423800  0.14729800  0.52388500  1
  C  2583  1  0.15628600  0.13782100  0.53792000  1
  C  2589  1  0.14886400  0.11384300  0.55395400  1
  C  2591  1  0.14086100  0.15350400  0.49842400  1
  C  2593  1  0.35978900  0.88253700  0.04061400  1
  C  2594  1  0.37146600  0.88657500  0.02876100  1
  C  2595  1  0.37378000  0.87708000  0.01462500  1
  C  2596  1  0.36393300  0.86314500  0.01192500  1
  C  2597  1  0.35227800  0.85913300  0.02390700  1
  C  2599  1  0.35021300  0.86861300  0.03793800  1
  C  2605  1  0.35755600  0.89264000  0.05393400  1
  C  2607  1  0.36563200  0.85296400  0.99841700  1
  C  2609  1  0.96579600  0.85984500  0.62396000  1
  C  2610  1  0.97762800  0.87155600  0.61995600  1
  C  2611  1  0.99176900  0.87385300  0.62944700  1
  C  2612  1  0.99449500  0.86395300  0.64333900  1
  C  2613  1  0.98253400  0.85226900  0.64732100  1
  C  2615  1  0.96849600  0.85022200  0.63784600  1
  C  2621  1  0.95246900  0.85763300  0.61385900  1
  C  2623  1  0.00800900  0.86562400  0.65351000  1
  C  2625  1  0.46578000  0.64663700  0.38250300  1
  C  2626  1  0.47762800  0.63494800  0.38652100  1
  C  2627  1  0.49177800  0.63266300  0.37703900  1
  C  2628  1  0.49449400  0.64255000  0.36313500  1
  C  2629  1  0.48251400  0.65421400  0.35913900  1
  C  2631  1  0.46847000  0.65625000  0.36860800  1
  C  2637  1  0.45244700  0.64883800  0.39259800  1
  C  2639  1  0.50801200  0.64089200  0.35296700  1
  C  2641  1  0.54062200  0.14666300  0.12391500  1
  C  2642  1  0.52876800  0.13498600  0.11988100  1
  C  2643  1  0.51462600  0.13268400  0.12937000  1
  C  2644  1  0.51192100  0.14254300  0.14329700  1
  C  2645  1  0.52390400  0.15419800  0.14730600  1
  C  2647  1  0.53794100  0.15625000  0.13783000  1
  C  2653  1  0.55394900  0.14888000  0.11381800  1
  C  2655  1  0.49840800  0.14085700  0.15347500  1
  C  2657  1  0.04062500  0.35980400  0.88251600  1
  C  2658  1  0.02880500  0.37152800  0.88651400  1
  C  2659  1  0.01466700  0.37383600  0.87702200  1
  C  2660  1  0.01193100  0.36393300  0.86313300  1
  C  2661  1  0.02388200  0.35223400  0.85915700  1
  C  2663  1  0.03791600  0.35017700  0.86863500  1
  C  2669  1  0.05394500  0.35757600  0.89262000  1
  C  2671  1  0.99841900  0.36561200  0.85296100  1
  C  2673  1  0.62393200  0.96584300  0.85979800  1
  C  2674  1  0.61990400  0.97769400  0.87148200  1
  C  2675  1  0.62939700  0.99183100  0.87378600  1
  C  2676  1  0.64332100  0.99453600  0.86392300  1
  C  2677  1  0.64732400  0.98255600  0.85226300  1
  C  2679  1  0.63784500  0.96852300  0.85020900  1
  C  2685  1  0.61382900  0.95252000  0.85758000  1
  C  2687  1  0.65350100  0.00804700  0.86561300  1
  C  2689  1  0.38252000  0.46580400  0.64662600  1
  C  2690  1  0.38655300  0.47764800  0.63493700  1
  C  2691  1  0.37708000  0.49180200  0.63264400  1
  C  2692  1  0.36316800  0.49452000  0.64251800  1
  C  2693  1  0.35915400  0.48254800  0.65418000  1
  C  2695  1  0.36861600  0.46850100  0.65622600  1
  C  2701  1  0.39261500  0.45247600  0.64884700  1
  C  2703  1  0.35304400  0.50807200  0.64088100  1
  C  2705  1  0.12396600  0.54065200  0.14661500  1
  C  2706  1  0.11996800  0.52882400  0.13489800  1
  C  2707  1  0.12945700  0.51468100  0.13260500  1
  C  2708  1  0.14334100  0.51195000  0.14251500  1
  C  2709  1  0.14731600  0.52390800  0.15420600  1
  C  2711  1  0.13784200  0.53794600  0.15624900  1
  C  2717  1  0.11386700  0.55398000  0.14882100  1
  C  2719  1  0.15351100  0.49843600  0.14084500  1
  C  2721  1  0.88255400  0.04063200  0.35978400  1
  C  2722  1  0.88661500  0.02875100  0.37142500  1
  C  2723  1  0.87713000  0.01460500  0.37371900  1
  C  2724  1  0.86317800  0.01192300  0.36389000  1
  C  2725  1  0.85914200  0.02393300  0.35227200  1
  C  2727  1  0.86861400  0.03797400  0.35022700  1
  C  2733  1  0.89264700  0.05396500  0.35757600  1
  C  2735  1  0.85300000  0.99840700  0.36556900  1
  C  2737  1  0.87394000  0.61003200  0.79097200  1
  C  2738  1  0.87074400  0.62238600  0.77954100  1
  C  2739  1  0.88041500  0.62456700  0.76550500  1
  C  2740  1  0.89365700  0.61390700  0.76246000  1
  C  2741  1  0.89684500  0.60157800  0.77400600  1
  C  2743  1  0.88717000  0.59961900  0.78792200  1
  C  2749  1  0.86358100  0.60765600  0.80408000  1
  C  2751  1  0.90392800  0.61543300  0.74901100  1
  C  2753  1  0.63256200  0.39647600  0.29095200  1
  C  2754  1  0.63571000  0.38407000  0.27956300  1
  C  2755  1  0.62602300  0.38186900  0.26554200  1
  C  2756  1  0.61280900  0.39255600  0.26247100  1
  C  2757  1  0.60966300  0.40493000  0.27397700  1
  C  2759  1  0.61935700  0.40691200  0.28787600  1
  C  2765  1  0.64294800  0.39891000  0.30404300  1
  C  2767  1  0.60252900  0.39101000  0.24903300  1
  C  2769  1  0.37392600  0.89639500  0.21546400  1
  C  2770  1  0.37058300  0.88420100  0.22702300  1
  C  2771  1  0.38021900  0.88205900  0.24108900  1
  C  2772  1  0.39358400  0.89259600  0.24403300  1
  C  2773  1  0.39690900  0.90477000  0.23236200  1
  C  2775  1  0.38727000  0.90668900  0.21841500  1
  C  2781  1  0.36364300  0.89868500  0.20227900  1
  C  2783  1  0.40385200  0.89108500  0.25749800  1
  C  2785  1  0.13248600  0.11008300  0.71544000  1
  C  2786  1  0.13576800  0.12234500  0.72694400  1
  C  2787  1  0.12612600  0.12449400  0.74100400  1
  C  2788  1  0.11282200  0.11389400  0.74399800  1
  C  2789  1  0.10955400  0.10165600  0.73237900  1
  C  2791  1  0.11919900  0.09973100  0.71843700  1
  C  2797  1  0.14278100  0.10778200  0.70226600  1
  C  2799  1  0.10256200  0.11539900  0.75745900  1
  C  2801  1  0.11003200  0.71548600  0.13258300  1
  C  2802  1  0.12230800  0.72698100  0.13584800  1
  C  2803  1  0.12447600  0.74102600  0.12618800  1
  C  2804  1  0.11388200  0.74401600  0.11287800  1
  C  2805  1  0.10162700  0.73240800  0.10962800  1
  C  2807  1  0.09968000  0.71848600  0.11929500  1
  C  2813  1  0.10767700  0.70236000  0.14292800  1
  C  2815  1  0.11541400  0.75746900  0.10260200  1
  C  2817  1  0.89634900  0.21544000  0.37400600  1
  C  2818  1  0.88400300  0.22687400  0.37079200  1
  C  2819  1  0.88184100  0.24093200  0.38043500  1
  C  2820  1  0.89250300  0.24398600  0.39367200  1
  C  2821  1  0.90482000  0.23243600  0.39688100  1
  C  2823  1  0.90676100  0.21849900  0.38723500  1
  C  2829  1  0.89869300  0.20228300  0.36369500  1
  C  2831  1  0.89101200  0.25748400  0.40388100  1
  C  2833  1  0.39642100  0.29099000  0.63250200  1
  C  2834  1  0.38416700  0.27947900  0.63579600  1
  C  2835  1  0.38201400  0.26542000  0.62615500  1
  C  2836  1  0.39259900  0.26243300  0.61283800  1
  C  2837  1  0.40483000  0.27405500  0.60955900  1
  C  2839  1  0.40676000  0.28799700  0.61920300  1
  C  2845  1  0.39872400  0.30416600  0.64279300  1
  C  2847  1  0.39108700  0.24897500  0.60257500  1
  C  2849  1  0.61007900  0.79100700  0.87393700  1
  C  2850  1  0.62227100  0.77944700  0.87059000  1
  C  2851  1  0.62441400  0.76537900  0.88022300  1
  C  2852  1  0.61388000  0.76243300  0.89359100  1
  C  2853  1  0.60170800  0.77410500  0.89692000  1
  C  2855  1  0.59978800  0.78805300  0.88728300  1
  C  2861  1  0.60778800  0.80419300  0.86365700  1
  C  2863  1  0.61539400  0.74896700  0.90385500  1
  C  2865  1  0.21543900  0.37395700  0.89638100  1
  C  2866  1  0.22694600  0.37067300  0.88412300  1
  C  2867  1  0.24100800  0.38031600  0.88197600  1
  C  2868  1  0.24399800  0.39362200  0.89257400  1
  C  2869  1  0.23237600  0.39689100  0.90480900  1
  C  2871  1  0.21843300  0.38724600  0.90673200  1
  C  2877  1  0.20226300  0.36366200  0.89867700  1
  C  2879  1  0.25745800  0.40388300  0.89107200  1
  C  2881  1  0.71545000  0.13247500  0.11007700  1
  C  2882  1  0.72694700  0.13575300  0.12234600  1
  C  2883  1  0.74100500  0.12610800  0.12449900  1
  C  2884  1  0.74400100  0.11280800  0.11389600  1
  C  2885  1  0.73239000  0.10954400  0.10165100  1
  C  2887  1  0.71845100  0.11919100  0.09972200  1
  C  2893  1  0.70227900  0.14277300  0.10776900  1
  C  2895  1  0.75746100  0.10254600  0.11540600  1
  C  2897  1  0.79096200  0.87388400  0.60999600  1
  C  2898  1  0.77947100  0.87061500  0.62227300  1
  C  2899  1  0.76542800  0.88027800  0.62445000  1
  C  2900  1  0.76243800  0.89359400  0.61386300  1
  C  2901  1  0.77404300  0.89684700  0.60160700  1
  C  2903  1  0.78796400  0.88717800  0.59965100  1
  C  2909  1  0.80408300  0.86353800  0.60762700  1
  C  2911  1  0.74898700  0.90387300  0.61540300  1
  C  2913  1  0.29095700  0.63255100  0.39645900  1
  C  2914  1  0.27957300  0.63570100  0.38405000  1
  C  2915  1  0.26554800  0.62601600  0.38184700  1
  C  2916  1  0.26247100  0.61280500  0.39253800  1
  C  2917  1  0.27397300  0.60965900  0.40491400  1
  C  2919  1  0.28787500  0.61935000  0.40689800  1
  C  2925  1  0.30405000  0.64293300  0.39889400  1
  C  2927  1  0.24902900  0.60252900  0.39099200  1
  C  2929  1  0.64662500  0.88305500  0.54099400  1
  C  2930  1  0.63526800  0.88725400  0.52887200  1
  C  2931  1  0.63302800  0.87773100  0.51474800  1
  C  2932  1  0.64255900  0.86352600  0.51239000  1
  C  2933  1  0.65387300  0.85931600  0.52461200  1
  C  2935  1  0.65592300  0.86889000  0.53858600  1
  C  2941  1  0.64910000  0.89328400  0.55420200  1
  C  2943  1  0.64124700  0.85345800  0.49878900  1
  C  2945  1  0.85982100  0.12341000  0.04097300  1
  C  2946  1  0.87117800  0.11920700  0.02885100  1
  C  2947  1  0.87342600  0.12872900  0.01472800  1
  C  2948  1  0.86390400  0.14294000  0.01237000  1
  C  2949  1  0.85258900  0.14715500  0.02459100  1
  C  2951  1  0.85053100  0.13758200  0.03856300  1
  C  2957  1  0.85733700  0.11318300  0.05417900  1
  C  2959  1  0.86522400  0.15300900  0.99876900  1
  C  2961  1  0.35981000  0.38305200  0.96548500  1
  C  2962  1  0.37119800  0.38723100  0.97758700  1
  C  2963  1  0.37345600  0.37770100  0.99170300  1
  C  2964  1  0.36391200  0.36350600  0.99407500  1
  C  2965  1  0.35257000  0.35931200  0.98187500  1
  C  2967  1  0.35050200  0.36889500  0.96790800  1
  C  2973  1  0.35729800  0.39329000  0.95228700  1
  C  2975  1  0.36523900  0.35343600  0.00767200  1
  C  2977  1  0.14665700  0.62335800  0.46549500  1
  C  2978  1  0.13522200  0.61922200  0.47756500  1
  C  2979  1  0.13296200  0.62876000  0.49167600  1
  C  2980  1  0.14255300  0.64291800  0.49407300  1
  C  2981  1  0.15394300  0.64707100  0.48190300  1
  C  2983  1  0.15601500  0.63747800  0.46794500  1
  C  2989  1  0.14919300  0.61308200  0.45233600  1
  C  2991  1  0.14123300  0.65298600  0.50767100  1
  C  2993  1  0.54098200  0.64663200  0.88303800  1
  C  2994  1  0.52885600  0.63528000  0.88724100  1
  C  2995  1  0.51473100  0.63304100  0.87772000  1
  C  2996  1  0.51237500  0.64256700  0.86351100  1
  C  2997  1  0.52460000  0.65387700  0.85929600  1
  C  2999  1  0.53857600  0.65592600  0.86886800  1
  C  3005  1  0.55419000  0.64910800  0.89326500  1
  C  3007  1  0.49877300  0.64125700  0.85344500  1
  C  3009  1  0.04097900  0.85982300  0.12341700  1
  C  3010  1  0.02885400  0.87117800  0.11921700  1
  C  3011  1  0.01473100  0.87342000  0.12874000  1
  C  3012  1  0.01237700  0.86389300  0.14295000  1
  C  3013  1  0.02460100  0.85258200  0.14716300  1
  C  3015  1  0.03857300  0.85053000  0.13758700  1
  C  3021  1  0.05418600  0.85734700  0.11318900  1
  C  3023  1  0.99877700  0.86520700  0.15301800  1
  C  3025  1  0.96552300  0.35975700  0.38310800  1
  C  3026  1  0.97755100  0.37125500  0.38719900  1
  C  3027  1  0.99164600  0.37354000  0.37764200  1
  C  3028  1  0.99407100  0.36391200  0.36351600  1
  C  3029  1  0.98194000  0.35246600  0.35940300  1
  C  3031  1  0.96799900  0.35036700  0.36901400  1
  C  3037  1  0.95238800  0.35715100  0.39341200  1
  C  3039  1  0.00766400  0.36524500  0.35344300  1
  C  3041  1  0.46548900  0.14667900  0.62336600  1
  C  3042  1  0.47756200  0.13524600  0.61922800  1
  C  3043  1  0.49166400  0.13297500  0.62877400  1
  C  3044  1  0.49405000  0.14255200  0.64294400  1
  C  3045  1  0.48187800  0.15393900  0.64710000  1
  C  3047  1  0.46792900  0.15602200  0.63749700  1
  C  3053  1  0.45234000  0.14922800  0.61308200  1
  C  3055  1  0.50764100  0.14122000  0.65302000  1
  C  3057  1  0.88304700  0.54096100  0.64664300  1
  C  3058  1  0.88722200  0.52885700  0.63525600  1
  C  3059  1  0.87769600  0.51473700  0.63300900  1
  C  3060  1  0.86350900  0.51236400  0.64256400  1
  C  3061  1  0.85931800  0.52456600  0.65390400  1
  C  3063  1  0.86889600  0.53853600  0.65596100  1
  C  3069  1  0.89328300  0.55416300  0.64914300  1
  C  3071  1  0.85344100  0.49876200  0.64124800  1
  C  3073  1  0.12335500  0.04095900  0.85980300  1
  C  3074  1  0.11922400  0.02888700  0.87123900  1
  C  3075  1  0.12876700  0.01478000  0.87349800  1
  C  3076  1  0.14292300  0.01238600  0.86390400  1
  C  3077  1  0.14707000  0.02455700  0.85251300  1
  C  3079  1  0.13747400  0.03851200  0.85044100  1
  C  3085  1  0.11307500  0.05411500  0.85726800  1
  C  3087  1  0.15299400  0.99878900  0.86522100  1
  C  3089  1  0.38305200  0.96546600  0.35982200  1
  C  3090  1  0.38725100  0.97759300  0.37117400  1
  C  3091  1  0.37772300  0.99171300  0.37341800  1
  C  3092  1  0.36351100  0.99406300  0.36389300  1
  C  3093  1  0.35930100  0.98183800  0.35258300  1
  C  3095  1  0.36888000  0.96786800  0.35053000  1
  C  3101  1  0.39328400  0.95226200  0.35734600  1
  C  3103  1  0.35343700  0.00765900  0.36521100  1
  C  3105  1  0.62341900  0.46547000  0.14663900  1
  C  3106  1  0.61921400  0.47759100  0.13528200  1
  C  3107  1  0.62873800  0.49171200  0.13303300  1
  C  3108  1  0.64295000  0.49407000  0.14255300  1
  C  3109  1  0.64716600  0.48184900  0.15386700  1
  C  3111  1  0.63759200  0.46787800  0.15592700  1
  C  3117  1  0.61319100  0.45226300  0.14912500  1
  C  3119  1  0.65301900  0.50767000  0.14123200  1
  C  3121  1  0.63318900  0.89653600  0.71570800  1
  C  3122  1  0.63794200  0.88569300  0.72808600  1
  C  3123  1  0.62853900  0.88333300  0.74227000  1
  C  3124  1  0.61388500  0.89221400  0.74441300  1
  C  3125  1  0.60911900  0.90300000  0.73192000  1
  C  3127  1  0.61855800  0.90514800  0.71787400  1
  C  3133  1  0.64325900  0.89890500  0.70237000  1
  C  3135  1  0.60386700  0.89073100  0.75803300  1
  C  3137  1  0.87327400  0.10988900  0.21571100  1
  C  3138  1  0.86851800  0.12073300  0.22808700  1
  C  3139  1  0.87791500  0.12309300  0.24227600  1
  C  3140  1  0.89256800  0.11420800  0.24442600  1
  C  3141  1  0.89733500  0.10342000  0.23193600  1
  C  3143  1  0.88790100  0.10127400  0.21788500  1
  C  3149  1  0.86320700  0.10751800  0.20237100  1
  C  3151  1  0.90258100  0.11568800  0.25805200  1
  C  3153  1  0.13318200  0.60992700  0.29076100  1
  C  3154  1  0.13793400  0.62076400  0.27837800  1
  C  3155  1  0.12853800  0.62310800  0.26418600  1
  C  3156  1  0.11389000  0.61421400  0.26203900  1
  C  3157  1  0.10912500  0.60343600  0.27453900  1
  C  3159  1  0.11855800  0.60130300  0.28859200  1
  C  3165  1  0.14324700  0.60757400  0.30410700  1
  C  3167  1  0.10387700  0.61568100  0.24841400  1
  C  3169  1  0.37327100  0.39651400  0.79076300  1
  C  3170  1  0.36851900  0.38567300  0.77838400  1
  C  3171  1  0.37791700  0.38332000  0.76419500  1
  C  3172  1  0.39256800  0.39221100  0.76204800  1
  C  3173  1  0.39733300  0.40299400  0.77454400  1
  C  3175  1  0.38789800  0.40513400  0.78859500  1
  C  3181  1  0.36320400  0.39887600  0.80410600  1
  C  3183  1  0.40258100  0.39073900  0.74842200  1
  C  3185  1  0.39654700  0.79074600  0.37327600  1
  C  3186  1  0.38570000  0.77837200  0.36852200  1
  C  3187  1  0.38334000  0.76418400  0.37792000  1
  C  3188  1  0.39222900  0.76203200  0.39257000  1
  C  3189  1  0.40301800  0.77452200  0.39733600  1
  C  3191  1  0.40516400  0.78857300  0.38790200  1
  C  3197  1  0.39891700  0.80408600  0.36320900  1
  C  3199  1  0.39074800  0.74840900  0.40258500  1
  C  3201  1  0.60990500  0.29074300  0.13319600  1
  C  3202  1  0.62074700  0.27836500  0.13795300  1
  C  3203  1  0.62310900  0.26417900  0.12855400  1
  C  3204  1  0.61422900  0.26203100  0.11389700  1
  C  3205  1  0.60344400  0.27452400  0.10912900  1
  C  3207  1  0.60129500  0.28857300  0.11856500  1
  C  3213  1  0.60753300  0.30408000  0.14326500  1
  C  3215  1  0.61571300  0.24840900  0.10388100  1
  C  3217  1  0.10993100  0.21568700  0.87328200  1
  C  3218  1  0.12076800  0.22806900  0.86852700  1
  C  3219  1  0.12312100  0.24225800  0.87792300  1
  C  3220  1  0.11423700  0.24440300  0.89257800  1
  C  3221  1  0.10345700  0.23190700  0.89734600  1
  C  3223  1  0.10131600  0.21785400  0.88791200  1
  C  3229  1  0.10756900  0.20234300  0.86321700  1
  C  3231  1  0.11571300  0.25802800  0.90259100  1
  C  3233  1  0.89652900  0.71569200  0.63319100  1
  C  3234  1  0.88568900  0.72807200  0.63794700  1
  C  3235  1  0.88334100  0.74226400  0.62855300  1
  C  3236  1  0.89223200  0.74441400  0.61390300  1
  C  3237  1  0.90301500  0.73191800  0.60913700  1
  C  3239  1  0.90515100  0.71786400  0.61856700  1
  C  3245  1  0.89888700  0.70234700  0.64325700  1
  C  3247  1  0.89076400  0.75804300  0.60389200  1
  C  3249  1  0.29075800  0.13317000  0.60992000  1
  C  3250  1  0.27838000  0.13792800  0.62075900  1
  C  3251  1  0.26419100  0.12853100  0.62312000  1
  C  3252  1  0.26204400  0.11387400  0.61424000  1
  C  3253  1  0.27453700  0.10910300  0.60345700  1
  C  3255  1  0.28858700  0.11853700  0.60130900  1
  C  3261  1  0.30410000  0.14323500  0.60755000  1
  C  3263  1  0.24842100  0.10385900  0.61572400  1
  C  3265  1  0.79078500  0.37329300  0.39651700  1
  C  3266  1  0.77840400  0.36853900  0.38567900  1
  C  3267  1  0.76420800  0.37792900  0.38333600  1
  C  3268  1  0.76205500  0.39257400  0.39223200  1
  C  3269  1  0.77455100  0.39734000  0.40301500  1
  C  3271  1  0.78860900  0.38791300  0.40514600  1
  C  3277  1  0.80413400  0.36323100  0.39886900  1
  C  3279  1  0.74842500  0.40258400  0.39076500  1
  C  3281  1  0.71571500  0.63319100  0.89654200  1
  C  3282  1  0.72808700  0.63794300  0.88569300  1
  C  3283  1  0.74227900  0.62854800  0.88333800  1
  C  3284  1  0.74443400  0.61390200  0.89223200  1
  C  3285  1  0.73194600  0.60913800  0.90302600  1
  C  3287  1  0.71789300  0.61857000  0.90516800  1
  C  3293  1  0.70237300  0.64325700  0.89890900  1
  C  3295  1  0.75806200  0.60389200  0.89075900  1
  C  3297  1  0.21570200  0.87326300  0.10992800  1
  C  3298  1  0.22807800  0.86850500  0.12077000  1
  C  3299  1  0.24226400  0.87790600  0.12313300  1
  C  3300  1  0.24440800  0.89256400  0.11425500  1
  C  3301  1  0.23191500  0.89733400  0.10347100  1
  C  3303  1  0.21786800  0.88789600  0.10132000  1
  C  3309  1  0.20236600  0.86319100  0.10754900  1
  C  3311  1  0.25803100  0.90257800  0.11573700  1
  C  3313  1  0.35982900  0.12340000  0.46546100  1
  C  3314  1  0.37118600  0.11920200  0.47758300  1
  C  3315  1  0.37342700  0.12872500  0.49170700  1
  C  3316  1  0.36389700  0.14293100  0.49406400  1
  C  3317  1  0.35258300  0.14714100  0.48184300  1
  C  3319  1  0.35053200  0.13756600  0.46787000  1
  C  3325  1  0.35735400  0.11317200  0.45225400  1
  C  3327  1  0.36521100  0.15299800  0.50766500  1
  C  3329  1  0.14663600  0.88304400  0.96548200  1
  C  3330  1  0.13527900  0.88724700  0.97760300  1
  C  3331  1  0.13303000  0.87772500  0.99172600  1
  C  3332  1  0.14255300  0.86351400  0.99408400  1
  C  3333  1  0.15386600  0.85929700  0.98186400  1
  C  3335  1  0.15592400  0.86887200  0.96789100  1
  C  3341  1  0.14911900  0.89327100  0.95227500  1
  C  3343  1  0.14123200  0.85344500  0.00768400  1
  C  3345  1  0.64664500  0.62340400  0.04097100  1
  C  3346  1  0.63525700  0.61922400  0.02887000  1
  C  3347  1  0.63299900  0.62875400  0.01475400  1
  C  3348  1  0.64254200  0.64294900  0.01238200  1
  C  3349  1  0.65388400  0.64714300  0.02458300  1
  C  3351  1  0.65595300  0.63756100  0.03854800  1
  C  3357  1  0.64915800  0.61316500  0.05416900  1
  C  3359  1  0.64121400  0.65301900  0.99878500  1
  C  3361  1  0.85979900  0.38309600  0.54096100  1
  C  3362  1  0.87123500  0.38723400  0.52889000  1
  C  3363  1  0.87349500  0.37769400  0.51477900  1
  C  3364  1  0.86390400  0.36353600  0.51238200  1
  C  3365  1  0.85251300  0.35938500  0.52455300  1
  C  3367  1  0.85044100  0.36897700  0.53851100  1
  C  3373  1  0.85726300  0.39337200  0.55412000  1
  C  3375  1  0.86522300  0.35346900  0.49878400  1
  C  3377  1  0.46547300  0.35982300  0.12341700  1
  C  3378  1  0.47759900  0.37117500  0.11921400  1
  C  3379  1  0.49172400  0.37341500  0.12873500  1
  C  3380  1  0.49408100  0.36388900  0.14294400  1
  C  3381  1  0.48185400  0.35258000  0.14715900  1
  C  3383  1  0.46787900  0.35053100  0.13758700  1
  C  3389  1  0.45226500  0.35734700  0.11319000  1
  C  3391  1  0.50768200  0.36519900  0.15301100  1
  C  3393  1  0.96547500  0.14663100  0.88303800  1
  C  3394  1  0.97760100  0.13527800  0.88723900  1
  C  3395  1  0.99172300  0.13303500  0.87771600  1
  C  3396  1  0.99407700  0.14256000  0.86350600  1
  C  3397  1  0.98185300  0.15387100  0.85929300  1
  C  3399  1  0.96788100  0.15592300  0.86886700  1
  C  3405  1  0.95226800  0.14910800  0.89326600  1
  C  3407  1  0.00767700  0.14124600  0.85343700  1
  C  3409  1  0.04093200  0.64669900  0.62334700  1
  C  3410  1  0.02890300  0.63519900  0.61925700  1
  C  3411  1  0.01480800  0.63291500  0.62881200  1
  C  3412  1  0.01238300  0.64254300  0.64293900  1
  C  3413  1  0.02451400  0.65399000  0.64705100  1
  C  3415  1  0.03845600  0.65608800  0.63744000  1
  C  3421  1  0.05406700  0.64930500  0.61304300  1
  C  3423  1  0.99879100  0.64121100  0.65301200  1
  C  3425  1  0.54096600  0.85977600  0.38309000  1
  C  3426  1  0.52889400  0.87120900  0.38722900  1
  C  3427  1  0.51479100  0.87348100  0.37768100  1
  C  3428  1  0.51240600  0.86390400  0.36351200  1
  C  3429  1  0.52457800  0.85251700  0.35935700  1
  C  3431  1  0.53852700  0.85043300  0.36895900  1
  C  3437  1  0.55411500  0.85722600  0.39337500  1
  C  3439  1  0.49881500  0.86523600  0.35343500  1
  C  3441  1  0.12340800  0.46549400  0.35981300  1
  C  3442  1  0.11923300  0.47759800  0.37119900  1
  C  3443  1  0.12876000  0.49171800  0.37344700  1
  C  3444  1  0.14294800  0.49409200  0.36389300  1
  C  3445  1  0.14713800  0.48188800  0.35255200  1
  C  3447  1  0.13755900  0.46791800  0.35049600  1
  C  3453  1  0.11317300  0.45229100  0.35731300  1
  C  3455  1  0.15301400  0.50769300  0.36520700  1
  C  3457  1  0.88310000  0.96549600  0.14665500  1
  C  3458  1  0.88723300  0.97756800  0.13521800  1
  C  3459  1  0.87768900  0.99167500  0.13295900  1
  C  3460  1  0.86353300  0.99407000  0.14255300  1
  C  3461  1  0.85938600  0.98189900  0.15394500  1
  C  3463  1  0.86898200  0.96794400  0.15601600  1
  C  3469  1  0.89338100  0.95234100  0.14918900  1
  C  3471  1  0.85346300  0.00766600  0.14123600  1
  C  3473  1  0.62340400  0.04099000  0.64663300  1
  C  3474  1  0.61920500  0.02886200  0.63528100  1
  C  3475  1  0.62873200  0.01474200  0.63303800  1
  C  3476  1  0.64294400  0.01239300  0.64256300  1
  C  3477  1  0.64715400  0.02461800  0.65387200  1
  C  3479  1  0.63757500  0.03858800  0.65592600  1
  C  3485  1  0.61317200  0.05419400  0.64911000  1
  C  3487  1  0.65301800  0.99879600  0.64124400  1
  C  3489  1  0.38303800  0.54098400  0.85981400  1
  C  3490  1  0.38724200  0.52886300  0.87117000  1
  C  3491  1  0.37772000  0.51474200  0.87342100  1
  C  3492  1  0.36350600  0.51238400  0.86390000  1
  C  3493  1  0.35929000  0.52460400  0.85258700  1
  C  3495  1  0.36886500  0.53857600  0.85052600  1
  C  3501  1  0.39326600  0.55419100  0.85732600  1
  C  3503  1  0.35343700  0.49878500  0.86522300  1
  C  3505  1  0.37326600  0.10992000  0.29074800  1
  C  3506  1  0.36851300  0.12076200  0.27836900  1
  C  3507  1  0.37791600  0.12312400  0.26418500  1
  C  3508  1  0.39257200  0.11424100  0.26204200  1
  C  3509  1  0.39733600  0.10345500  0.27453500  1
  C  3511  1  0.38789800  0.10130800  0.28858100  1
  C  3517  1  0.36319600  0.10755000  0.30408500  1
  C  3519  1  0.40258800  0.11572400  0.24842200  1
  C  3521  1  0.13318300  0.89656400  0.79074300  1
  C  3522  1  0.13793900  0.88572100  0.77836700  1
  C  3523  1  0.12854200  0.88335900  0.76417900  1
  C  3524  1  0.11388800  0.89224300  0.76202700  1
  C  3525  1  0.10912000  0.90303100  0.77451900  1
  C  3527  1  0.11855400  0.90517900  0.78856900  1
  C  3533  1  0.14324900  0.89893600  0.80408300  1
  C  3535  1  0.10387400  0.89076200  0.74840400  1
  C  3537  1  0.87327200  0.39652800  0.71569400  1
  C  3538  1  0.86852100  0.38569300  0.72807700  1
  C  3539  1  0.87791600  0.38334700  0.74227000  1
  C  3540  1  0.89256600  0.39224100  0.74441600  1
  C  3541  1  0.89732900  0.40302100  0.73191700  1
  C  3543  1  0.88789600  0.40515200  0.71786300  1
  C  3549  1  0.86320700  0.39888200  0.70235000  1
  C  3551  1  0.90257800  0.39077400  0.75804200  1
  C  3553  1  0.63318500  0.60994300  0.21569300  1
  C  3554  1  0.63793700  0.62078300  0.22807200  1
  C  3555  1  0.62853800  0.62313500  0.24226300  1
  C  3556  1  0.61388800  0.61424500  0.24440800  1
  C  3557  1  0.60912400  0.60346100  0.23191400  1
  C  3559  1  0.61855900  0.60132100  0.21786300  1
  C  3565  1  0.64325200  0.60758000  0.20235200  1
  C  3567  1  0.60387400  0.61571700  0.25803400  1
  C  3569  1  0.60990900  0.21570900  0.63317700  1
  C  3570  1  0.62075500  0.22808300  0.63793100  1
  C  3571  1  0.62311400  0.24227100  0.62853300  1
  C  3572  1  0.61422500  0.24442300  0.61388200  1
  C  3573  1  0.60343600  0.23193300  0.60911800  1
  C  3575  1  0.60129000  0.21788300  0.61855200  1
  C  3581  1  0.60753900  0.20236900  0.64324500  1
  C  3583  1  0.61570500  0.25804900  0.60386900  1
  C  3585  1  0.39655300  0.71571300  0.87325800  1
  C  3586  1  0.38571100  0.72808900  0.86850300  1
  C  3587  1  0.38334700  0.74227600  0.87790100  1
  C  3588  1  0.39222900  0.74442300  0.89255800  1
  C  3589  1  0.40301400  0.73193100  0.89732700  1
  C  3591  1  0.40516300  0.71788200  0.88789000  1
  C  3597  1  0.39892500  0.70237500  0.86318900  1
  C  3599  1  0.39074500  0.75804500  0.90257400  1
  C  3601  1  0.89652400  0.79076700  0.13317300  1
  C  3602  1  0.88568700  0.77838500  0.13793000  1
  C  3603  1  0.88333400  0.76419600  0.12853200  1
  C  3604  1  0.89221800  0.76205100  0.11387800  1
  C  3605  1  0.90299900  0.77454800  0.10911000  1
  C  3607  1  0.90513900  0.78860000  0.11854400  1
  C  3613  1  0.89888500  0.80411100  0.14324000  1
  C  3615  1  0.89074400  0.74842600  0.10386400  1
  C  3617  1  0.10991900  0.29076300  0.37326500  1
  C  3618  1  0.12075800  0.27838300  0.36850800  1
  C  3619  1  0.12311000  0.26419100  0.37790300  1
  C  3620  1  0.11422200  0.26204200  0.39255300  1
  C  3621  1  0.10344000  0.27453700  0.39732300  1
  C  3623  1  0.10130100  0.28859100  0.38789200  1
  C  3629  1  0.10755400  0.30410600  0.36320000  1
  C  3631  1  0.11569300  0.24841400  0.40256400  1
  C  3633  1  0.71569700  0.87328600  0.39652600  1
  C  3634  1  0.72807500  0.86852900  0.38568700  1
  C  3635  1  0.74226400  0.87792600  0.38332900  1
  C  3636  1  0.74441200  0.89258000  0.39221200  1
  C  3637  1  0.73191800  0.89735000  0.40299500  1
  C  3639  1  0.71786700  0.88791600  0.40514000  1
  C  3645  1  0.70235300  0.86322000  0.39889100  1
  C  3647  1  0.75803600  0.90259600  0.39073100  1
  C  3649  1  0.21567000  0.63316200  0.60993800  1
  C  3650  1  0.22805000  0.63791600  0.62077600  1
  C  3651  1  0.24224700  0.62852600  0.62311900  1
  C  3652  1  0.24440000  0.61388000  0.61422200  1
  C  3653  1  0.23190300  0.60911400  0.60343900  1
  C  3655  1  0.21784600  0.61854200  0.60130900  1
  C  3661  1  0.20232000  0.64322400  0.60758600  1
  C  3663  1  0.25802900  0.60387200  0.61568900  1
  C  3665  1  0.29073900  0.37326200  0.10991300  1
  C  3666  1  0.27836700  0.36851200  0.12076400  1
  C  3667  1  0.26417700  0.37790700  0.12311800  1
  C  3668  1  0.26201900  0.39255200  0.11422000  1
  C  3669  1  0.27450700  0.39731300  0.10342600  1
  C  3671  1  0.28856100  0.38788300  0.10128500  1
  C  3677  1  0.30408300  0.36319700  0.10754900  1
  C  3679  1  0.24839200  0.40256200  0.11569300  1
  C  3681  1  0.79075400  0.13319300  0.89652600  1
  C  3682  1  0.77837700  0.13795000  0.88568500  1
  C  3683  1  0.76419100  0.12854900  0.88332100  1
  C  3684  1  0.76204700  0.11389100  0.89220000  1
  C  3685  1  0.77454000  0.10912200  0.90298300  1
  C  3687  1  0.78858700  0.11855900  0.90513500  1
  C  3693  1  0.80409000  0.14326400  0.89890500  1
  C  3695  1  0.74842500  0.10387700  0.89071800  1
  N  41  1  0.06792500  0.35296800  0.88742300  1
  N  42  1  0.12001600  0.27197400  0.89714000  1
  N  43  1  0.13622500  0.35862700  0.98448700  1
  N  44  1  0.18797200  0.36917100  0.90241800  1
  N  86  1  0.43847200  0.65346900  0.38740700  1
  N  87  1  0.38643300  0.73446700  0.39713400  1
  N  88  1  0.37024300  0.64781800  0.48448800  1
  N  89  1  0.31837000  0.63736300  0.40240100  1
  N  131  1  0.93849700  0.85299600  0.61905200  1
  N  132  1  0.88644500  0.77198400  0.60934200  1
  N  133  1  0.87020800  0.85860300  0.52195900  1
  N  134  1  0.81839800  0.86909600  0.60403300  1
  N  176  1  0.56792600  0.15349400  0.11901500  1
  N  177  1  0.62003800  0.23446900  0.10932600  1
  N  178  1  0.63622300  0.14783900  0.02196500  1
  N  179  1  0.68798100  0.13726000  0.10406500  1
  N  221  1  0.88744900  0.06794400  0.35296600  1
  N  222  1  0.89713700  0.12002100  0.27199100  1
  N  223  1  0.98451700  0.13622400  0.35860000  1
  N  224  1  0.90238900  0.18798800  0.36921000  1
  N  266  1  0.38741800  0.43850400  0.65348000  1
  N  267  1  0.39713200  0.38643200  0.73447800  1
  N  268  1  0.48451900  0.37021300  0.64785600  1
  N  269  1  0.40245800  0.31845600  0.63728000  1
  N  311  1  0.61902600  0.93853500  0.85298500  1
  N  312  1  0.60932100  0.88644400  0.77198200  1
  N  313  1  0.52196500  0.87024000  0.85862000  1
  N  314  1  0.60405300  0.81848300  0.86917100  1
  N  356  1  0.11906100  0.56795500  0.15344900  1
  N  357  1  0.10932700  0.61999000  0.23446900  1
  N  358  1  0.02195900  0.63621200  0.14784800  1
  N  359  1  0.10405600  0.68805100  0.13737200  1
  N  401  1  0.35297200  0.88743700  0.06792000  1
  N  402  1  0.27197900  0.89712100  0.12002500  1
  N  403  1  0.35860300  0.98448400  0.13622400  1
  N  404  1  0.36915800  0.90240400  0.18798600  1
  N  446  1  0.65344300  0.38737400  0.43845600  1
  N  447  1  0.73448600  0.39713500  0.38643800  1
  N  448  1  0.64780800  0.48446400  0.37024700  1
  N  449  1  0.63737800  0.40241000  0.31836500  1
  N  491  1  0.85296200  0.61901400  0.93850600  1
  N  492  1  0.77199900  0.60934000  0.88642800  1
  N  493  1  0.85860700  0.52195300  0.87019400  1
  N  494  1  0.86913600  0.60406200  0.81839700  1
  N  536  1  0.15349100  0.11903400  0.56792800  1
  N  537  1  0.23447800  0.10931000  0.62003600  1
  N  538  1  0.14782600  0.02196700  0.63623100  1
  N  539  1  0.13726900  0.10405900  0.68797300  1
  N  581  1  0.10290300  0.31806800  0.36840300  1
  N  582  1  0.02153800  0.36993800  0.35875800  1
  N  583  1  0.10815300  0.38626900  0.27134000  1
  N  584  1  0.11868600  0.43797100  0.35371600  1
  N  626  1  0.40357100  0.68841000  0.86839200  1
  N  627  1  0.48490100  0.63654500  0.85874700  1
  N  628  1  0.39828900  0.62017600  0.77132100  1
  N  629  1  0.38775500  0.56850900  0.85369900  1
  N  671  1  0.60289500  0.18840500  0.63804000  1
  N  672  1  0.52151800  0.13653500  0.64770900  1
  N  673  1  0.60819900  0.12015800  0.73506900  1
  N  674  1  0.61867600  0.06851200  0.65274400  1
  N  716  1  0.90353600  0.81807500  0.13803600  1
  N  717  1  0.98490200  0.86990400  0.14771100  1
  N  718  1  0.89827900  0.88629200  0.23510300  1
  N  719  1  0.88783500  0.93801000  0.15272700  1
  N  761  1  0.81805500  0.13805800  0.90354300  1
  N  762  1  0.86992700  0.14770500  0.98489600  1
  N  763  1  0.88628900  0.23509400  0.89823900  1
  N  764  1  0.93795100  0.15273700  0.88775600  1
  N  806  1  0.18836400  0.63802400  0.60291100  1
  N  807  1  0.13652200  0.64767900  0.52154100  1
  N  808  1  0.12021700  0.73508200  0.60817100  1
  N  809  1  0.06841400  0.65271300  0.61860500  1
  N  851  1  0.68839200  0.86842300  0.40354900  1
  N  852  1  0.63654100  0.85876400  0.48491700  1
  N  853  1  0.62012500  0.77137800  0.39826900  1
  N  854  1  0.56845400  0.85372000  0.38782900  1
  N  896  1  0.31804300  0.36840200  0.10289000  1
  N  897  1  0.36994200  0.35874500  0.02154500  1
  N  898  1  0.38630000  0.27138000  0.10820800  1
  N  899  1  0.43794500  0.35373200  0.11870100  1
  N  941  1  0.63805100  0.60292400  0.18838900  1
  N  942  1  0.64771000  0.52154600  0.13653900  1
  N  943  1  0.73510400  0.60817600  0.12016100  1
  N  944  1  0.65274500  0.61868000  0.06849000  1
  N  986  1  0.13804300  0.90358000  0.81804800  1
  N  987  1  0.14768600  0.98491700  0.86992600  1
  N  988  1  0.23509500  0.89829100  0.88630100  1
  N  989  1  0.15274800  0.88776200  0.93795700  1
  N  1031  1  0.36839800  0.10290600  0.31805000  1
  N  1032  1  0.35873900  0.02153500  0.36991000  1
  N  1033  1  0.27136000  0.10819600  0.38629100  1
  N  1034  1  0.35371500  0.11868000  0.43793900  1
  N  1076  1  0.86840800  0.40353700  0.68838700  1
  N  1077  1  0.85874700  0.48488900  0.63654600  1
  N  1078  1  0.77132200  0.39828500  0.62019900  1
  N  1079  1  0.85372600  0.38782400  0.56845100  1
  N  1121  1  0.93853200  0.65348600  0.11903200  1
  N  1122  1  0.88643900  0.73448000  0.10931500  1
  N  1123  1  0.87023000  0.64782900  0.02196600  1
  N  1124  1  0.81848300  0.63728300  0.10403600  1
  N  1166  1  0.56798100  0.35298900  0.61904600  1
  N  1167  1  0.62002100  0.27199000  0.60932000  1
  N  1168  1  0.63621300  0.35863500  0.52196600  1
  N  1169  1  0.68808500  0.36909100  0.60405700  1
  N  1211  1  0.06796100  0.15344900  0.38740600  1
  N  1212  1  0.12000900  0.23447100  0.39711400  1
  N  1213  1  0.13624800  0.14785200  0.48449600  1
  N  1214  1  0.18806000  0.13736100  0.40242200  1
  N  1256  1  0.43852900  0.85296100  0.88744000  1
  N  1257  1  0.38641800  0.77198600  0.89712800  1
  N  1258  1  0.37023200  0.85861700  0.98449000  1
  N  1259  1  0.31847400  0.86919400  0.90239000  1
  N  1301  1  0.11900600  0.93851100  0.65349200  1
  N  1302  1  0.10931900  0.88643300  0.73446400  1
  N  1303  1  0.02193800  0.87023300  0.64785700  1
  N  1304  1  0.10406900  0.81846800  0.63724400  1
  N  1346  1  0.61903600  0.56795100  0.35297600  1
  N  1347  1  0.60932500  0.62002400  0.27197900  1
  N  1348  1  0.52193500  0.63624000  0.35860000  1
  N  1349  1  0.60399500  0.68799800  0.36917700  1
  N  1391  1  0.38742900  0.06791800  0.15347000  1
  N  1392  1  0.39713400  0.12001100  0.23447300  1
  N  1393  1  0.48449000  0.13621500  0.14783500  1
  N  1394  1  0.40240300  0.18797100  0.13728400  1
  N  1436  1  0.88739400  0.43850100  0.85300600  1
  N  1437  1  0.89712700  0.38646700  0.77198600  1
  N  1438  1  0.98449500  0.37024200  0.85860800  1
  N  1439  1  0.90240100  0.31840600  0.86908400  1
  N  1481  1  0.65348300  0.11901800  0.93853500  1
  N  1482  1  0.73447600  0.10933400  0.88642900  1
  N  1483  1  0.64785200  0.02196900  0.87023100  1
  N  1484  1  0.63729700  0.10405200  0.81847100  1
  N  1526  1  0.35301200  0.61907900  0.56799800  1
  N  1527  1  0.27196800  0.60932000  0.62001700  1
  N  1528  1  0.35864600  0.52199200  0.63620900  1
  N  1529  1  0.36907500  0.60404500  0.68809000  1
  N  1571  1  0.15347800  0.38744100  0.06795100  1
  N  1572  1  0.23445300  0.39711400  0.12002500  1
  N  1573  1  0.14784800  0.48450400  0.13626000  1
  N  1574  1  0.13732100  0.40239700  0.18806100  1
  N  1616  1  0.85296600  0.88742000  0.43852700  1
  N  1617  1  0.77197800  0.89714600  0.38641700  1
  N  1618  1  0.85862900  0.98448900  0.37022500  1
  N  1619  1  0.86918800  0.90239800  0.31848300  1
  N  1661  1  0.90354200  0.68838400  0.63805300  1
  N  1662  1  0.98491700  0.63651800  0.64769700  1
  N  1663  1  0.89830300  0.62018700  0.73511600  1
  N  1664  1  0.88776900  0.56848300  0.65274200  1
  N  1706  1  0.60288400  0.31804500  0.13806300  1
  N  1707  1  0.52155400  0.36991100  0.14770900  1
  N  1708  1  0.60816500  0.38628000  0.23513400  1
  N  1709  1  0.61870200  0.43794600  0.15275400  1
  N  1751  1  0.40356000  0.81805000  0.36841400  1
  N  1752  1  0.48493900  0.86992100  0.35874600  1
  N  1753  1  0.39825700  0.88630000  0.27138600  1
  N  1754  1  0.38778000  0.93794400  0.35371100  1
  N  1796  1  0.10291900  0.18838100  0.86841900  1
  N  1797  1  0.02155200  0.13655000  0.85874500  1
  N  1798  1  0.10817600  0.12016200  0.77135400  1
  N  1799  1  0.11862100  0.06844600  0.85372900  1
  N  1841  1  0.18840000  0.86839700  0.10291200  1
  N  1842  1  0.13652900  0.85874900  0.02155800  1
  N  1843  1  0.12016600  0.77136300  0.10821700  1
  N  1844  1  0.06850300  0.85371500  0.11869800  1
  N  1886  1  0.81809000  0.36843100  0.40354300  1
  N  1887  1  0.86993500  0.35877500  0.48491400  1
  N  1888  1  0.88624200  0.27137400  0.39828300  1
  N  1889  1  0.93804100  0.35374100  0.38785000  1
  N  1931  1  0.31806100  0.13803300  0.60289400  1
  N  1932  1  0.36991500  0.14769200  0.52153700  1
  N  1933  1  0.38633000  0.23507600  0.60818700  1
  N  1934  1  0.43800100  0.15273400  0.61862800  1
  N  1976  1  0.68841200  0.63805200  0.90356500  1
  N  1977  1  0.63651200  0.64771100  0.98491200  1
  N  1978  1  0.62015800  0.73507500  0.89824900  1
  N  1979  1  0.56851000  0.65272500  0.88775500  1
  N  2021  1  0.36840600  0.40353200  0.81806700  1
  N  2022  1  0.35874600  0.48491000  0.86991500  1
  N  2023  1  0.27135100  0.39827800  0.88629200  1
  N  2024  1  0.35370900  0.38777500  0.93796600  1
  N  2066  1  0.86841200  0.10287500  0.18840600  1
  N  2067  1  0.85877000  0.02153800  0.13653200  1
  N  2068  1  0.77136000  0.10816400  0.12015400  1
  N  2069  1  0.85370800  0.11869200  0.06849700  1
  N  2111  1  0.63805700  0.90354900  0.68840500  1
  N  2112  1  0.64771600  0.98492100  0.63654500  1
  N  2113  1  0.73509600  0.89826000  0.62016400  1
  N  2114  1  0.65273900  0.88777500  0.56851600  1
  N  2156  1  0.13804700  0.60291900  0.31807000  1
  N  2157  1  0.14770800  0.52156600  0.36991000  1
  N  2158  1  0.23513300  0.60816900  0.38625600  1
  N  2159  1  0.15273100  0.61863000  0.43800600  1
  N  2170  1  0.12058500  0.38154000  0.00329800  1
  N  2186  1  0.38602600  0.62503600  0.50340600  1
  N  2202  1  0.88606500  0.88133400  0.50303500  1
  N  2218  1  0.62049400  0.12499200  0.00311100  1
  N  2234  1  0.00342300  0.12038500  0.38134900  1
  N  2250  1  0.50339800  0.38598600  0.62505700  1
  N  2266  1  0.50311100  0.88595300  0.88146600  1
  N  2282  1  0.00303900  0.62039100  0.12509800  1
  N  2298  1  0.38142900  0.00334500  0.12048000  1
  N  2314  1  0.62499800  0.50337400  0.38599800  1
  N  2330  1  0.88132900  0.50303100  0.88607300  1
  N  2346  1  0.12491100  0.00316000  0.62059200  1
  N  2362  1  0.12957600  0.36908600  0.25183600  1
  N  2378  1  0.37693900  0.63743100  0.75176400  1
  N  2394  1  0.62993400  0.13705200  0.75436200  1
  N  2410  1  0.87670600  0.86924200  0.25450000  1
  N  2426  1  0.86925200  0.25448200  0.87664900  1
  N  2442  1  0.13740900  0.75463200  0.62957000  1
  N  2458  1  0.63715200  0.75199500  0.37666700  1
  N  2474  1  0.36939800  0.25208700  0.12994000  1
  N  2490  1  0.75448900  0.62976700  0.13719200  1
  N  2506  1  0.25450300  0.87673200  0.86922800  1
  N  2522  1  0.25197300  0.12980000  0.36927800  1
  N  2538  1  0.75175400  0.37694700  0.63745600  1
  N  2554  1  0.88586800  0.62491600  0.00315300  1
  N  2570  1  0.62043200  0.38141800  0.50305000  1
  N  2586  1  0.12039200  0.12512400  0.50342000  1
  N  2602  1  0.38596200  0.88146300  0.00334400  1
  N  2618  1  0.00303100  0.88606700  0.62510500  1
  N  2634  1  0.50305600  0.62047100  0.38140000  1
  N  2650  1  0.50334400  0.12050200  0.12498900  1
  N  2666  1  0.00341700  0.38606500  0.88135700  1
  N  2682  1  0.62502500  0.00311000  0.88597500  1
  N  2698  1  0.38145600  0.50308100  0.62045800  1
  N  2714  1  0.12512600  0.50342400  0.12038300  1
  N  2730  1  0.88154600  0.00329500  0.38586300  1
  N  2746  1  0.87687900  0.63736900  0.75461900  1
  N  2762  1  0.62951300  0.36902300  0.25469200  1
  N  2778  1  0.37652000  0.86940800  0.25209500  1
  N  2794  1  0.12974800  0.13721500  0.75195700  1
  N  2810  1  0.13720300  0.75197300  0.12980500  1
  N  2826  1  0.86904800  0.25182400  0.37688400  1
  N  2842  1  0.36930300  0.25445900  0.62979100  1
  N  2858  1  0.63706500  0.75437100  0.87652000  1
  N  2874  1  0.25196300  0.37669100  0.86925900  1
  N  2890  1  0.75195300  0.12972300  0.13722600  1
  N  2906  1  0.75448300  0.87665600  0.63717700  1
  N  2922  1  0.25470300  0.62950700  0.36899900  1
  N  2938  1  0.62126400  0.88237200  0.50313100  1
  N  2954  1  0.88518900  0.12408300  0.00311300  1
  N  2970  1  0.38524700  0.38232300  0.00329900  1
  N  2986  1  0.12112700  0.62418100  0.50324500  1
  N  3002  1  0.50311100  0.62128200  0.88236700  1
  N  3018  1  0.00311300  0.88518000  0.12409800  1
  N  3034  1  0.00317700  0.38543000  0.38217400  1
  N  3050  1  0.50323600  0.12114400  0.62419500  1
  N  3066  1  0.88231300  0.50313900  0.62121800  1
  N  3082  1  0.12419300  0.00321000  0.88533400  1
  N  3098  1  0.38236500  0.00333400  0.38517700  1
  N  3114  1  0.62409200  0.50332800  0.12126900  1
  N  3130  1  0.63372700  0.87205500  0.75413400  1
  N  3146  1  0.87272200  0.13437300  0.25413700  1
  N  3162  1  0.13372600  0.63438100  0.25231700  1
  N  3178  1  0.37272900  0.37204500  0.75232900  1
  N  3194  1  0.37205800  0.75232400  0.37273200  1
  N  3210  1  0.63438700  0.25231600  0.13374600  1
  N  3226  1  0.13439400  0.25412500  0.87273200  1
  N  3242  1  0.87206600  0.75413100  0.63374200  1
  N  3258  1  0.25232800  0.13372600  0.63439500  1
  N  3274  1  0.75234300  0.37273800  0.37206200  1
  N  3290  1  0.75413600  0.63373500  0.87205400  1
  N  3306  1  0.25412700  0.87271500  0.13441000  1
  N  3322  1  0.38519200  0.12408300  0.50332300  1
  N  3338  1  0.12126600  0.88237100  0.00334100  1
  N  3354  1  0.62120700  0.62413200  0.00315700  1
  N  3370  1  0.88532900  0.38227400  0.50321100  1
  N  3386  1  0.50334400  0.38517300  0.12408900  1
  N  3402  1  0.00334200  0.12127400  0.88236000  1
  N  3418  1  0.00327700  0.62102500  0.62428100  1
  N  3434  1  0.50322000  0.88531200  0.38226200  1
  N  3450  1  0.12414300  0.50331600  0.38523700  1
  N  3466  1  0.88226300  0.00324500  0.12112300  1
  N  3482  1  0.62409100  0.00312200  0.62127900  1
  N  3498  1  0.38236500  0.50312700  0.88518500  1
  N  3514  1  0.37272800  0.13440000  0.25232100  1
  N  3530  1  0.13373400  0.87208100  0.75231700  1
  N  3546  1  0.87273000  0.37207500  0.75413800  1
  N  3562  1  0.63372600  0.63441100  0.25412800  1
  N  3578  1  0.63439700  0.25413200  0.63372100  1
  N  3594  1  0.37207000  0.75413900  0.87270900  1
  N  3610  1  0.87206100  0.75232900  0.13372300  1
  N  3626  1  0.13438500  0.25232600  0.37271100  1
  N  3642  1  0.75412800  0.87273300  0.37205300  1
  N  3658  1  0.25411300  0.63371600  0.63439300  1
  N  3674  1  0.25231800  0.37272200  0.13440300  1
  N  3690  1  0.75232800  0.13374000  0.87204500  1
  O  2171  1  0.12315300  0.39533900  0.99737900  1
  O  2172  1  0.10669700  0.38133000  0.00953300  1
  O  2187  1  0.38353100  0.61121500  0.49750700  1
  O  2188  1  0.39990100  0.62531700  0.50966700  1
  O  2203  1  0.88362200  0.89515100  0.50896400  1
  O  2204  1  0.89992000  0.88102800  0.49672900  1
  O  2219  1  0.62302300  0.11119300  0.00904700  1
  O  2220  1  0.60662200  0.12521800  0.99683900  1
  O  2235  1  0.99749700  0.12284700  0.39516400  1
  O  2236  1  0.00971400  0.10652400  0.38105700  1
  O  2251  1  0.49748100  0.38349900  0.61124400  1
  O  2252  1  0.50966800  0.39985800  0.62533500  1
  O  2267  1  0.50903900  0.88343100  0.89527000  1
  O  2268  1  0.49684400  0.89982600  0.88122700  1
  O  2283  1  0.00896900  0.62284300  0.11128300  1
  O  2284  1  0.99673300  0.60653700  0.12539300  1
  O  2299  1  0.39523300  0.99741200  0.12299400  1
  O  2300  1  0.38118600  0.00961900  0.10661000  1
  O  2315  1  0.61118300  0.49746600  0.38349700  1
  O  2316  1  0.62526700  0.50964300  0.39987000  1
  O  2331  1  0.89514700  0.50895600  0.88362300  1
  O  2332  1  0.88102800  0.49673400  0.89993200  1
  O  2347  1  0.11111400  0.00908200  0.62316400  1
  O  2348  1  0.12511400  0.99692400  0.60670400  1
  O  2363  1  0.14348700  0.37052800  0.25787400  1
  O  2364  1  0.12849200  0.35547500  0.24510400  1
  O  2379  1  0.36303000  0.63604300  0.75781700  1
  O  2380  1  0.37805400  0.65101800  0.74498900  1
  O  2395  1  0.64383200  0.13538900  0.74835100  1
  O  2396  1  0.62899800  0.15074400  0.76095300  1
  O  2411  1  0.86279600  0.87079700  0.24848600  1
  O  2412  1  0.87772200  0.85558400  0.26115100  1
  O  2427  1  0.87081500  0.24844900  0.86274900  1
  O  2428  1  0.85560000  0.26114400  0.87764600  1
  O  2443  1  0.13596900  0.74862500  0.64349400  1
  O  2444  1  0.15102700  0.76134900  0.62846300  1
  O  2459  1  0.63557800  0.75800900  0.36276000  1
  O  2460  1  0.65081300  0.74535000  0.37766900  1
  O  2475  1  0.37106800  0.25809600  0.14383800  1
  O  2476  1  0.35570400  0.24550100  0.12900800  1
  O  2491  1  0.74847700  0.64367600  0.13562900  1
  O  2492  1  0.76113600  0.62875400  0.15085200  1
  O  2507  1  0.24848600  0.86282300  0.87077500  1
  O  2508  1  0.26116100  0.87775400  0.85557600  1
  O  2523  1  0.25801100  0.14369800  0.37084600  1
  O  2524  1  0.24530700  0.12881200  0.35562600  1
  O  2539  1  0.75780400  0.36303600  0.63607400  1
  O  2540  1  0.74497500  0.37806600  0.65104200  1
  O  2555  1  0.88329900  0.61111800  0.00907300  1
  O  2556  1  0.89975500  0.62512200  0.99691300  1
  O  2571  1  0.62292800  0.39523900  0.50894800  1
  O  2572  1  0.60655600  0.38113900  0.49678800  1
  O  2587  1  0.12283400  0.11130600  0.49749200  1
  O  2588  1  0.10653800  0.12542800  0.50972600  1
  O  2603  1  0.38343200  0.89526200  0.99740800  1
  O  2604  1  0.39983300  0.88123700  0.00961600  1
  O  2619  1  0.00895700  0.88360200  0.61129000  1
  O  2620  1  0.99673900  0.89992800  0.62539200  1
  O  2635  1  0.50897300  0.62296000  0.39521400  1
  O  2636  1  0.49678500  0.60659900  0.38112500  1
  O  2651  1  0.49741600  0.12302300  0.11118500  1
  O  2652  1  0.50961100  0.10662900  0.12522900  1
  O  2667  1  0.99748800  0.38361200  0.89517300  1
  O  2668  1  0.00972400  0.39991800  0.88106200  1
  O  2683  1  0.61122200  0.00904300  0.88346000  1
  O  2684  1  0.62526700  0.99683600  0.89984400  1
  O  2699  1  0.39527100  0.50899000  0.62295900  1
  O  2700  1  0.38118800  0.49681300  0.60658500  1
  O  2715  1  0.11130800  0.49750000  0.12283300  1
  O  2716  1  0.12542800  0.50972100  0.10652400  1
  O  2731  1  0.89534200  0.99737200  0.38329100  1
  O  2732  1  0.88134300  0.00953100  0.39975100  1
  O  2747  1  0.86296800  0.63592600  0.74858100  1
  O  2748  1  0.87796300  0.65098000  0.76135000  1
  O  2763  1  0.64342300  0.37041100  0.24863800  1
  O  2764  1  0.62839900  0.35543600  0.26146800  1
  O  2779  1  0.36262300  0.87107200  0.25810700  1
  O  2780  1  0.37745600  0.85571500  0.24550600  1
  O  2795  1  0.14365800  0.13565800  0.75797100  1
  O  2796  1  0.12873200  0.15087100  0.74530700  1
  O  2811  1  0.13564100  0.75800800  0.14370600  1
  O  2812  1  0.15085500  0.74531200  0.12880800  1
  O  2827  1  0.87048700  0.25783300  0.36296000  1
  O  2828  1  0.85543000  0.24510900  0.37799100  1
  O  2843  1  0.37087700  0.24844500  0.64369800  1
  O  2844  1  0.35564200  0.26110300  0.62879000  1
  O  2859  1  0.63539600  0.74836200  0.86262200  1
  O  2860  1  0.65075700  0.76096000  0.87745300  1
  O  2875  1  0.25797700  0.36278200  0.87081900  1
  O  2876  1  0.24531700  0.37770500  0.85560000  1
  O  2891  1  0.75796900  0.14363200  0.13568000  1
  O  2892  1  0.74529500  0.12870200  0.15087800  1
  O  2907  1  0.74844500  0.86275900  0.63561000  1
  O  2908  1  0.76114900  0.87764500  0.65082900  1
  O  2923  1  0.24865200  0.64341800  0.37038000  1
  O  2924  1  0.26148100  0.62838800  0.35541300  1
  O  2939  1  0.60724000  0.88258900  0.50905400  1
  O  2940  1  0.62433400  0.89604800  0.49716600  1
  O  2955  1  0.89921200  0.12385900  0.00903800  1
  O  2956  1  0.88211300  0.11041000  0.99714600  1
  O  2971  1  0.39926000  0.38252600  0.99734900  1
  O  2972  1  0.38220500  0.39600000  0.00927500  1
  O  2987  1  0.10712800  0.62402800  0.49726200  1
  O  2988  1  0.12410700  0.61049400  0.50922800  1
  O  3003  1  0.50902800  0.60725700  0.88258800  1
  O  3004  1  0.49714800  0.62436000  0.89604100  1
  O  3019  1  0.00903300  0.89920600  0.12387600  1
  O  3020  1  0.99714600  0.88210500  0.11042400  1
  O  3035  1  0.99714300  0.39940700  0.38228900  1
  O  3036  1  0.00918200  0.38251400  0.39586600  1
  O  3051  1  0.49725100  0.10714500  0.62402200  1
  O  3052  1  0.50923100  0.12413700  0.61051400  1
  O  3067  1  0.88250400  0.50908400  0.60720300  1
  O  3068  1  0.89599400  0.49716900  0.62425300  1
  O  3083  1  0.12404100  0.00919400  0.89933300  1
  O  3084  1  0.11050700  0.99722200  0.88235600  1
  O  3099  1  0.38259100  0.99741400  0.39920200  1
  O  3100  1  0.39603700  0.00930500  0.38209900  1
  O  3115  1  0.62386600  0.49740300  0.10724600  1
  O  3116  1  0.61042000  0.50929600  0.12434600  1
  O  3131  1  0.63458600  0.85792700  0.74852000  1
  O  3132  1  0.64725000  0.87588100  0.76001000  1
  O  3147  1  0.87186800  0.14849900  0.24852300  1
  O  3148  1  0.85919700  0.13054800  0.26000700  1
  O  3163  1  0.13457300  0.64851200  0.25792200  1
  O  3164  1  0.14725300  0.63056000  0.24645200  1
  O  3179  1  0.37187900  0.35791600  0.75793900  1
  O  3180  1  0.35920400  0.37586700  0.74646100  1
  O  3195  1  0.35793200  0.75794100  0.37188000  1
  O  3196  1  0.37587800  0.74645300  0.35920500  1
  O  3211  1  0.64851400  0.25793000  0.13460600  1
  O  3212  1  0.63055900  0.24644400  0.14726900  1
  O  3227  1  0.14852400  0.24851700  0.87187500  1
  O  3228  1  0.13056600  0.25999300  0.85920800  1
  O  3243  1  0.85793600  0.74852300  0.63459000  1
  O  3244  1  0.87588800  0.75999500  0.64727000  1
  O  3259  1  0.25794100  0.13458600  0.64852200  1
  O  3260  1  0.24645700  0.14724900  0.63056500  1
  O  3275  1  0.75794700  0.37189600  0.35793000  1
  O  3276  1  0.74648300  0.35920600  0.37588100  1
  O  3291  1  0.74851900  0.63457900  0.85792600  1
  O  3292  1  0.76000300  0.64726400  0.87586700  1
  O  3307  1  0.24851400  0.87185100  0.14853600  1
  O  3308  1  0.26000200  0.85919300  0.13057900  1
  O  3323  1  0.39921600  0.12386600  0.49740000  1
  O  3324  1  0.38212100  0.11040900  0.50928900  1
  O  3339  1  0.10724300  0.88259500  0.99741600  1
  O  3340  1  0.12434200  0.89604400  0.00930800  1
  O  3355  1  0.60719500  0.62392800  0.00910700  1
  O  3356  1  0.62425100  0.61045500  0.99718100  1
  O  3371  1  0.89932800  0.38242600  0.50919300  1
  O  3372  1  0.88234900  0.39596000  0.49722700  1
  O  3387  1  0.49742700  0.39920000  0.12386800  1
  O  3388  1  0.50930700  0.38209600  0.11041400  1
  O  3403  1  0.99742100  0.10724900  0.88258300  1
  O  3404  1  0.00930800  0.12435100  0.89603300  1
  O  3419  1  0.00931100  0.60704800  0.62416600  1
  O  3420  1  0.99727300  0.62394000  0.61059000  1
  O  3435  1  0.50920500  0.89931000  0.38243500  1
  O  3436  1  0.49722500  0.88232000  0.39594100  1
  O  3451  1  0.12395100  0.49737200  0.39925200  1
  O  3452  1  0.11046100  0.50928600  0.38220200  1
  O  3467  1  0.88241600  0.99726100  0.10712400  1
  O  3468  1  0.89594900  0.00923300  0.12410000  1
  O  3483  1  0.62386400  0.00904200  0.60725300  1
  O  3484  1  0.61041900  0.99715100  0.62435600  1
  O  3499  1  0.38259100  0.50905300  0.89920700  1
  O  3500  1  0.39603800  0.49715900  0.88210800  1
  O  3515  1  0.37186900  0.14852800  0.25793500  1
  O  3516  1  0.35920600  0.13057500  0.24644500  1
  O  3531  1  0.13458900  0.85795400  0.75793300  1
  O  3532  1  0.14725900  0.87590600  0.74644700  1
  O  3547  1  0.87188100  0.35794300  0.74853400  1
  O  3548  1  0.85920100  0.37589600  0.76000400  1
  O  3563  1  0.63457600  0.64854000  0.24851800  1
  O  3564  1  0.64725200  0.63058900  0.25999700  1
  O  3579  1  0.64852300  0.24851500  0.63457100  1
  O  3580  1  0.63057700  0.26000200  0.64724700  1
  O  3595  1  0.35794400  0.74852500  0.87184900  1
  O  3596  1  0.37589900  0.76001200  0.85918600  1
  O  3611  1  0.85793100  0.75793600  0.13458000  1
  O  3612  1  0.87588900  0.74646100  0.14724900  1
  O  3627  1  0.14851500  0.25793400  0.37186000  1
  O  3628  1  0.13056000  0.24646100  0.35918300  1
  O  3643  1  0.74851700  0.87187700  0.35792600  1
  O  3644  1  0.75999800  0.85920900  0.37588200  1
  O  3659  1  0.24850700  0.63455800  0.64852400  1
  O  3660  1  0.25997100  0.64724700  0.63057500  1
  O  3675  1  0.25793600  0.37188100  0.14853000  1
  O  3676  1  0.24645200  0.35919200  0.13059300  1
  O  3691  1  0.75794100  0.13460300  0.85791900  1
  O  3692  1  0.74645300  0.14726200  0.87587500  1
