# generated using pymatgen
data_H17C28(NO2)2
_symmetry_space_group_name_H-M   'P 1'
_cell_length_a   38.89890000
_cell_length_b   58.39486157
_cell_length_c   58.39137604
_cell_angle_alpha   83.63327894
_cell_angle_beta   70.54915022
_cell_angle_gamma   70.53946860
_symmetry_Int_Tables_number   1
_chemical_formula_structural   H17C28(NO2)2
_chemical_formula_sum   'H544 C896 N64 O128'
_cell_volume   117921.05025136
_cell_formula_units_Z   32
loop_
 _symmetry_equiv_pos_site_id
 _symmetry_equiv_pos_as_xyz
  1  'x, y, z'
loop_
 _atom_site_type_symbol
 _atom_site_label
 _atom_site_symmetry_multiplicity
 _atom_site_fract_x
 _atom_site_fract_y
 _atom_site_fract_z
 _atom_site_occupancy
  C  1  1  0.35441000  0.46780350  0.19957350  1
  C  2  1  0.34095800  0.49283200  0.19895300  1
  C  3  1  0.30837600  0.50082150  0.21921350  1
  C  5  1  0.33003200  0.45991600  0.22004200  1
  C  6  1  0.33373600  0.43518350  0.22642550  1
  C  7  1  0.30708500  0.42707200  0.24585600  1
  C  9  1  0.25549500  0.42707800  0.27768000  1
  C  10  1  0.27734450  0.40292600  0.27152200  1
  C  11  1  0.30932900  0.40292050  0.25197350  1
  C  12  1  0.22075800  0.43519600  0.29713000  1
  C  13  1  0.19978950  0.45992900  0.30354500  1
  C  15  1  0.18053700  0.50083400  0.30436300  1
  C  16  1  0.15601700  0.49285150  0.32466950  1
  C  17  1  0.16761550  0.46782200  0.32406600  1
  C  18  1  0.17789050  0.52556650  0.29873650  1
  C  19  1  0.20338250  0.53366900  0.27849700  1
  C  21  1  0.25260000  0.53366300  0.24501100  1
  C  22  1  0.23098650  0.55781750  0.25133750  1
  C  23  1  0.20077500  0.55782150  0.27212750  1
  C  24  1  0.28623950  0.52555200  0.22480000  1
  C  25  1  0.29629500  0.54342350  0.20766050  1
  C  26  1  0.27784700  0.55105750  0.18973950  1
  C  27  1  0.28766350  0.56832150  0.17230050  1
  C  28  1  0.31626900  0.57818600  0.17231700  1
  C  29  1  0.33444500  0.57077150  0.19041150  1
  C  30  1  0.32467100  0.55339450  0.20789950  1
  C  31  1  0.14995950  0.54344600  0.31586800  1
  C  32  1  0.11158950  0.55338000  0.31566100  1
  C  33  1  0.08443600  0.57076000  0.33314800  1
  C  34  1  0.09521850  0.57821900  0.35120800  1
  C  35  1  0.13371200  0.56839300  0.35119000  1
  C  36  1  0.16079400  0.55112150  0.33375550  1
  C  37  1  0.20629850  0.41718250  0.31166850  1
  C  38  1  0.21767650  0.40755250  0.33224750  1
  C  39  1  0.20150300  0.39083950  0.34739750  1
  C  40  1  0.17383000  0.38341250  0.34218350  1
  C  41  1  0.16287000  0.39285750  0.32140550  1
  C  42  1  0.17889300  0.40964750  0.30630050  1
  C  43  1  0.36620600  0.41716250  0.21189050  1
  C  44  1  0.40113500  0.40959550  0.21727750  1
  C  45  1  0.36447600  0.40756800  0.19128500  1
  C  46  1  0.39736250  0.39084450  0.17613950  1
  C  47  1  0.43245250  0.38338950  0.18136950  1
  C  48  1  0.43394700  0.39279300  0.20217600  1
  C  75  1  0.02048550  0.01115100  0.32399300  1
  C  76  1  0.03140700  0.98612400  0.32462200  1
  C  77  1  0.02718200  0.97813700  0.30432000  1
  C  79  1  0.00876500  0.01904150  0.30349450  1
  C  80  1  0.99412600  0.04377550  0.29711150  1
  C  81  1  0.97882250  0.05189150  0.27766650  1
  C  83  1  0.95904700  0.05189500  0.24584400  1
  C  84  1  0.95065150  0.07604650  0.25197750  1
  C  85  1  0.96308050  0.07604400  0.27153200  1
  C  86  1  0.95182000  0.04378400  0.22641300  1
  C  87  1  0.96188750  0.01905250  0.22003750  1
  C  89  1  0.98432350  0.97814650  0.21922850  1
  C  90  1  0.97207700  0.98613450  0.19893850  1
  C  91  1  0.95800250  0.01116250  0.19955750  1
  C  92  1  0.00080350  0.95341450  0.22484450  1
  C  93  1  0.01426250  0.94530500  0.24504500  1
  C  95  1  0.03006950  0.94530167  0.27850533  1
  C  96  1  0.03899750  0.92115000  0.27215200  1
  C  97  1  0.02951300  0.92115050  0.25138450  1
  C  98  1  0.03539600  0.95340700  0.29871600  1
  C  99  1  0.04616900  0.93553350  0.31586050  1
  C  100  1  0.01743150  0.92787100  0.33374400  1
  C  101  1  0.02705600  0.91060600  0.35118800  1
  C  102  1  0.06552750  0.90076600  0.35121500  1
  C  103  1  0.09438250  0.90821300  0.33316200  1
  C  104  1  0.08473750  0.92558900  0.31566700  1
  C  105  1  0.00795650  0.93554550  0.20768150  1
  C  106  1  0.97938650  0.92555550  0.20787450  1
  C  107  1  0.98716250  0.90818350  0.19036450  1
  C  108  1  0.02346200  0.90078200  0.17229900  1
  C  109  1  0.05203750  0.91067050  0.17232350  1
  C  110  1  0.04434900  0.92793400  0.18978200  1
  C  111  1  0.93388600  0.06180550  0.21187550  1
  C  112  1  0.95621950  0.07141450  0.19128750  1
  C  113  1  0.93848500  0.08813650  0.17613850  1
  C  114  1  0.89817050  0.09558250  0.18135550  1
  C  115  1  0.87587000  0.08615950  0.20214250  1
  C  116  1  0.89357400  0.06936550  0.21725150  1
  C  117  1  0.99404250  0.06179150  0.31165050  1
  C  118  1  0.02679900  0.06934250  0.30628150  1
  C  119  1  0.96208850  0.07141200  0.33223400  1
  C  120  1  0.96309550  0.08813750  0.34738250  1
  C  121  1  0.99597150  0.09557350  0.34217050  1
  C  122  1  0.02770500  0.08613700  0.32139100  1
  C  149  1  0.83258950  0.17719000  0.03342000  1
  C  150  1  0.84418000  0.17658400  0.00839100  1
  C  151  1  0.81965750  0.19689250  0.00040550  1
  C  153  1  0.80041750  0.19771450  0.04131150  1
  C  154  1  0.77945550  0.20413500  0.06604300  1
  C  155  1  0.74472100  0.22358850  0.07415950  1
  C  157  1  0.69313350  0.25542000  0.07416200  1
  C  158  1  0.69089150  0.24930100  0.09831400  1
  C  159  1  0.72287400  0.22974800  0.09831200  1
  C  160  1  0.66648350  0.27485400  0.06604800  1
  C  161  1  0.67018650  0.28123900  0.04131600  1
  C  163  1  0.69184050  0.28206800  0.00041100  1
  C  164  1  0.65926350  0.30233450  0.00839750  1
  C  165  1  0.64581200  0.30171300  0.03342600  1
  C  166  1  0.71397500  0.27647850  0.97568050  1
  C  167  1  0.74760450  0.25625850  0.96757250  1
  C  169  1  0.79680950  0.22275950  0.96756850  1
  C  170  1  0.79941400  0.22912950  0.94341550  1
  C  171  1  0.76921200  0.24992850  0.94341750  1
  C  172  1  0.82229800  0.20251550  0.97567350  1
  C  173  1  0.85022350  0.18537950  0.95779650  1
  C  174  1  0.83938550  0.16749250  0.95012550  1
  C  175  1  0.86646500  0.15005100  0.93286100  1
  C  176  1  0.90495850  0.15002800  0.92303500  1
  C  177  1  0.91574500  0.16808550  0.93048950  1
  C  178  1  0.88859400  0.18557900  0.94786300  1
  C  179  1  0.70393050  0.29362400  0.95780900  1
  C  180  1  0.67556200  0.29339750  0.94782350  1
  C  181  1  0.66580550  0.31089200  0.93044300  1
  C  182  1  0.68399100  0.32897850  0.92304050  1
  C  183  1  0.71258700  0.32898250  0.93292250  1
  C  184  1  0.72238650  0.31153850  0.95018950  1
  C  185  1  0.63401200  0.28939100  0.08406900  1
  C  186  1  0.63574200  0.30999200  0.09366900  1
  C  187  1  0.60285850  0.32513350  0.11039750  1
  C  188  1  0.56777200  0.31990250  0.11785150  1
  C  189  1  0.56627700  0.29910150  0.10844050  1
  C  190  1  0.59908700  0.28400450  0.09163350  1
  C  191  1  0.79391700  0.18959400  0.08405800  1
  C  192  1  0.82132000  0.19496000  0.09159800  1
  C  193  1  0.78253700  0.16901750  0.09368750  1
  C  194  1  0.79871300  0.15386600  0.11040200  1
  C  195  1  0.82638350  0.15907750  0.11783450  1
  C  196  1  0.83734400  0.17985150  0.10839050  1
  C  223  1  0.04224350  0.30169100  0.49007900  1
  C  224  1  0.02818850  0.30230650  0.51510750  1
  C  225  1  0.01594100  0.28201900  0.52309400  1
  C  227  1  0.03834600  0.28121800  0.48218900  1
  C  228  1  0.04839950  0.27484600  0.45745600  1
  C  229  1  0.04115750  0.25542300  0.44934400  1
  C  231  1  0.02136900  0.22361050  0.44934950  1
  C  232  1  0.03710400  0.22974500  0.42519700  1
  C  233  1  0.04954050  0.24929350  0.42519450  1
  C  234  1  0.00606300  0.20416950  0.45746650  1
  C  235  1  0.99143050  0.19778700  0.48220000  1
  C  237  1  0.97303500  0.19695700  0.52310300  1
  C  238  1  0.96880000  0.17666000  0.51511600  1
  C  239  1  0.97971000  0.17729100  0.49008900  1
  C  240  1  0.96484000  0.20255400  0.54783400  1
  C  241  1  0.97018200  0.22275417  0.55594383  1
  C  243  1  0.98601500  0.25620350  0.55593650  1
  C  244  1  0.97078050  0.24986100  0.58009000  1
  C  245  1  0.96128050  0.22910100  0.58009300  1
  C  246  1  0.99948000  0.27639900  0.54782800  1
  C  247  1  0.99236900  0.29354900  0.56569800  1
  C  248  1  0.95598650  0.31145900  0.57332800  1
  C  249  1  0.94834200  0.32890600  0.59059100  1
  C  250  1  0.97695400  0.32891200  0.60045900  1
  C  251  1  0.01324000  0.31083550  0.59304150  1
  C  252  1  0.02097350  0.29333450  0.57566950  1
  C  253  1  0.95408550  0.18540600  0.56570600  1
  C  254  1  0.91552100  0.18559800  0.57565800  1
  C  255  1  0.90589400  0.16809850  0.59303050  1
  C  256  1  0.93476600  0.15004250  0.60046550  1
  C  257  1  0.97323200  0.15006950  0.59061850  1
  C  258  1  0.98283850  0.16751800  0.57335500  1
  C  259  1  0.00615150  0.18962800  0.43944900  1
  C  260  1  0.03810750  0.16904350  0.42983250  1
  C  261  1  0.03710200  0.15389050  0.41311150  1
  C  262  1  0.00422300  0.15910000  0.40567400  1
  C  263  1  0.97248650  0.17988150  0.41510450  1
  C  264  1  0.97339150  0.19499500  0.43189600  1
  C  265  1  0.06633100  0.28938100  0.43943600  1
  C  266  1  0.10664400  0.28400100  0.43187800  1
  C  267  1  0.04399450  0.30997450  0.42982850  1
  C  268  1  0.06172700  0.32512250  0.41311050  1
  C  269  1  0.10204600  0.31990000  0.40566600  1
  C  270  1  0.12434650  0.29910900  0.41508800  1
  C  593  1  0.64595000  0.51116800  0.82393600  1
  C  594  1  0.65940500  0.48614050  0.82456350  1
  C  595  1  0.69199250  0.47814800  0.80430700  1
  C  597  1  0.67033200  0.51905350  0.80346750  1
  C  598  1  0.66662850  0.54378500  0.79708100  1
  C  599  1  0.69328150  0.55189450  0.77764950  1
  C  601  1  0.74487200  0.55188500  0.74582400  1
  C  602  1  0.72302650  0.57603800  0.75198100  1
  C  603  1  0.69104150  0.57604400  0.77153100  1
  C  604  1  0.77960700  0.54376350  0.72637250  1
  C  605  1  0.80057000  0.51903000  0.71995800  1
  C  607  1  0.81981400  0.47812500  0.71914200  1
  C  608  1  0.84433300  0.48610550  0.69883350  1
  C  609  1  0.83274150  0.51113450  0.69943650  1
  C  610  1  0.82245650  0.45339350  0.72477050  1
  C  611  1  0.79697000  0.44529450  0.74501450  1
  C  613  1  0.74776650  0.44530067  0.77851433  1
  C  614  1  0.76937400  0.42114900  0.77218600  1
  C  615  1  0.79957550  0.42114200  0.75138700  1
  C  616  1  0.71413900  0.45341650  0.79873050  1
  C  617  1  0.70407000  0.43554700  0.81586500  1
  C  618  1  0.72250950  0.42791050  0.83379050  1
  C  619  1  0.71267900  0.41065050  0.85123050  1
  C  620  1  0.68406800  0.40079150  0.85120950  1
  C  621  1  0.66590150  0.40820850  0.83311150  1
  C  622  1  0.67568800  0.42558350  0.81562250  1
  C  623  1  0.85038000  0.43551400  0.70763700  1
  C  624  1  0.88875150  0.42557650  0.70783950  1
  C  625  1  0.91590100  0.40819950  0.69034750  1
  C  626  1  0.90510950  0.40074500  0.67229100  1
  C  627  1  0.86661450  0.41057600  0.67231100  1
  C  628  1  0.83953700  0.42784350  0.68975150  1
  C  629  1  0.79407000  0.56177500  0.71183500  1
  C  630  1  0.78269150  0.57140700  0.69125600  1
  C  631  1  0.79887150  0.58811750  0.67610450  1
  C  632  1  0.82654600  0.59554200  0.68131900  1
  C  633  1  0.83750600  0.58609550  0.70209650  1
  C  634  1  0.82147800  0.56930800  0.71720300  1
  C  635  1  0.63415950  0.56180750  0.81161550  1
  C  636  1  0.59923100  0.56937600  0.80622700  1
  C  637  1  0.63588850  0.57140100  0.83222000  1
  C  638  1  0.60300450  0.58812600  0.84736500  1
  C  639  1  0.56791500  0.59558200  0.84213400  1
  C  640  1  0.56641900  0.58617900  0.82132800  1
  C  667  1  0.97987600  0.96781650  0.69950150  1
  C  668  1  0.96895000  0.99284400  0.69887400  1
  C  669  1  0.97318450  0.00083000  0.71917400  1
  C  671  1  0.99160850  0.95992650  0.71999550  1
  C  672  1  0.00625500  0.93519250  0.72637550  1
  C  673  1  0.02156550  0.92707650  0.74581750  1
  C  675  1  0.04134150  0.92707100  0.77764000  1
  C  676  1  0.04974850  0.90292100  0.77150100  1
  C  677  1  0.03732000  0.90292300  0.75194800  1
  C  678  1  0.04856150  0.93518400  0.79707300  1
  C  679  1  0.03847500  0.95991500  0.80345600  1
  C  681  1  0.01603700  0.00082050  0.80426650  1
  C  682  1  0.02828300  0.99283300  0.82455700  1
  C  683  1  0.04234050  0.96780400  0.82394300  1
  C  684  1  0.99956450  0.02555350  0.79864850  1
  C  685  1  0.98611000  0.03366300  0.77844500  1
  C  687  1  0.97030000  0.03366600  0.74498700  1
  C  688  1  0.96138000  0.05781950  0.75133550  1
  C  689  1  0.97086450  0.05781650  0.77210350  1
  C  690  1  0.96497050  0.02556100  0.72477700  1
  C  691  1  0.95419250  0.04343500  0.70763400  1
  C  692  1  0.98292800  0.05109200  0.68974400  1
  C  693  1  0.97329750  0.06835750  0.67230150  1
  C  694  1  0.93482300  0.07820250  0.67228250  1
  C  695  1  0.90597050  0.07075900  0.69034100  1
  C  696  1  0.91562100  0.05338200  0.70783400  1
  C  697  1  0.99241400  0.04342150  0.81581050  1
  C  698  1  0.02098700  0.05340950  0.81561750  1
  C  699  1  0.01320950  0.07078200  0.83312800  1
  C  700  1  0.97691050  0.07818400  0.85119400  1
  C  701  1  0.94833200  0.06830050  0.85116650  1
  C  702  1  0.95601900  0.05103550  0.83370950  1
  C  703  1  0.06649550  0.91716300  0.81161100  1
  C  704  1  0.04416000  0.90755400  0.83220000  1
  C  705  1  0.06189700  0.89083150  0.84734850  1
  C  706  1  0.10221250  0.88338550  0.84213150  1
  C  707  1  0.12451100  0.89281050  0.82134550  1
  C  708  1  0.10680700  0.90960450  0.80623550  1
  C  709  1  0.00634100  0.91717600  0.71183500  1
  C  710  1  0.97358500  0.90962300  0.71720500  1
  C  711  1  0.03829400  0.90755600  0.69125000  1
  C  712  1  0.03728750  0.89083000  0.67610400  1
  C  713  1  0.00441300  0.88339100  0.68131900  1
  C  714  1  0.97268100  0.89282400  0.70210000  1
  C  741  1  0.16777800  0.80178400  0.99006900  1
  C  742  1  0.15617400  0.80238600  0.01509900  1
  C  743  1  0.18068500  0.78207450  0.02308650  1
  C  745  1  0.19994700  0.78125850  0.98218050  1
  C  746  1  0.22091650  0.77483900  0.95745000  1
  C  747  1  0.25565150  0.75538400  0.94933600  1
  C  749  1  0.30723600  0.72355300  0.94934000  1
  C  750  1  0.30948550  0.72967000  0.92518800  1
  C  751  1  0.27750350  0.74922450  0.92518650  1
  C  752  1  0.33388150  0.70411800  0.95745700  1
  C  753  1  0.33016850  0.69773150  0.98218950  1
  C  755  1  0.30849300  0.69689500  0.02309500  1
  C  756  1  0.34107750  0.67663300  0.01510900  1
  C  757  1  0.35454250  0.67725800  0.99008100  1
  C  758  1  0.28633900  0.70247500  0.04782500  1
  C  759  1  0.25271250  0.72270167  0.05592633  1
  C  761  1  0.20351200  0.75619850  0.05592750  1
  C  762  1  0.20089850  0.74982800  0.08008200  1
  C  763  1  0.23109950  0.72902900  0.08008200  1
  C  764  1  0.17802400  0.77644000  0.04782000  1
  C  765  1  0.15010450  0.79358150  0.06569450  1
  C  766  1  0.16095250  0.81146350  0.07336650  1
  C  767  1  0.13387850  0.82890750  0.09063050  1
  C  768  1  0.09537950  0.82894000  0.10045500  1
  C  769  1  0.08458550  0.81088550  0.09300150  1
  C  770  1  0.11173000  0.79338900  0.07562900  1
  C  771  1  0.29639050  0.68533600  0.06569600  1
  C  772  1  0.32476050  0.68556750  0.07567750  1
  C  773  1  0.33451750  0.66808050  0.09306350  1
  C  774  1  0.31633200  0.64999400  0.10047500  1
  C  775  1  0.28772850  0.64998750  0.09059950  1
  C  776  1  0.27792850  0.66742350  0.07332850  1
  C  777  1  0.36635450  0.68957950  0.93943850  1
  C  778  1  0.36462700  0.66897950  0.92983750  1
  C  779  1  0.39750950  0.65383700  0.91311000  1
  C  780  1  0.43259650  0.65906800  0.90565600  1
  C  781  1  0.43409000  0.67987000  0.91506800  1
  C  782  1  0.40128050  0.69496700  0.93187400  1
  C  783  1  0.20646200  0.78937850  0.93943150  1
  C  784  1  0.17905900  0.78401300  0.93189100  1
  C  785  1  0.21784250  0.80995400  0.92980200  1
  C  786  1  0.20166900  0.82510500  0.91308700  1
  C  787  1  0.17399950  0.81989450  0.90565350  1
  C  788  1  0.16303700  0.79912000  0.91509700  1
  C  815  1  0.95814350  0.67725800  0.53342200  1
  C  816  1  0.97219100  0.67664750  0.50839250  1
  C  817  1  0.98442950  0.69693850  0.50040650  1
  C  819  1  0.96203850  0.69773300  0.54131300  1
  C  820  1  0.95198750  0.70410250  0.56604550  1
  C  821  1  0.95923100  0.72352450  0.57415750  1
  C  823  1  0.97901800  0.75533750  0.57415250  1
  C  824  1  0.96328250  0.74920300  0.59830600  1
  C  825  1  0.95084800  0.72965450  0.59830850  1
  C  826  1  0.99432250  0.77477900  0.56603700  1
  C  827  1  0.00895150  0.78116350  0.54130450  1
  C  829  1  0.02733700  0.78199850  0.50040050  1
  C  830  1  0.03157600  0.80229500  0.50838800  1
  C  831  1  0.02067450  0.80165900  0.53341600  1
  C  832  1  0.03551950  0.77640750  0.47566950  1
  C  833  1  0.03017200  0.75620550  0.46756550  1
  C  835  1  0.01433950  0.72276100  0.46756600  1
  C  836  1  0.02955900  0.72910950  0.44341250  1
  C  837  1  0.03905900  0.74986850  0.44341150  1
  C  838  1  0.00087800  0.70256350  0.47567450  1
  C  839  1  0.00798200  0.68541800  0.45780000  1
  C  840  1  0.04436850  0.66751300  0.45015600  1
  C  841  1  0.05200600  0.65007300  0.43288800  1
  C  842  1  0.02338450  0.65006650  0.42303150  1
  C  843  1  0.98709300  0.66813750  0.43046450  1
  C  844  1  0.97936650  0.68563250  0.44783950  1
  C  845  1  0.04626500  0.79355900  0.45780100  1
  C  846  1  0.08483000  0.79336750  0.44784150  1
  C  847  1  0.09444750  0.81087050  0.43046950  1
  C  848  1  0.06557000  0.82892650  0.42303950  1
  C  849  1  0.02710350  0.82890000  0.43289600  1
  C  850  1  0.01750650  0.81144950  0.45015750  1
  C  851  1  0.99423500  0.78932000  0.58405500  1
  C  852  1  0.96227900  0.80990550  0.59367050  1
  C  853  1  0.96328400  0.82505800  0.61039100  1
  C  854  1  0.99616300  0.81985200  0.61782600  1
  C  855  1  0.02790050  0.79906950  0.60839650  1
  C  856  1  0.02699450  0.78395550  0.59160650  1
  C  857  1  0.93405600  0.68956650  0.58406550  1
  C  858  1  0.89374300  0.69494850  0.59162350  1
  C  859  1  0.95639150  0.66897450  0.59367350  1
  C  860  1  0.93865850  0.65382600  0.61039200  1
  C  861  1  0.89834050  0.65904850  0.61783550  1
  C  862  1  0.87604150  0.67983950  0.60841250  1
  C  1185  1  0.46608550  0.36741050  0.16551050  1
  C  1186  1  0.48354550  0.34388800  0.17335800  1
  C  1187  1  0.51670250  0.32789900  0.15736100  1
  C  1188  1  0.53414300  0.33575600  0.13383900  1
  C  1189  1  0.51729650  0.35953400  0.12624000  1
  C  1190  1  0.48291600  0.37501950  0.14173450  1
  C  1199  1  0.99775000  0.11156100  0.35802800  1
  C  1200  1  0.99951650  0.13508600  0.35017200  1
  C  1201  1  0.00067300  0.15108250  0.36616550  1
  C  1202  1  0.00244800  0.14323600  0.38969100  1
  C  1203  1  0.00179550  0.11945950  0.39729650  1
  C  1204  1  0.99841600  0.10396200  0.38180500  1
  C  1213  1  0.84402350  0.14322250  0.13382250  1
  C  1214  1  0.83795000  0.15108250  0.15734350  1
  C  1215  1  0.85509850  0.13508800  0.17334200  1
  C  1216  1  0.88040200  0.11156350  0.16549450  1
  C  1217  1  0.88734150  0.10395500  0.14171900  1
  C  1218  1  0.86846700  0.11944500  0.12622200  1
  C  1227  1  0.11981300  0.33575900  0.38968800  1
  C  1228  1  0.14511450  0.32791100  0.36616400  1
  C  1229  1  0.16226650  0.34390650  0.35017450  1
  C  1230  1  0.15619200  0.36742650  0.35803550  1
  C  1231  1  0.13174750  0.37502750  0.38181150  1
  C  1232  1  0.11286900  0.35953450  0.39729850  1
  C  1241  1  0.53428150  0.61155950  0.85799450  1
  C  1242  1  0.51682000  0.63508400  0.85014900  1
  C  1243  1  0.48366400  0.65107300  0.86614600  1
  C  1244  1  0.46622550  0.64321500  0.88966700  1
  C  1245  1  0.48307200  0.61943700  0.89726500  1
  C  1246  1  0.51745150  0.60395200  0.88177000  1
  C  1255  1  0.00263900  0.86739800  0.66546400  1
  C  1256  1  0.00087550  0.84387450  0.67332150  1
  C  1257  1  0.99971850  0.82787350  0.65733150  1
  C  1258  1  0.99794100  0.83571650  0.63380650  1
  C  1259  1  0.99859150  0.85949400  0.62619700  1
  C  1260  1  0.00197000  0.87499500  0.64168700  1
  C  1269  1  0.15636100  0.83574800  0.88966500  1
  C  1270  1  0.16243250  0.82788800  0.86614400  1
  C  1271  1  0.14528400  0.84388150  0.85014450  1
  C  1272  1  0.11997950  0.86740650  0.85799250  1
  C  1273  1  0.11304100  0.87501550  0.88176750  1
  C  1274  1  0.13191500  0.85952650  0.89726550  1
  C  1283  1  0.88057250  0.64319050  0.63381450  1
  C  1284  1  0.85526800  0.65104200  0.65733700  1
  C  1285  1  0.83811350  0.63504700  0.67332700  1
  C  1286  1  0.84418700  0.61152650  0.66546750  1
  C  1287  1  0.86863350  0.60392350  0.64169050  1
  C  1288  1  0.88751400  0.61941550  0.62620450  1
  C  1409  1  0.32485000  0.63234700  0.11820600  1
  C  1410  1  0.34151850  0.60748600  0.11167300  1
  C  1411  1  0.34150200  0.58936150  0.12980450  1
  C  1412  1  0.32481600  0.59590350  0.15466250  1
  C  1413  1  0.31022450  0.62076100  0.16120400  1
  C  1414  1  0.31024850  0.63889450  0.14306050  1
  C  1423  1  0.07413500  0.84659600  0.40532900  1
  C  1424  1  0.05935750  0.87145700  0.41186200  1
  C  1425  1  0.05934650  0.88958650  0.39373450  1
  C  1426  1  0.07412000  0.88305050  0.36887450  1
  C  1427  1  0.09098650  0.85819600  0.36233300  1
  C  1428  1  0.09098050  0.84005650  0.38047150  1
  C  1437  1  0.96773600  0.09590550  0.86886050  1
  C  1438  1  0.95948350  0.08937650  0.89372250  1
  C  1439  1  0.94132700  0.10750850  0.91185050  1
  C  1440  1  0.93122100  0.13237000  0.90532000  1
  C  1441  1  0.94155250  0.13890350  0.88046350  1
  C  1442  1  0.95971550  0.12076150  0.86232450  1
  C  1451  1  0.93136750  0.38302750  0.65463450  1
  C  1452  1  0.94148450  0.38956050  0.62977450  1
  C  1453  1  0.95961450  0.37143200  0.61164400  1
  C  1454  1  0.96782100  0.34657300  0.61817600  1
  C  1455  1  0.95978900  0.34003100  0.64303300  1
  C  1456  1  0.94165300  0.35817050  0.66117350  1
  C  1465  1  0.67550400  0.38308100  0.86886900  1
  C  1466  1  0.65880800  0.38962300  0.89372400  1
  C  1467  1  0.65878800  0.37149700  0.91185500  1
  C  1468  1  0.67546350  0.34663900  0.90532100  1
  C  1469  1  0.69007650  0.34008750  0.88046550  1
  C  1470  1  0.69009600  0.35822550  0.86232350  1
  C  1479  1  0.92622500  0.09591700  0.65462300  1
  C  1480  1  0.94097900  0.08938550  0.62976250  1
  C  1481  1  0.94096300  0.10751650  0.61163650  1
  C  1482  1  0.92619500  0.13237550  0.61817750  1
  C  1483  1  0.90935950  0.13891500  0.64303400  1
  C  1484  1  0.90937350  0.12077200  0.66117100  1
  C  1493  1  0.03250750  0.63241750  0.40530450  1
  C  1494  1  0.04072900  0.60755550  0.41183950  1
  C  1495  1  0.05885600  0.58942350  0.39371250  1
  C  1496  1  0.06896000  0.59595050  0.36884950  1
  C  1497  1  0.05866100  0.62080350  0.36231150  1
  C  1498  1  0.04053300  0.63894700  0.38044700  1
  C  1507  1  0.06912750  0.84659250  0.11817750  1
  C  1508  1  0.05903650  0.87145300  0.11164100  1
  C  1509  1  0.04089050  0.88958400  0.12976800  1
  C  1510  1  0.03263600  0.88306200  0.15463200  1
  C  1511  1  0.04065600  0.85820400  0.16117000  1
  C  1512  1  0.05879250  0.84006050  0.14303250  1
  C  1633  1  0.14874885  0.46780350  0.19957350  1
  C  1634  1  0.13529685  0.49283200  0.19895300  1
  C  1635  1  0.10271485  0.50082150  0.21921350  1
  C  1637  1  0.12437085  0.45991600  0.22004200  1
  C  1638  1  0.12807485  0.43518350  0.22642550  1
  C  1639  1  0.10142385  0.42707200  0.24585600  1
  C  1641  1  0.04983385  0.42707800  0.27768000  1
  C  1642  1  0.07168335  0.40292600  0.27152200  1
  C  1643  1  0.10366785  0.40292050  0.25197350  1
  C  1644  1  0.01509700  0.43519600  0.29713000  1
  C  1645  1  0.99412850  0.45992900  0.30354500  1
  C  1647  1  0.97487600  0.50083400  0.30436300  1
  C  1648  1  0.95035600  0.49285150  0.32466950  1
  C  1649  1  0.96195450  0.46782200  0.32406600  1
  C  1650  1  0.97222950  0.52556650  0.29873650  1
  C  1651  1  0.99772135  0.53366900  0.27849700  1
  C  1653  1  0.04693885  0.53366300  0.24501100  1
  C  1654  1  0.02532535  0.55781750  0.25133750  1
  C  1655  1  0.99511385  0.55782150  0.27212750  1
  C  1656  1  0.08057835  0.52555200  0.22480000  1
  C  1657  1  0.09063385  0.54342350  0.20766050  1
  C  1658  1  0.07218585  0.55105750  0.18973950  1
  C  1659  1  0.08200235  0.56832150  0.17230050  1
  C  1660  1  0.11060785  0.57818600  0.17231700  1
  C  1661  1  0.12878400  0.57077150  0.19041150  1
  C  1662  1  0.11900983  0.55339450  0.20789950  1
  C  1663  1  0.94429850  0.54344600  0.31586800  1
  C  1664  1  0.90592850  0.55338000  0.31566100  1
  C  1665  1  0.87877500  0.57076000  0.33314800  1
  C  1666  1  0.88955750  0.57821900  0.35120800  1
  C  1667  1  0.92805100  0.56839300  0.35119000  1
  C  1668  1  0.95513300  0.55112150  0.33375550  1
  C  1669  1  0.00063750  0.41718250  0.31166850  1
  C  1670  1  0.01201550  0.40755250  0.33224750  1
  C  1671  1  0.99584200  0.39083950  0.34739750  1
  C  1672  1  0.96816900  0.38341250  0.34218350  1
  C  1673  1  0.95720900  0.39285750  0.32140550  1
  C  1674  1  0.97323200  0.40964750  0.30630050  1
  C  1675  1  0.16054485  0.41716250  0.21189050  1
  C  1676  1  0.19547400  0.40959550  0.21727750  1
  C  1677  1  0.15881485  0.40756800  0.19128500  1
  C  1678  1  0.19170135  0.39084450  0.17613950  1
  C  1679  1  0.22679150  0.38338950  0.18136950  1
  C  1680  1  0.22828600  0.39279300  0.20217600  1
  C  1707  1  0.81482435  0.01115100  0.32399300  1
  C  1708  1  0.82574585  0.98612400  0.32462200  1
  C  1709  1  0.82152085  0.97813700  0.30432000  1
  C  1711  1  0.80310385  0.01904150  0.30349450  1
  C  1712  1  0.78846485  0.04377550  0.29711150  1
  C  1713  1  0.77316135  0.05189150  0.27766650  1
  C  1715  1  0.75338585  0.05189500  0.24584400  1
  C  1716  1  0.74499035  0.07604650  0.25197750  1
  C  1717  1  0.75741935  0.07604400  0.27153200  1
  C  1718  1  0.74615900  0.04378400  0.22641300  1
  C  1719  1  0.75622650  0.01905250  0.22003750  1
  C  1721  1  0.77866250  0.97814650  0.21922850  1
  C  1722  1  0.76641600  0.98613450  0.19893850  1
  C  1723  1  0.75234150  0.01116250  0.19955750  1
  C  1724  1  0.79514250  0.95341450  0.22484450  1
  C  1725  1  0.80860135  0.94530500  0.24504500  1
  C  1727  1  0.82440835  0.94530167  0.27850533  1
  C  1728  1  0.83333635  0.92115000  0.27215200  1
  C  1729  1  0.82385185  0.92115050  0.25138450  1
  C  1730  1  0.82973485  0.95340700  0.29871600  1
  C  1731  1  0.84050785  0.93553350  0.31586050  1
  C  1732  1  0.81177035  0.92787100  0.33374400  1
  C  1733  1  0.82139485  0.91060600  0.35118800  1
  C  1734  1  0.85986635  0.90076600  0.35121500  1
  C  1735  1  0.88872150  0.90821300  0.33316200  1
  C  1736  1  0.87907633  0.92558900  0.31566700  1
  C  1737  1  0.80229550  0.93554550  0.20768150  1
  C  1738  1  0.77372550  0.92555550  0.20787450  1
  C  1739  1  0.78150150  0.90818350  0.19036450  1
  C  1740  1  0.81780100  0.90078200  0.17229900  1
  C  1741  1  0.84637650  0.91067050  0.17232350  1
  C  1742  1  0.83868800  0.92793400  0.18978200  1
  C  1743  1  0.72822500  0.06180550  0.21187550  1
  C  1744  1  0.75055850  0.07141450  0.19128750  1
  C  1745  1  0.73282400  0.08813650  0.17613850  1
  C  1746  1  0.69250950  0.09558250  0.18135550  1
  C  1747  1  0.67020900  0.08615950  0.20214250  1
  C  1748  1  0.68791300  0.06936550  0.21725150  1
  C  1749  1  0.78838135  0.06179150  0.31165050  1
  C  1750  1  0.82113800  0.06934250  0.30628150  1
  C  1751  1  0.75642735  0.07141200  0.33223400  1
  C  1752  1  0.75743435  0.08813750  0.34738250  1
  C  1753  1  0.79031050  0.09557350  0.34217050  1
  C  1754  1  0.82204400  0.08613700  0.32139100  1
  C  1781  1  0.62692850  0.17719000  0.03342000  1
  C  1782  1  0.63851900  0.17658400  0.00839100  1
  C  1783  1  0.61399650  0.19689250  0.00040550  1
  C  1785  1  0.59475650  0.19771450  0.04131150  1
  C  1786  1  0.57379450  0.20413500  0.06604300  1
  C  1787  1  0.53906000  0.22358850  0.07415950  1
  C  1789  1  0.48747250  0.25542000  0.07416200  1
  C  1790  1  0.48523050  0.24930100  0.09831400  1
  C  1791  1  0.51721300  0.22974800  0.09831200  1
  C  1792  1  0.46082250  0.27485400  0.06604800  1
  C  1793  1  0.46452550  0.28123900  0.04131600  1
  C  1795  1  0.48617950  0.28206800  0.00041100  1
  C  1796  1  0.45360250  0.30233450  0.00839750  1
  C  1797  1  0.44015100  0.30171300  0.03342600  1
  C  1798  1  0.50831400  0.27647850  0.97568050  1
  C  1799  1  0.54194350  0.25625850  0.96757250  1
  C  1801  1  0.59114850  0.22275950  0.96756850  1
  C  1802  1  0.59375300  0.22912950  0.94341550  1
  C  1803  1  0.56355100  0.24992850  0.94341750  1
  C  1804  1  0.61663700  0.20251550  0.97567350  1
  C  1805  1  0.64456250  0.18537950  0.95779650  1
  C  1806  1  0.63372450  0.16749250  0.95012550  1
  C  1807  1  0.66080400  0.15005100  0.93286100  1
  C  1808  1  0.69929750  0.15002800  0.92303500  1
  C  1809  1  0.71008400  0.16808550  0.93048950  1
  C  1810  1  0.68293300  0.18557900  0.94786300  1
  C  1811  1  0.49826950  0.29362400  0.95780900  1
  C  1812  1  0.46990100  0.29339750  0.94782350  1
  C  1813  1  0.46014450  0.31089200  0.93044300  1
  C  1814  1  0.47833000  0.32897850  0.92304050  1
  C  1815  1  0.50692600  0.32898250  0.93292250  1
  C  1816  1  0.51672550  0.31153850  0.95018950  1
  C  1817  1  0.42835100  0.28939100  0.08406900  1
  C  1818  1  0.43008100  0.30999200  0.09366900  1
  C  1819  1  0.39719750  0.32513350  0.11039750  1
  C  1820  1  0.36211100  0.31990250  0.11785150  1
  C  1821  1  0.36061600  0.29910150  0.10844050  1
  C  1822  1  0.39342600  0.28400450  0.09163350  1
  C  1823  1  0.58825600  0.18959400  0.08405800  1
  C  1824  1  0.61565900  0.19496000  0.09159800  1
  C  1825  1  0.57687600  0.16901750  0.09368750  1
  C  1826  1  0.59305200  0.15386600  0.11040200  1
  C  1827  1  0.62072250  0.15907750  0.11783450  1
  C  1828  1  0.63168300  0.17985150  0.10839050  1
  C  1855  1  0.83658250  0.30169100  0.49007900  1
  C  1856  1  0.82252750  0.30230650  0.51510750  1
  C  1857  1  0.81028000  0.28201900  0.52309400  1
  C  1859  1  0.83268500  0.28121800  0.48218900  1
  C  1860  1  0.84273850  0.27484600  0.45745600  1
  C  1861  1  0.83549650  0.25542300  0.44934400  1
  C  1863  1  0.81570800  0.22361050  0.44934950  1
  C  1864  1  0.83144300  0.22974500  0.42519700  1
  C  1865  1  0.84387950  0.24929350  0.42519450  1
  C  1866  1  0.80040200  0.20416950  0.45746650  1
  C  1867  1  0.78576950  0.19778700  0.48220000  1
  C  1869  1  0.76737400  0.19695700  0.52310300  1
  C  1870  1  0.76313900  0.17666000  0.51511600  1
  C  1871  1  0.77404900  0.17729100  0.49008900  1
  C  1872  1  0.75917900  0.20255400  0.54783400  1
  C  1873  1  0.76452100  0.22275417  0.55594383  1
  C  1875  1  0.78035400  0.25620350  0.55593650  1
  C  1876  1  0.76511950  0.24986100  0.58009000  1
  C  1877  1  0.75561950  0.22910100  0.58009300  1
  C  1878  1  0.79381900  0.27639900  0.54782800  1
  C  1879  1  0.78670800  0.29354900  0.56569800  1
  C  1880  1  0.75032550  0.31145900  0.57332800  1
  C  1881  1  0.74268100  0.32890600  0.59059100  1
  C  1882  1  0.77129300  0.32891200  0.60045900  1
  C  1883  1  0.80757900  0.31083550  0.59304150  1
  C  1884  1  0.81531250  0.29333450  0.57566950  1
  C  1885  1  0.74842450  0.18540600  0.56570600  1
  C  1886  1  0.70986000  0.18559800  0.57565800  1
  C  1887  1  0.70023300  0.16809850  0.59303050  1
  C  1888  1  0.72910500  0.15004250  0.60046550  1
  C  1889  1  0.76757100  0.15006950  0.59061850  1
  C  1890  1  0.77717750  0.16751800  0.57335500  1
  C  1891  1  0.80049050  0.18962800  0.43944900  1
  C  1892  1  0.83244650  0.16904350  0.42983250  1
  C  1893  1  0.83144100  0.15389050  0.41311150  1
  C  1894  1  0.79856200  0.15910000  0.40567400  1
  C  1895  1  0.76682550  0.17988150  0.41510450  1
  C  1896  1  0.76773050  0.19499500  0.43189600  1
  C  1897  1  0.86067000  0.28938100  0.43943600  1
  C  1898  1  0.90098300  0.28400100  0.43187800  1
  C  1899  1  0.83833350  0.30997450  0.42982850  1
  C  1900  1  0.85606600  0.32512250  0.41311050  1
  C  1901  1  0.89638500  0.31990000  0.40566600  1
  C  1902  1  0.91868550  0.29910900  0.41508800  1
  C  2225  1  0.44028900  0.51116800  0.82393600  1
  C  2226  1  0.45374400  0.48614050  0.82456350  1
  C  2227  1  0.48633150  0.47814800  0.80430700  1
  C  2229  1  0.46467100  0.51905350  0.80346750  1
  C  2230  1  0.46096750  0.54378500  0.79708100  1
  C  2231  1  0.48762050  0.55189450  0.77764950  1
  C  2233  1  0.53921100  0.55188500  0.74582400  1
  C  2234  1  0.51736550  0.57603800  0.75198100  1
  C  2235  1  0.48538050  0.57604400  0.77153100  1
  C  2236  1  0.57394600  0.54376350  0.72637250  1
  C  2237  1  0.59490900  0.51903000  0.71995800  1
  C  2239  1  0.61415300  0.47812500  0.71914200  1
  C  2240  1  0.63867200  0.48610550  0.69883350  1
  C  2241  1  0.62708050  0.51113450  0.69943650  1
  C  2242  1  0.61679550  0.45339350  0.72477050  1
  C  2243  1  0.59130900  0.44529450  0.74501450  1
  C  2245  1  0.54210550  0.44530067  0.77851433  1
  C  2246  1  0.56371300  0.42114900  0.77218600  1
  C  2247  1  0.59391450  0.42114200  0.75138700  1
  C  2248  1  0.50847800  0.45341650  0.79873050  1
  C  2249  1  0.49840900  0.43554700  0.81586500  1
  C  2250  1  0.51684850  0.42791050  0.83379050  1
  C  2251  1  0.50701800  0.41065050  0.85123050  1
  C  2252  1  0.47840700  0.40079150  0.85120950  1
  C  2253  1  0.46024050  0.40820850  0.83311150  1
  C  2254  1  0.47002700  0.42558350  0.81562250  1
  C  2255  1  0.64471900  0.43551400  0.70763700  1
  C  2256  1  0.68309050  0.42557650  0.70783950  1
  C  2257  1  0.71024000  0.40819950  0.69034750  1
  C  2258  1  0.69944850  0.40074500  0.67229100  1
  C  2259  1  0.66095350  0.41057600  0.67231100  1
  C  2260  1  0.63387600  0.42784350  0.68975150  1
  C  2261  1  0.58840900  0.56177500  0.71183500  1
  C  2262  1  0.57703050  0.57140700  0.69125600  1
  C  2263  1  0.59321050  0.58811750  0.67610450  1
  C  2264  1  0.62088500  0.59554200  0.68131900  1
  C  2265  1  0.63184500  0.58609550  0.70209650  1
  C  2266  1  0.61581700  0.56930800  0.71720300  1
  C  2267  1  0.42849850  0.56180750  0.81161550  1
  C  2268  1  0.39357000  0.56937600  0.80622700  1
  C  2269  1  0.43022750  0.57140100  0.83222000  1
  C  2270  1  0.39734350  0.58812600  0.84736500  1
  C  2271  1  0.36225400  0.59558200  0.84213400  1
  C  2272  1  0.36075800  0.58617900  0.82132800  1
  C  2299  1  0.77421500  0.96781650  0.69950150  1
  C  2300  1  0.76328900  0.99284400  0.69887400  1
  C  2301  1  0.76752350  0.00083000  0.71917400  1
  C  2303  1  0.78594750  0.95992650  0.71999550  1
  C  2304  1  0.80059400  0.93519250  0.72637550  1
  C  2305  1  0.81590450  0.92707650  0.74581750  1
  C  2307  1  0.83568050  0.92707100  0.77764000  1
  C  2308  1  0.84408750  0.90292100  0.77150100  1
  C  2309  1  0.83165900  0.90292300  0.75194800  1
  C  2310  1  0.84290050  0.93518400  0.79707300  1
  C  2311  1  0.83281400  0.95991500  0.80345600  1
  C  2313  1  0.81037600  0.00082050  0.80426650  1
  C  2314  1  0.82262200  0.99283300  0.82455700  1
  C  2315  1  0.83667950  0.96780400  0.82394300  1
  C  2316  1  0.79390350  0.02555350  0.79864850  1
  C  2317  1  0.78044900  0.03366300  0.77844500  1
  C  2319  1  0.76463900  0.03366600  0.74498700  1
  C  2320  1  0.75571900  0.05781950  0.75133550  1
  C  2321  1  0.76520350  0.05781650  0.77210350  1
  C  2322  1  0.75930950  0.02556100  0.72477700  1
  C  2323  1  0.74853150  0.04343500  0.70763400  1
  C  2324  1  0.77726700  0.05109200  0.68974400  1
  C  2325  1  0.76763650  0.06835750  0.67230150  1
  C  2326  1  0.72916200  0.07820250  0.67228250  1
  C  2327  1  0.70030950  0.07075900  0.69034100  1
  C  2328  1  0.70996000  0.05338200  0.70783400  1
  C  2329  1  0.78675300  0.04342150  0.81581050  1
  C  2330  1  0.81532600  0.05340950  0.81561750  1
  C  2331  1  0.80754850  0.07078200  0.83312800  1
  C  2332  1  0.77124950  0.07818400  0.85119400  1
  C  2333  1  0.74267100  0.06830050  0.85116650  1
  C  2334  1  0.75035800  0.05103550  0.83370950  1
  C  2335  1  0.86083450  0.91716300  0.81161100  1
  C  2336  1  0.83849900  0.90755400  0.83220000  1
  C  2337  1  0.85623600  0.89083150  0.84734850  1
  C  2338  1  0.89655150  0.88338550  0.84213150  1
  C  2339  1  0.91885000  0.89281050  0.82134550  1
  C  2340  1  0.90114600  0.90960450  0.80623550  1
  C  2341  1  0.80068000  0.91717600  0.71183500  1
  C  2342  1  0.76792400  0.90962300  0.71720500  1
  C  2343  1  0.83263300  0.90755600  0.69125000  1
  C  2344  1  0.83162650  0.89083000  0.67610400  1
  C  2345  1  0.79875200  0.88339100  0.68131900  1
  C  2346  1  0.76702000  0.89282400  0.70210000  1
  C  2373  1  0.96211700  0.80178400  0.99006900  1
  C  2374  1  0.95051300  0.80238600  0.01509900  1
  C  2375  1  0.97502400  0.78207450  0.02308650  1
  C  2377  1  0.99428600  0.78125850  0.98218050  1
  C  2378  1  0.01525550  0.77483900  0.95745000  1
  C  2379  1  0.04999035  0.75538400  0.94933600  1
  C  2381  1  0.10157485  0.72355300  0.94934000  1
  C  2382  1  0.10382435  0.72967000  0.92518800  1
  C  2383  1  0.07184235  0.74922450  0.92518650  1
  C  2384  1  0.12822035  0.70411800  0.95745700  1
  C  2385  1  0.12450735  0.69773150  0.98218950  1
  C  2387  1  0.10283185  0.69689500  0.02309500  1
  C  2388  1  0.13541635  0.67663300  0.01510900  1
  C  2389  1  0.14888135  0.67725800  0.99008100  1
  C  2390  1  0.08067785  0.70247500  0.04782500  1
  C  2391  1  0.04705135  0.72270167  0.05592633  1
  C  2393  1  0.99785085  0.75619850  0.05592750  1
  C  2394  1  0.99523735  0.74982800  0.08008200  1
  C  2395  1  0.02543835  0.72902900  0.08008200  1
  C  2396  1  0.97236300  0.77644000  0.04782000  1
  C  2397  1  0.94444350  0.79358150  0.06569450  1
  C  2398  1  0.95529150  0.81146350  0.07336650  1
  C  2399  1  0.92821750  0.82890750  0.09063050  1
  C  2400  1  0.88971850  0.82894000  0.10045500  1
  C  2401  1  0.87892450  0.81088550  0.09300150  1
  C  2402  1  0.90606900  0.79338900  0.07562900  1
  C  2403  1  0.09072935  0.68533600  0.06569600  1
  C  2404  1  0.11909933  0.68556750  0.07567750  1
  C  2405  1  0.12885650  0.66808050  0.09306350  1
  C  2406  1  0.11067085  0.64999400  0.10047500  1
  C  2407  1  0.08206735  0.64998750  0.09059950  1
  C  2408  1  0.07226735  0.66742350  0.07332850  1
  C  2409  1  0.16069335  0.68957950  0.93943850  1
  C  2410  1  0.15896585  0.66897950  0.92983750  1
  C  2411  1  0.19184835  0.65383700  0.91311000  1
  C  2412  1  0.22693550  0.65906800  0.90565600  1
  C  2413  1  0.22842900  0.67987000  0.91506800  1
  C  2414  1  0.19561950  0.69496700  0.93187400  1
  C  2415  1  0.00080100  0.78937850  0.93943150  1
  C  2416  1  0.97339800  0.78401300  0.93189100  1
  C  2417  1  0.01218150  0.80995400  0.92980200  1
  C  2418  1  0.99600800  0.82510500  0.91308700  1
  C  2419  1  0.96833850  0.81989450  0.90565350  1
  C  2420  1  0.95737600  0.79912000  0.91509700  1
  C  2447  1  0.75248250  0.67725800  0.53342200  1
  C  2448  1  0.76653000  0.67664750  0.50839250  1
  C  2449  1  0.77876850  0.69693850  0.50040650  1
  C  2451  1  0.75637750  0.69773300  0.54131300  1
  C  2452  1  0.74632650  0.70410250  0.56604550  1
  C  2453  1  0.75356985  0.72352450  0.57415750  1
  C  2455  1  0.77335685  0.75533750  0.57415250  1
  C  2456  1  0.75762135  0.74920300  0.59830600  1
  C  2457  1  0.74518685  0.72965450  0.59830850  1
  C  2458  1  0.78866135  0.77477900  0.56603700  1
  C  2459  1  0.80329035  0.78116350  0.54130450  1
  C  2461  1  0.82167585  0.78199850  0.50040050  1
  C  2462  1  0.82591485  0.80229500  0.50838800  1
  C  2463  1  0.81501335  0.80165900  0.53341600  1
  C  2464  1  0.82985835  0.77640750  0.47566950  1
  C  2465  1  0.82451085  0.75620550  0.46756550  1
  C  2467  1  0.80867835  0.72276100  0.46756600  1
  C  2468  1  0.82389785  0.72910950  0.44341250  1
  C  2469  1  0.83339785  0.74986850  0.44341150  1
  C  2470  1  0.79521700  0.70256350  0.47567450  1
  C  2471  1  0.80232100  0.68541800  0.45780000  1
  C  2472  1  0.83870750  0.66751300  0.45015600  1
  C  2473  1  0.84634500  0.65007300  0.43288800  1
  C  2474  1  0.81772350  0.65006650  0.42303150  1
  C  2475  1  0.78143200  0.66813750  0.43046450  1
  C  2476  1  0.77370550  0.68563250  0.44783950  1
  C  2477  1  0.84060385  0.79355900  0.45780100  1
  C  2478  1  0.87916883  0.79336750  0.44784150  1
  C  2479  1  0.88878650  0.81087050  0.43046950  1
  C  2480  1  0.85990885  0.82892650  0.42303950  1
  C  2481  1  0.82144235  0.82890000  0.43289600  1
  C  2482  1  0.81184535  0.81144950  0.45015750  1
  C  2483  1  0.78857385  0.78932000  0.58405500  1
  C  2484  1  0.75661785  0.80990550  0.59367050  1
  C  2485  1  0.75762285  0.82505800  0.61039100  1
  C  2486  1  0.79050200  0.81985200  0.61782600  1
  C  2487  1  0.82223950  0.79906950  0.60839650  1
  C  2488  1  0.82133350  0.78395550  0.59160650  1
  C  2489  1  0.72839500  0.68956650  0.58406550  1
  C  2490  1  0.68808200  0.69494850  0.59162350  1
  C  2491  1  0.75073050  0.66897450  0.59367350  1
  C  2492  1  0.73299750  0.65382600  0.61039200  1
  C  2493  1  0.69267950  0.65904850  0.61783550  1
  C  2494  1  0.67038050  0.67983950  0.60841250  1
  C  2817  1  0.26042450  0.36741050  0.16551050  1
  C  2818  1  0.27788450  0.34388800  0.17335800  1
  C  2819  1  0.31104150  0.32789900  0.15736100  1
  C  2820  1  0.32848200  0.33575600  0.13383900  1
  C  2821  1  0.31163550  0.35953400  0.12624000  1
  C  2822  1  0.27725500  0.37501950  0.14173450  1
  C  2831  1  0.79208900  0.11156100  0.35802800  1
  C  2832  1  0.79385550  0.13508600  0.35017200  1
  C  2833  1  0.79501200  0.15108250  0.36616550  1
  C  2834  1  0.79678700  0.14323600  0.38969100  1
  C  2835  1  0.79613450  0.11945950  0.39729650  1
  C  2836  1  0.79275500  0.10396200  0.38180500  1
  C  2845  1  0.63836250  0.14322250  0.13382250  1
  C  2846  1  0.63228900  0.15108250  0.15734350  1
  C  2847  1  0.64943750  0.13508800  0.17334200  1
  C  2848  1  0.67474100  0.11156350  0.16549450  1
  C  2849  1  0.68168050  0.10395500  0.14171900  1
  C  2850  1  0.66280600  0.11944500  0.12622200  1
  C  2859  1  0.91415200  0.33575900  0.38968800  1
  C  2860  1  0.93945350  0.32791100  0.36616400  1
  C  2861  1  0.95660550  0.34390650  0.35017450  1
  C  2862  1  0.95053100  0.36742650  0.35803550  1
  C  2863  1  0.92608650  0.37502750  0.38181150  1
  C  2864  1  0.90720800  0.35953450  0.39729850  1
  C  2873  1  0.32862050  0.61155950  0.85799450  1
  C  2874  1  0.31115900  0.63508400  0.85014900  1
  C  2875  1  0.27800300  0.65107300  0.86614600  1
  C  2876  1  0.26056450  0.64321500  0.88966700  1
  C  2877  1  0.27741100  0.61943700  0.89726500  1
  C  2878  1  0.31179050  0.60395200  0.88177000  1
  C  2887  1  0.79697800  0.86739800  0.66546400  1
  C  2888  1  0.79521450  0.84387450  0.67332150  1
  C  2889  1  0.79405750  0.82787350  0.65733150  1
  C  2890  1  0.79228000  0.83571650  0.63380650  1
  C  2891  1  0.79293050  0.85949400  0.62619700  1
  C  2892  1  0.79630900  0.87499500  0.64168700  1
  C  2901  1  0.95070000  0.83574800  0.88966500  1
  C  2902  1  0.95677150  0.82788800  0.86614400  1
  C  2903  1  0.93962300  0.84388150  0.85014450  1
  C  2904  1  0.91431850  0.86740650  0.85799250  1
  C  2905  1  0.90738000  0.87501550  0.88176750  1
  C  2906  1  0.92625400  0.85952650  0.89726550  1
  C  2915  1  0.67491150  0.64319050  0.63381450  1
  C  2916  1  0.64960700  0.65104200  0.65733700  1
  C  2917  1  0.63245250  0.63504700  0.67332700  1
  C  2918  1  0.63852600  0.61152650  0.66546750  1
  C  2919  1  0.66297250  0.60392350  0.64169050  1
  C  2920  1  0.68185300  0.61941550  0.62620450  1
  C  3041  1  0.11918883  0.63234700  0.11820600  1
  C  3042  1  0.13585733  0.60748600  0.11167300  1
  C  3043  1  0.13584083  0.58936150  0.12980450  1
  C  3044  1  0.11915483  0.59590350  0.15466250  1
  C  3045  1  0.10456333  0.62076100  0.16120400  1
  C  3046  1  0.10458733  0.63889450  0.14306050  1
  C  3055  1  0.86847383  0.84659600  0.40532900  1
  C  3056  1  0.85369633  0.87145700  0.41186200  1
  C  3057  1  0.85368533  0.88958650  0.39373450  1
  C  3058  1  0.86845883  0.88305050  0.36887450  1
  C  3059  1  0.88532533  0.85819600  0.36233300  1
  C  3060  1  0.88531933  0.84005650  0.38047150  1
  C  3069  1  0.76207500  0.09590550  0.86886050  1
  C  3070  1  0.75382250  0.08937650  0.89372250  1
  C  3071  1  0.73566600  0.10750850  0.91185050  1
  C  3072  1  0.72556000  0.13237000  0.90532000  1
  C  3073  1  0.73589150  0.13890350  0.88046350  1
  C  3074  1  0.75405450  0.12076150  0.86232450  1
  C  3083  1  0.72570650  0.38302750  0.65463450  1
  C  3084  1  0.73582350  0.38956050  0.62977450  1
  C  3085  1  0.75395350  0.37143200  0.61164400  1
  C  3086  1  0.76216000  0.34657300  0.61817600  1
  C  3087  1  0.75412800  0.34003100  0.64303300  1
  C  3088  1  0.73599200  0.35817050  0.66117350  1
  C  3097  1  0.46984300  0.38308100  0.86886900  1
  C  3098  1  0.45314700  0.38962300  0.89372400  1
  C  3099  1  0.45312700  0.37149700  0.91185500  1
  C  3100  1  0.46980250  0.34663900  0.90532100  1
  C  3101  1  0.48441550  0.34008750  0.88046550  1
  C  3102  1  0.48443500  0.35822550  0.86232350  1
  C  3111  1  0.72056400  0.09591700  0.65462300  1
  C  3112  1  0.73531800  0.08938550  0.62976250  1
  C  3113  1  0.73530200  0.10751650  0.61163650  1
  C  3114  1  0.72053400  0.13237550  0.61817750  1
  C  3115  1  0.70369850  0.13891500  0.64303400  1
  C  3116  1  0.70371250  0.12077200  0.66117100  1
  C  3125  1  0.82684650  0.63241750  0.40530450  1
  C  3126  1  0.83506800  0.60755550  0.41183950  1
  C  3127  1  0.85319500  0.58942350  0.39371250  1
  C  3128  1  0.86329900  0.59595050  0.36884950  1
  C  3129  1  0.85300000  0.62080350  0.36231150  1
  C  3130  1  0.83487200  0.63894700  0.38044700  1
  C  3139  1  0.86346650  0.84659250  0.11817750  1
  C  3140  1  0.85337550  0.87145300  0.11164100  1
  C  3141  1  0.83522950  0.88958400  0.12976800  1
  C  3142  1  0.82697500  0.88306200  0.15463200  1
  C  3143  1  0.83499500  0.85820400  0.16117000  1
  C  3144  1  0.85313150  0.84006050  0.14303250  1
  H  49  1  0.45918000  0.38799150  0.20612450  1
  H  50  1  0.40308550  0.41657200  0.23196100  1
  H  51  1  0.39558950  0.38432250  0.16114550  1
  H  52  1  0.33952100  0.41302500  0.18694300  1
  H  53  1  0.37768600  0.45730800  0.18661300  1
  H  54  1  0.35324650  0.50323600  0.18561600  1
  H  55  1  0.28324350  0.48043550  0.24636350  1
  H  56  1  0.22590100  0.48044400  0.27713200  1
  H  57  1  0.33031350  0.38766600  0.24360900  1
  H  58  1  0.27156400  0.38767300  0.27985200  1
  H  59  1  0.23719550  0.41299500  0.33658100  1
  H  60  1  0.20984100  0.38428950  0.36237150  1
  H  61  1  0.16994300  0.41664100  0.29162800  1
  H  62  1  0.14244600  0.38805150  0.31745550  1
  H  63  1  0.15484350  0.45733050  0.33703550  1
  H  64  1  0.13336500  0.50326100  0.33802500  1
  H  65  1  0.23625850  0.57306750  0.24264450  1
  H  66  1  0.18022950  0.57307400  0.28080700  1
  H  67  1  0.10323500  0.54800650  0.30283250  1
  H  68  1  0.05676550  0.57775850  0.33275250  1
  H  69  1  0.18844300  0.54418650  0.33423450  1
  H  70  1  0.14241850  0.57379750  0.36383650  1
  H  71  1  0.33835800  0.54805100  0.22075200  1
  H  72  1  0.35508800  0.57778700  0.19082400  1
  H  73  1  0.27359950  0.57369300  0.15962900  1
  H  74  1  0.25717850  0.54409350  0.18923650  1
  H  123  1  0.05208350  0.09093750  0.31745050  1
  H  124  1  0.05042900  0.06234400  0.29161700  1
  H  125  1  0.93978600  0.09468100  0.36235900  1
  H  126  1  0.93823950  0.06596900  0.33656200  1
  H  127  1  0.02012750  0.02164650  0.33701850  1
  H  128  1  0.04063900  0.97571900  0.33800300  1
  H  129  1  0.00899500  0.99852550  0.27710350  1
  H  130  1  0.98220000  0.99853450  0.24641750  1
  H  131  1  0.96047200  0.09129600  0.27988800  1
  H  132  1  0.93795300  0.09130100  0.24364600  1
  H  133  1  0.98551400  0.06596300  0.18695500  1
  H  134  1  0.95525200  0.09467150  0.16115750  1
  H  135  1  0.87694250  0.06237350  0.23191950  1
  H  136  1  0.84669000  0.09096400  0.20608500  1
  H  137  1  0.94782700  0.02165950  0.18654650  1
  H  138  1  0.97318700  0.97572850  0.18558050  1
  H  139  1  0.05089600  0.90589700  0.28082000  1
  H  140  1  0.03293900  0.90590000  0.24268800  1
  H  141  1  0.95283300  0.93088250  0.22071050  1
  H  142  1  0.96614400  0.90114500  0.19075200  1
  H  143  1  0.06549100  0.93491150  0.18931050  1
  H  144  1  0.07879250  0.90531050  0.15967050  1
  H  145  1  0.10593100  0.93095350  0.30284450  1
  H  146  1  0.12244050  0.90121450  0.33278050  1
  H  147  1  0.00569250  0.90521500  0.36383200  1
  H  148  1  0.98930700  0.93481700  0.33421500  1
  H  197  1  0.85776850  0.18380000  0.11320000  1
  H  198  1  0.83027000  0.20963000  0.08460600  1
  H  199  1  0.79037550  0.13889300  0.11695100  1
  H  200  1  0.76302000  0.16468750  0.08824150  1
  H  201  1  0.84536400  0.16422150  0.04391350  1
  H  202  1  0.86682900  0.16322500  0.99798400  1
  H  203  1  0.77429950  0.22412700  0.02079500  1
  H  204  1  0.71696650  0.25491100  0.02079900  1
  H  205  1  0.72865500  0.22141650  0.11356550  1
  H  206  1  0.66990900  0.25766750  0.11356650  1
  H  207  1  0.66069450  0.31433200  0.08821500  1
  H  208  1  0.60463200  0.34012350  0.11692650  1
  H  209  1  0.59713700  0.26932250  0.08465350  1
  H  210  1  0.54104650  0.29515300  0.11324200  1
  H  211  1  0.62254050  0.31467750  0.04392050  1
  H  212  1  0.64697950  0.31567450  0.99799150  1
  H  213  1  0.81995400  0.22044700  0.92816400  1
  H  214  1  0.76394000  0.25862600  0.92816600  1
  H  215  1  0.66187100  0.28054950  0.95315750  1
  H  216  1  0.64516850  0.31048750  0.92341650  1
  H  217  1  0.74305050  0.31203350  0.95716350  1
  H  218  1  0.72665650  0.34165050  0.92756050  1
  H  219  1  0.89695300  0.19840600  0.95323400  1
  H  220  1  0.94341900  0.16847400  0.92349500  1
  H  221  1  0.85775800  0.13740200  0.92746300  1
  H  222  1  0.81173650  0.16701700  0.95706300  1
  H  271  1  0.15352600  0.29516250  0.41028450  1
  H  272  1  0.12327650  0.26932900  0.43886900  1
  H  273  1  0.04496100  0.34010700  0.40657500  1
  H  274  1  0.01470050  0.31431100  0.43527900  1
  H  275  1  0.05241700  0.31470100  0.47958300  1
  H  276  1  0.02709400  0.31565800  0.52551400  1
  H  277  1  0.01804150  0.25483850  0.50270550  1
  H  278  1  0.99121500  0.22417100  0.50271600  1
  H  279  1  0.06223900  0.25762150  0.40993950  1
  H  280  1  0.03970650  0.22139100  0.40994400  1
  H  281  1  0.06195500  0.16471700  0.43527900  1
  H  282  1  0.06041250  0.13891250  0.40657250  1
  H  283  1  0.94976000  0.20966000  0.43889200  1
  H  284  1  0.94810800  0.18381900  0.41030400  1
  H  285  1  0.98006250  0.16426750  0.47959450  1
  H  286  1  0.95957500  0.16327850  0.52552050  1
  H  287  1  0.96737650  0.25855000  0.59534200  1
  H  288  1  0.94939250  0.22043250  0.59534350  1
  H  289  1  0.89431500  0.19842450  0.57030050  1
  H  290  1  0.87783650  0.16848000  0.60003500  1
  H  291  1  0.01096100  0.16704600  0.56640300  1
  H  292  1  0.99460750  0.13742200  0.59599900  1
  H  293  1  0.04752050  0.28049000  0.57032900  1
  H  294  1  0.03428450  0.31043250  0.60006450  1
  H  295  1  0.92159600  0.34156900  0.59596200  1
  H  296  1  0.93482200  0.31194550  0.56636350  1
  H  641  1  0.54118700  0.59098050  0.81737950  1
  H  642  1  0.59728000  0.56239900  0.79154400  1
  H  643  1  0.60477800  0.59464800  0.86235900  1
  H  644  1  0.66084450  0.56594400  0.83656200  1
  H  645  1  0.62267050  0.52166500  0.83689500  1
  H  646  1  0.64711950  0.47573750  0.83790350  1
  H  647  1  0.71713250  0.49853050  0.77715750  1
  H  648  1  0.77445700  0.49851900  0.74637300  1
  H  649  1  0.67005850  0.59130100  0.77989600  1
  H  650  1  0.72880850  0.59128850  0.74364950  1
  H  651  1  0.76317200  0.56596650  0.68692250  1
  H  652  1  0.79053550  0.59466800  0.66113000  1
  H  653  1  0.83042750  0.56231400  0.73187500  1
  H  654  1  0.85793200  0.59090050  0.70604750  1
  H  655  1  0.84551400  0.52162450  0.68646650  1
  H  656  1  0.86698300  0.47569500  0.68547800  1
  H  657  1  0.76410400  0.40589900  0.78088400  1
  H  658  1  0.82011550  0.40588800  0.74270800  1
  H  659  1  0.89711450  0.43094650  0.72066550  1
  H  660  1  0.94357450  0.40120150  0.69073850  1
  H  661  1  0.81188700  0.43478350  0.68927450  1
  H  662  1  0.85790550  0.40517900  0.65966200  1
  H  663  1  0.66200900  0.43092950  0.80276750  1
  H  664  1  0.64525400  0.40119950  0.83269650  1
  H  665  1  0.72673450  0.40527800  0.86390700  1
  H  666  1  0.74318000  0.43487200  0.83429800  1
  H  715  1  0.94830600  0.88802100  0.70604300  1
  H  716  1  0.94996000  0.91661650  0.73187550  1
  H  717  1  0.06059450  0.88428750  0.66112650  1
  H  718  1  0.06213900  0.91300250  0.68692150  1
  H  719  1  0.98022900  0.95732200  0.68647700  1
  H  720  1  0.95971050  0.00324850  0.68549650  1
  H  721  1  0.99139150  0.98044150  0.74638150  1
  H  722  1  0.01817050  0.98043300  0.77707300  1
  H  723  1  0.03993500  0.88767100  0.74358800  1
  H  724  1  0.06245300  0.88766700  0.77982900  1
  H  725  1  0.01486650  0.91300500  0.83653100  1
  H  726  1  0.04513000  0.88429600  0.86232900  1
  H  727  1  0.12343800  0.91659600  0.79156700  1
  H  728  1  0.15369100  0.88800500  0.81740200  1
  H  729  1  0.05255800  0.95730900  0.83693900  1
  H  730  1  0.02718700  0.00323900  0.83791100  1
  H  731  1  0.94948450  0.07307200  0.74266800  1
  H  732  1  0.96744300  0.07306800  0.78079900  1
  H  733  1  0.04754100  0.04808200  0.80278100  1
  H  734  1  0.03422950  0.07781900  0.83274100  1
  H  735  1  0.93487650  0.04405950  0.83417850  1
  H  736  1  0.92157750  0.07365950  0.86381850  1
  H  737  1  0.89442900  0.04802000  0.72066200  1
  H  738  1  0.87790850  0.07776050  0.69072750  1
  H  739  1  0.99466000  0.07374650  0.65965150  1
  H  740  1  0.01105350  0.04414550  0.68926650  1
  H  789  1  0.14261400  0.79517050  0.91028750  1
  H  790  1  0.17010700  0.76934350  0.93888350  1
  H  791  1  0.21000700  0.84007750  0.90653750  1
  H  792  1  0.23735800  0.81428500  0.93524900  1
  H  793  1  0.15501050  0.81475600  0.97957500  1
  H  794  1  0.13351850  0.81574400  0.02550500  1
  H  795  1  0.22604100  0.75483700  0.00270000  1
  H  796  1  0.28337050  0.72405150  0.00270350  1
  H  797  1  0.27172850  0.75755550  0.90993150  1
  H  798  1  0.33047000  0.72130300  0.90993400  1
  H  799  1  0.33967250  0.66463850  0.93529050  1
  H  800  1  0.39573500  0.63884850  0.90658150  1
  H  801  1  0.40322950  0.70964850  0.93885350  1
  H  802  1  0.45932100  0.68381800  0.91026600  1
  H  803  1  0.37782000  0.66429600  0.97958900  1
  H  804  1  0.35335300  0.66329050  0.02551750  1
  H  805  1  0.18035250  0.75850900  0.09533200  1
  H  806  1  0.23636350  0.72032950  0.09533450  1
  H  807  1  0.33845250  0.69841350  0.07033850  1
  H  808  1  0.35515550  0.66848850  0.10008750  1
  H  809  1  0.25726050  0.66692750  0.06635950  1
  H  810  1  0.27365450  0.63732350  0.09597150  1
  H  811  1  0.10336500  0.78056450  0.07025950  1
  H  812  1  0.05691200  0.81049900  0.09999800  1
  H  813  1  0.14259400  0.84155050  0.09603050  1
  H  814  1  0.18860550  0.81193350  0.06643050  1
  H  863  1  0.84686000  0.68378850  0.61321650  1
  H  864  1  0.87711100  0.70962050  0.58463150  1
  H  865  1  0.95542400  0.63884250  0.61692750  1
  H  866  1  0.98568650  0.66463750  0.58822450  1
  H  867  1  0.94797450  0.66424700  0.54391700  1
  H  868  1  0.97328450  0.66329550  0.49798650  1
  H  869  1  0.98232800  0.72411850  0.52079650  1
  H  870  1  0.00915550  0.75478500  0.52078600  1
  H  871  1  0.93814950  0.72132550  0.61356350  1
  H  872  1  0.96068300  0.75755650  0.61355850  1
  H  873  1  0.93842950  0.81423100  0.58822600  1
  H  874  1  0.93997450  0.84003700  0.61692800  1
  H  875  1  0.05062700  0.76929050  0.58460950  1
  H  876  1  0.05228100  0.79513250  0.61319550  1
  H  877  1  0.02032600  0.81468000  0.54391200  1
  H  878  1  0.04080000  0.81567650  0.49798550  1
  H  879  1  0.03295750  0.72042300  0.42816100  1
  H  880  1  0.05094200  0.75854000  0.42815900  1
  H  881  1  0.10603850  0.78054100  0.45319300  1
  H  882  1  0.12250400  0.81048850  0.42345950  1
  H  883  1  0.98938450  0.81192000  0.45711400  1
  H  884  1  0.00572250  0.84154850  0.42751950  1
  H  885  1  0.95281550  0.69847300  0.45319000  1
  H  886  1  0.96604250  0.66854050  0.42344650  1
  H  887  1  0.07875500  0.63741650  0.42750550  1
  H  888  1  0.06554200  0.66702800  0.45711300  1
  H  1192  1  0.51787300  0.29525800  0.16426400  1
  H  1196  1  0.54667500  0.37790150  0.10487050  1
  H  1197  1  0.48239000  0.33696950  0.20599550  1
  H  1198  1  0.45351250  0.39639650  0.12337850  1
  H  1206  1  0.97608400  0.18372150  0.35926250  1
  H  1210  1  0.02817900  0.10111500  0.41867800  1
  H  1211  1  0.02408950  0.14198300  0.31753300  1
  H  1212  1  0.97203000  0.08259050  0.40015950  1
  H  1220  1  0.82363150  0.14199900  0.20598300  1
  H  1224  1  0.93510300  0.08257700  0.12336800  1
  H  1225  1  0.82987400  0.18372500  0.16423800  1
  H  1226  1  0.86041650  0.10108750  0.10485850  1
  H  1234  1  0.17033950  0.33701150  0.31753050  1
  H  1238  1  0.13979600  0.39638700  0.40017400  1
  H  1239  1  0.17658750  0.29526950  0.35925250  1
  H  1240  1  0.06511100  0.37788850  0.41867650  1
  H  1248  1  0.48249400  0.68371300  0.85924400  1
  H  1252  1  0.45369450  0.60106900  0.91863600  1
  H  1253  1  0.51797450  0.64200200  0.81751100  1
  H  1254  1  0.54685500  0.58257350  0.90012650  1
  H  1262  1  0.02431050  0.79523750  0.66423750  1
  H  1266  1  0.97220250  0.87783500  0.60481700  1
  H  1267  1  0.97630350  0.83697850  0.70596350  1
  H  1268  1  0.02835050  0.89636750  0.62332750  1
  H  1276  1  0.17675050  0.83697100  0.81750400  1
  H  1280  1  0.06527800  0.89639350  0.90011850  1
  H  1281  1  0.17051000  0.79524550  0.85924950  1
  H  1282  1  0.13996550  0.87788350  0.91862850  1
  H  1290  1  0.83004350  0.64194050  0.70597050  1
  H  1294  1  0.86058150  0.58256500  0.62333000  1
  H  1295  1  0.82380050  0.68368350  0.66424950  1
  H  1296  1  0.93527100  0.60106150  0.60482750  1
  H  1416  1  0.33747750  0.56145500  0.11841700  1
  H  1420  1  0.31132450  0.62974100  0.19095600  1
  H  1421  1  0.33750900  0.59609750  0.08376050  1
  H  1422  1  0.31135700  0.66865100  0.15202200  1
  H  1430  1  0.01597950  0.91747350  0.40510050  1
  H  1434  1  0.13085500  0.84925850  0.33259050  1
  H  1435  1  0.01600100  0.88281850  0.43975450  1
  H  1436  1  0.13089650  0.81033800  0.37149000  1
  H  1444  1  0.90932450  0.09614600  0.93973300  1
  H  1448  1  0.95166800  0.16864650  0.87152750  1
  H  1449  1  0.94404200  0.06147950  0.90509050  1
  H  1450  1  0.99063800  0.12974100  0.83260600  1
  H  1458  1  0.94417950  0.38281250  0.58374350  1
  H  1462  1  0.99067650  0.31029300  0.65201300  1
  H  1463  1  0.90950550  0.41746350  0.61841350  1
  H  1464  1  0.95175050  0.34922700  0.69092400  1
  H  1472  1  0.66279300  0.38288050  0.93977150  1
  H  1476  1  0.68898950  0.31033100  0.87149100  1
  H  1477  1  0.66283200  0.41752850  0.90511350  1
  H  1478  1  0.68902950  0.34925800  0.83255600  1
  H  1486  1  0.98430550  0.09615750  0.58373750  1
  H  1490  1  0.86947850  0.16864800  0.65200100  1
  H  1491  1  0.98433500  0.06149450  0.61838950  1
  H  1492  1  0.86951000  0.12972700  0.69091100  1
  H  1500  1  0.09083500  0.56152650  0.40508250  1
  H  1504  1  0.04854600  0.62973350  0.33256350  1
  H  1505  1  0.05617700  0.59617950  0.43973750  1
  H  1506  1  0.00962050  0.66867650  0.37147150  1
  H  1514  1  0.05634050  0.91747800  0.11839700  1
  H  1518  1  0.00972700  0.84920400  0.19087500  1
  H  1519  1  0.09103950  0.88281300  0.08375500  1
  H  1520  1  0.04868200  0.81031500  0.15195800  1
  H  1681  1  0.25351900  0.38799150  0.20612450  1
  H  1682  1  0.19742450  0.41657200  0.23196100  1
  H  1683  1  0.18992835  0.38432250  0.16114550  1
  H  1684  1  0.13385985  0.41302500  0.18694300  1
  H  1685  1  0.17202483  0.45730800  0.18661300  1
  H  1686  1  0.14758533  0.50323600  0.18561600  1
  H  1687  1  0.07758235  0.48043550  0.24636350  1
  H  1688  1  0.02024000  0.48044400  0.27713200  1
  H  1689  1  0.12465235  0.38766600  0.24360900  1
  H  1690  1  0.06590300  0.38767300  0.27985200  1
  H  1691  1  0.03153435  0.41299500  0.33658100  1
  H  1692  1  0.00418000  0.38428950  0.36237150  1
  H  1693  1  0.96428200  0.41664100  0.29162800  1
  H  1694  1  0.93678500  0.38805150  0.31745550  1
  H  1695  1  0.94918250  0.45733050  0.33703550  1
  H  1696  1  0.92770400  0.50326100  0.33802500  1
  H  1697  1  0.03059735  0.57306750  0.24264450  1
  H  1698  1  0.97456835  0.57307400  0.28080700  1
  H  1699  1  0.89757400  0.54800650  0.30283250  1
  H  1700  1  0.85110450  0.57775850  0.33275250  1
  H  1701  1  0.98278185  0.54418650  0.33423450  1
  H  1702  1  0.93675735  0.57379750  0.36383650  1
  H  1703  1  0.13269700  0.54805100  0.22075200  1
  H  1704  1  0.14942700  0.57778700  0.19082400  1
  H  1705  1  0.06793835  0.57369300  0.15962900  1
  H  1706  1  0.05151735  0.54409350  0.18923650  1
  H  1755  1  0.84642250  0.09093750  0.31745050  1
  H  1756  1  0.84476800  0.06234400  0.29161700  1
  H  1757  1  0.73412485  0.09468100  0.36235900  1
  H  1758  1  0.73257835  0.06596900  0.33656200  1
  H  1759  1  0.81446633  0.02164650  0.33701850  1
  H  1760  1  0.83497783  0.97571900  0.33800300  1
  H  1761  1  0.80333385  0.99852550  0.27710350  1
  H  1762  1  0.77653900  0.99853450  0.24641750  1
  H  1763  1  0.75481085  0.09129600  0.27988800  1
  H  1764  1  0.73229185  0.09130100  0.24364600  1
  H  1765  1  0.77985285  0.06596300  0.18695500  1
  H  1766  1  0.74959100  0.09467150  0.16115750  1
  H  1767  1  0.67128150  0.06237350  0.23191950  1
  H  1768  1  0.64102900  0.09096400  0.20608500  1
  H  1769  1  0.74216600  0.02165950  0.18654650  1
  H  1770  1  0.76752600  0.97572850  0.18558050  1
  H  1771  1  0.84523485  0.90589700  0.28082000  1
  H  1772  1  0.82727785  0.90590000  0.24268800  1
  H  1773  1  0.74717200  0.93088250  0.22071050  1
  H  1774  1  0.76048300  0.90114500  0.19075200  1
  H  1775  1  0.85982985  0.93491150  0.18931050  1
  H  1776  1  0.87313135  0.90531050  0.15967050  1
  H  1777  1  0.90027000  0.93095350  0.30284450  1
  H  1778  1  0.91677950  0.90121450  0.33278050  1
  H  1779  1  0.80003135  0.90521500  0.36383200  1
  H  1780  1  0.78364585  0.93481700  0.33421500  1
  H  1829  1  0.65210750  0.18380000  0.11320000  1
  H  1830  1  0.62460900  0.20963000  0.08460600  1
  H  1831  1  0.58471450  0.13889300  0.11695100  1
  H  1832  1  0.55735900  0.16468750  0.08824150  1
  H  1833  1  0.63970300  0.16422150  0.04391350  1
  H  1834  1  0.66116800  0.16322500  0.99798400  1
  H  1835  1  0.56863850  0.22412700  0.02079500  1
  H  1836  1  0.51130550  0.25491100  0.02079900  1
  H  1837  1  0.52299400  0.22141650  0.11356550  1
  H  1838  1  0.46424800  0.25766750  0.11356650  1
  H  1839  1  0.45503350  0.31433200  0.08821500  1
  H  1840  1  0.39897100  0.34012350  0.11692650  1
  H  1841  1  0.39147600  0.26932250  0.08465350  1
  H  1842  1  0.33538550  0.29515300  0.11324200  1
  H  1843  1  0.41687950  0.31467750  0.04392050  1
  H  1844  1  0.44131850  0.31567450  0.99799150  1
  H  1845  1  0.61429300  0.22044700  0.92816400  1
  H  1846  1  0.55827900  0.25862600  0.92816600  1
  H  1847  1  0.45621000  0.28054950  0.95315750  1
  H  1848  1  0.43950750  0.31048750  0.92341650  1
  H  1849  1  0.53738950  0.31203350  0.95716350  1
  H  1850  1  0.52099550  0.34165050  0.92756050  1
  H  1851  1  0.69129200  0.19840600  0.95323400  1
  H  1852  1  0.73775800  0.16847400  0.92349500  1
  H  1853  1  0.65209700  0.13740200  0.92746300  1
  H  1854  1  0.60607550  0.16701700  0.95706300  1
  H  1903  1  0.94786500  0.29516250  0.41028450  1
  H  1904  1  0.91761550  0.26932900  0.43886900  1
  H  1905  1  0.83930000  0.34010700  0.40657500  1
  H  1906  1  0.80903950  0.31431100  0.43527900  1
  H  1907  1  0.84675600  0.31470100  0.47958300  1
  H  1908  1  0.82143300  0.31565800  0.52551400  1
  H  1909  1  0.81238050  0.25483850  0.50270550  1
  H  1910  1  0.78555400  0.22417100  0.50271600  1
  H  1911  1  0.85657800  0.25762150  0.40993950  1
  H  1912  1  0.83404550  0.22139100  0.40994400  1
  H  1913  1  0.85629400  0.16471700  0.43527900  1
  H  1914  1  0.85475150  0.13891250  0.40657250  1
  H  1915  1  0.74409900  0.20966000  0.43889200  1
  H  1916  1  0.74244700  0.18381900  0.41030400  1
  H  1917  1  0.77440150  0.16426750  0.47959450  1
  H  1918  1  0.75391400  0.16327850  0.52552050  1
  H  1919  1  0.76171550  0.25855000  0.59534200  1
  H  1920  1  0.74373150  0.22043250  0.59534350  1
  H  1921  1  0.68865400  0.19842450  0.57030050  1
  H  1922  1  0.67217550  0.16848000  0.60003500  1
  H  1923  1  0.80530000  0.16704600  0.56640300  1
  H  1924  1  0.78894650  0.13742200  0.59599900  1
  H  1925  1  0.84185950  0.28049000  0.57032900  1
  H  1926  1  0.82862350  0.31043250  0.60006450  1
  H  1927  1  0.71593500  0.34156900  0.59596200  1
  H  1928  1  0.72916100  0.31194550  0.56636350  1
  H  2273  1  0.33552600  0.59098050  0.81737950  1
  H  2274  1  0.39161900  0.56239900  0.79154400  1
  H  2275  1  0.39911700  0.59464800  0.86235900  1
  H  2276  1  0.45518350  0.56594400  0.83656200  1
  H  2277  1  0.41700950  0.52166500  0.83689500  1
  H  2278  1  0.44145850  0.47573750  0.83790350  1
  H  2279  1  0.51147150  0.49853050  0.77715750  1
  H  2280  1  0.56879600  0.49851900  0.74637300  1
  H  2281  1  0.46439750  0.59130100  0.77989600  1
  H  2282  1  0.52314750  0.59128850  0.74364950  1
  H  2283  1  0.55751100  0.56596650  0.68692250  1
  H  2284  1  0.58487450  0.59466800  0.66113000  1
  H  2285  1  0.62476650  0.56231400  0.73187500  1
  H  2286  1  0.65227100  0.59090050  0.70604750  1
  H  2287  1  0.63985300  0.52162450  0.68646650  1
  H  2288  1  0.66132200  0.47569500  0.68547800  1
  H  2289  1  0.55844300  0.40589900  0.78088400  1
  H  2290  1  0.61445450  0.40588800  0.74270800  1
  H  2291  1  0.69145350  0.43094650  0.72066550  1
  H  2292  1  0.73791350  0.40120150  0.69073850  1
  H  2293  1  0.60622600  0.43478350  0.68927450  1
  H  2294  1  0.65224450  0.40517900  0.65966200  1
  H  2295  1  0.45634800  0.43092950  0.80276750  1
  H  2296  1  0.43959300  0.40119950  0.83269650  1
  H  2297  1  0.52107350  0.40527800  0.86390700  1
  H  2298  1  0.53751900  0.43487200  0.83429800  1
  H  2347  1  0.74264500  0.88802100  0.70604300  1
  H  2348  1  0.74429900  0.91661650  0.73187550  1
  H  2349  1  0.85493350  0.88428750  0.66112650  1
  H  2350  1  0.85647800  0.91300250  0.68692150  1
  H  2351  1  0.77456800  0.95732200  0.68647700  1
  H  2352  1  0.75404950  0.00324850  0.68549650  1
  H  2353  1  0.78573050  0.98044150  0.74638150  1
  H  2354  1  0.81250950  0.98043300  0.77707300  1
  H  2355  1  0.83427400  0.88767100  0.74358800  1
  H  2356  1  0.85679200  0.88766700  0.77982900  1
  H  2357  1  0.80920550  0.91300500  0.83653100  1
  H  2358  1  0.83946900  0.88429600  0.86232900  1
  H  2359  1  0.91777700  0.91659600  0.79156700  1
  H  2360  1  0.94803000  0.88800500  0.81740200  1
  H  2361  1  0.84689700  0.95730900  0.83693900  1
  H  2362  1  0.82152600  0.00323900  0.83791100  1
  H  2363  1  0.74382350  0.07307200  0.74266800  1
  H  2364  1  0.76178200  0.07306800  0.78079900  1
  H  2365  1  0.84188000  0.04808200  0.80278100  1
  H  2366  1  0.82856850  0.07781900  0.83274100  1
  H  2367  1  0.72921550  0.04405950  0.83417850  1
  H  2368  1  0.71591650  0.07365950  0.86381850  1
  H  2369  1  0.68876800  0.04802000  0.72066200  1
  H  2370  1  0.67224750  0.07776050  0.69072750  1
  H  2371  1  0.78899900  0.07374650  0.65965150  1
  H  2372  1  0.80539250  0.04414550  0.68926650  1
  H  2421  1  0.93695300  0.79517050  0.91028750  1
  H  2422  1  0.96444600  0.76934350  0.93888350  1
  H  2423  1  0.00434600  0.84007750  0.90653750  1
  H  2424  1  0.03169685  0.81428500  0.93524900  1
  H  2425  1  0.94934950  0.81475600  0.97957500  1
  H  2426  1  0.92785750  0.81574400  0.02550500  1
  H  2427  1  0.02038000  0.75483700  0.00270000  1
  H  2428  1  0.07770935  0.72405150  0.00270350  1
  H  2429  1  0.06606735  0.75755550  0.90993150  1
  H  2430  1  0.12480885  0.72130300  0.90993400  1
  H  2431  1  0.13401135  0.66463850  0.93529050  1
  H  2432  1  0.19007385  0.63884850  0.90658150  1
  H  2433  1  0.19756850  0.70964850  0.93885350  1
  H  2434  1  0.25366000  0.68381800  0.91026600  1
  H  2435  1  0.17215883  0.66429600  0.97958900  1
  H  2436  1  0.14769183  0.66329050  0.02551750  1
  H  2437  1  0.97469135  0.75850900  0.09533200  1
  H  2438  1  0.03070235  0.72032950  0.09533450  1
  H  2439  1  0.13279150  0.69841350  0.07033850  1
  H  2440  1  0.14949450  0.66848850  0.10008750  1
  H  2441  1  0.05159935  0.66692750  0.06635950  1
  H  2442  1  0.06799335  0.63732350  0.09597150  1
  H  2443  1  0.89770400  0.78056450  0.07025950  1
  H  2444  1  0.85125100  0.81049900  0.09999800  1
  H  2445  1  0.93693285  0.84155050  0.09603050  1
  H  2446  1  0.98294435  0.81193350  0.06643050  1
  H  2495  1  0.64119900  0.68378850  0.61321650  1
  H  2496  1  0.67145000  0.70962050  0.58463150  1
  H  2497  1  0.74976300  0.63884250  0.61692750  1
  H  2498  1  0.78002535  0.66463750  0.58822450  1
  H  2499  1  0.74231350  0.66424700  0.54391700  1
  H  2500  1  0.76762350  0.66329550  0.49798650  1
  H  2501  1  0.77666700  0.72411850  0.52079650  1
  H  2502  1  0.80349435  0.75478500  0.52078600  1
  H  2503  1  0.73248850  0.72132550  0.61356350  1
  H  2504  1  0.75502185  0.75755650  0.61355850  1
  H  2505  1  0.73276835  0.81423100  0.58822600  1
  H  2506  1  0.73431335  0.84003700  0.61692800  1
  H  2507  1  0.84496600  0.76929050  0.58460950  1
  H  2508  1  0.84662000  0.79513250  0.61319550  1
  H  2509  1  0.81466483  0.81468000  0.54391200  1
  H  2510  1  0.83513883  0.81567650  0.49798550  1
  H  2511  1  0.82729635  0.72042300  0.42816100  1
  H  2512  1  0.84528085  0.75854000  0.42815900  1
  H  2513  1  0.90037750  0.78054100  0.45319300  1
  H  2514  1  0.91684300  0.81048850  0.42345950  1
  H  2515  1  0.78372335  0.81192000  0.45711400  1
  H  2516  1  0.80006135  0.84154850  0.42751950  1
  H  2517  1  0.74715450  0.69847300  0.45319000  1
  H  2518  1  0.76038150  0.66854050  0.42344650  1
  H  2519  1  0.87309385  0.63741650  0.42750550  1
  H  2520  1  0.85988085  0.66702800  0.45711300  1
  H  2824  1  0.31221200  0.29525800  0.16426400  1
  H  2828  1  0.34101400  0.37790150  0.10487050  1
  H  2829  1  0.27672900  0.33696950  0.20599550  1
  H  2830  1  0.24785150  0.39639650  0.12337850  1
  H  2838  1  0.77042300  0.18372150  0.35926250  1
  H  2842  1  0.82251800  0.10111500  0.41867800  1
  H  2843  1  0.81842850  0.14198300  0.31753300  1
  H  2844  1  0.76636900  0.08259050  0.40015950  1
  H  2852  1  0.61797050  0.14199900  0.20598300  1
  H  2856  1  0.72944200  0.08257700  0.12336800  1
  H  2857  1  0.62421300  0.18372500  0.16423800  1
  H  2858  1  0.65475550  0.10108750  0.10485850  1
  H  2866  1  0.96467850  0.33701150  0.31753050  1
  H  2870  1  0.93413500  0.39638700  0.40017400  1
  H  2871  1  0.97092650  0.29526950  0.35925250  1
  H  2872  1  0.85945000  0.37788850  0.41867650  1
  H  2880  1  0.27683300  0.68371300  0.85924400  1
  H  2884  1  0.24803350  0.60106900  0.91863600  1
  H  2885  1  0.31231350  0.64200200  0.81751100  1
  H  2886  1  0.34119400  0.58257350  0.90012650  1
  H  2894  1  0.81864950  0.79523750  0.66423750  1
  H  2898  1  0.76654150  0.87783500  0.60481700  1
  H  2899  1  0.77064250  0.83697850  0.70596350  1
  H  2900  1  0.82268950  0.89636750  0.62332750  1
  H  2908  1  0.97108950  0.83697100  0.81750400  1
  H  2912  1  0.85961700  0.89639350  0.90011850  1
  H  2913  1  0.96484900  0.79524550  0.85924950  1
  H  2914  1  0.93430450  0.87788350  0.91862850  1
  H  2922  1  0.62438250  0.64194050  0.70597050  1
  H  2926  1  0.65492050  0.58256500  0.62333000  1
  H  2927  1  0.61813950  0.68368350  0.66424950  1
  H  2928  1  0.72961000  0.60106150  0.60482750  1
  H  3048  1  0.13181635  0.56145500  0.11841700  1
  H  3052  1  0.10566350  0.62974100  0.19095600  1
  H  3053  1  0.13184785  0.59609750  0.08376050  1
  H  3054  1  0.10569600  0.66865100  0.15202200  1
  H  3062  1  0.81031835  0.91747350  0.40510050  1
  H  3066  1  0.92519400  0.84925850  0.33259050  1
  H  3067  1  0.81033985  0.88281850  0.43975450  1
  H  3068  1  0.92523550  0.81033800  0.37149000  1
  H  3076  1  0.70366350  0.09614600  0.93973300  1
  H  3080  1  0.74600700  0.16864650  0.87152750  1
  H  3081  1  0.73838100  0.06147950  0.90509050  1
  H  3082  1  0.78497700  0.12974100  0.83260600  1
  H  3090  1  0.73851850  0.38281250  0.58374350  1
  H  3094  1  0.78501550  0.31029300  0.65201300  1
  H  3095  1  0.70384450  0.41746350  0.61841350  1
  H  3096  1  0.74608950  0.34922700  0.69092400  1
  H  3104  1  0.45713200  0.38288050  0.93977150  1
  H  3108  1  0.48332850  0.31033100  0.87149100  1
  H  3109  1  0.45717100  0.41752850  0.90511350  1
  H  3110  1  0.48336850  0.34925800  0.83255600  1
  H  3118  1  0.77864450  0.09615750  0.58373750  1
  H  3122  1  0.66381750  0.16864800  0.65200100  1
  H  3123  1  0.77867400  0.06149450  0.61838950  1
  H  3124  1  0.66384900  0.12972700  0.69091100  1
  H  3132  1  0.88517400  0.56152650  0.40508250  1
  H  3136  1  0.84288500  0.62973350  0.33256350  1
  H  3137  1  0.85051600  0.59617950  0.43973750  1
  H  3138  1  0.80395950  0.66867650  0.37147150  1
  H  3146  1  0.85067950  0.91747800  0.11839700  1
  H  3150  1  0.80406600  0.84920400  0.19087500  1
  H  3151  1  0.88537850  0.88281300  0.08375500  1
  H  3152  1  0.84302100  0.81031500  0.15195800  1
  N  4  1  0.30331350  0.48040450  0.23134450  1
  N  8  1  0.27442700  0.44083700  0.26178100  1
  N  14  1  0.20598800  0.48041450  0.29221850  1
  N  20  1  0.23488750  0.51990950  0.26176750  1
  N  78  1  0.01388900  0.99855550  0.29216850  1
  N  82  1  0.97581050  0.03813100  0.26175600  1
  N  88  1  0.97723600  0.99856350  0.23136750  1
  N  94  1  0.01527250  0.95906100  0.26178100  1
  N  152  1  0.79421350  0.20903950  0.02082450  1
  N  156  1  0.72578900  0.23949150  0.06039850  1
  N  162  1  0.69689950  0.26993400  0.02082900  1
  N  168  1  0.76531250  0.23949700  0.98132600  1
  N  226  1  0.02300700  0.26988750  0.50267650  1
  N  230  1  0.02439150  0.23951500  0.46311000  1
  N  236  1  0.98631700  0.20910950  0.50268650  1
  N  242  1  0.98497700  0.23947850  0.54218150  1
  N  596  1  0.69705500  0.49856300  0.79217100  1
  N  600  1  0.72593750  0.53812800  0.76172400  1
  N  606  1  0.79436900  0.49854600  0.73128600  1
  N  612  1  0.76547400  0.45905500  0.76174900  1
  N  670  1  0.98648600  0.98041200  0.73132100  1
  N  674  1  0.02457050  0.94083700  0.76173000  1
  N  680  1  0.02312350  0.98040350  0.79212750  1
  N  686  1  0.98509500  0.01990750  0.76171150  1
  N  744  1  0.20613650  0.76992850  0.00266950  1
  N  748  1  0.27457900  0.73948200  0.96309900  1
  N  754  1  0.30344250  0.70903250  0.00267650  1
  N  760  1  0.23501100  0.73946200  0.04217300  1
  N  818  1  0.97736850  0.70906650  0.52082550  1
  N  822  1  0.97599500  0.73943250  0.56039350  1
  N  828  1  0.01405900  0.76984450  0.52081750  1
  N  834  1  0.01538450  0.73948150  0.48132150  1
  N  1636  1  0.09765235  0.48040450  0.23134450  1
  N  1640  1  0.06876585  0.44083700  0.26178100  1
  N  1646  1  0.00032700  0.48041450  0.29221850  1
  N  1652  1  0.02922635  0.51990950  0.26176750  1
  N  1710  1  0.80822785  0.99855550  0.29216850  1
  N  1714  1  0.77014935  0.03813100  0.26175600  1
  N  1720  1  0.77157500  0.99856350  0.23136750  1
  N  1726  1  0.80961135  0.95906100  0.26178100  1
  N  1784  1  0.58855250  0.20903950  0.02082450  1
  N  1788  1  0.52012800  0.23949150  0.06039850  1
  N  1794  1  0.49123850  0.26993400  0.02082900  1
  N  1800  1  0.55965150  0.23949700  0.98132600  1
  N  1858  1  0.81734600  0.26988750  0.50267650  1
  N  1862  1  0.81873050  0.23951500  0.46311000  1
  N  1868  1  0.78065600  0.20910950  0.50268650  1
  N  1874  1  0.77931600  0.23947850  0.54218150  1
  N  2228  1  0.49139400  0.49856300  0.79217100  1
  N  2232  1  0.52027650  0.53812800  0.76172400  1
  N  2238  1  0.58870800  0.49854600  0.73128600  1
  N  2244  1  0.55981300  0.45905500  0.76174900  1
  N  2302  1  0.78082500  0.98041200  0.73132100  1
  N  2306  1  0.81890950  0.94083700  0.76173000  1
  N  2312  1  0.81746250  0.98040350  0.79212750  1
  N  2318  1  0.77943400  0.01990750  0.76171150  1
  N  2376  1  0.00047550  0.76992850  0.00266950  1
  N  2380  1  0.06891785  0.73948200  0.96309900  1
  N  2386  1  0.09778135  0.70903250  0.00267650  1
  N  2392  1  0.02934985  0.73946200  0.04217300  1
  N  2450  1  0.77170750  0.70906650  0.52082550  1
  N  2454  1  0.77033385  0.73943250  0.56039350  1
  N  2460  1  0.80839785  0.76984450  0.52081750  1
  N  2466  1  0.80972335  0.73948150  0.48132150  1
  O  1191  1  0.53301750  0.30538400  0.16541200  1
  O  1193  1  0.46724750  0.33582150  0.19586750  1
  O  1194  1  0.53255850  0.36725450  0.10334550  1
  O  1195  1  0.46763500  0.39791800  0.13402500  1
  O  1205  1  0.00250750  0.17359850  0.35810850  1
  O  1207  1  0.99767150  0.14313500  0.32765500  1
  O  1208  1  0.00188500  0.11174950  0.42019550  1
  O  1209  1  0.99832500  0.08106500  0.38952100  1
  O  1219  1  0.84889200  0.14315500  0.19585300  1
  O  1221  1  0.81358400  0.17359600  0.16539900  1
  O  1222  1  0.91033150  0.08105550  0.13400750  1
  O  1223  1  0.87607750  0.11172350  0.10332750  1
  O  1233  1  0.18663200  0.33585300  0.32766000  1
  O  1235  1  0.15132400  0.30540000  0.35809700  1
  O  1236  1  0.12413950  0.39792100  0.38953300  1
  O  1237  1  0.08988450  0.36724700  0.42019700  1
  O  1247  1  0.46735000  0.67358750  0.85809450  1
  O  1249  1  0.53311800  0.64315000  0.82763900  1
  O  1250  1  0.46781100  0.61171550  0.92016050  1
  O  1251  1  0.53273250  0.58105150  0.88947950  1
  O  1261  1  0.99788650  0.80535850  0.66539250  1
  O  1263  1  0.00272200  0.83582800  0.69583900  1
  O  1264  1  0.99849950  0.86720150  0.60329750  1
  O  1265  1  0.00205850  0.89789050  0.63396750  1
  O  1275  1  0.15149100  0.83581400  0.82763500  1
  O  1277  1  0.18679950  0.80537400  0.85808900  1
  O  1278  1  0.09004850  0.89791450  0.88947950  1
  O  1279  1  0.12430500  0.86724750  0.92015850  1
  O  1289  1  0.81375000  0.64310150  0.69584250  1
  O  1291  1  0.84906400  0.67355100  0.66540400  1
  O  1292  1  0.87623850  0.58103150  0.63396950  1
  O  1293  1  0.91050000  0.61170250  0.60330550  1
  O  1415  1  0.35685500  0.56551500  0.12308100  1
  O  1417  1  0.35688700  0.60075350  0.08782850  1
  O  1418  1  0.29182500  0.62764200  0.18486800  1
  O  1419  1  0.29184900  0.66256100  0.14993900  1
  O  1429  1  0.04407400  0.91343200  0.40046600  1
  O  1431  1  0.04409600  0.87818550  0.43570750  1
  O  1432  1  0.10318450  0.85130800  0.33866700  1
  O  1433  1  0.10320700  0.81638500  0.37359700  1
  O  1443  1  0.93278450  0.10077850  0.93569450  1
  O  1445  1  0.96808550  0.06553300  0.90045400  1
  O  1446  1  0.93007700  0.16256800  0.87357600  1
  O  1447  1  0.96505200  0.12764100  0.83865500  1
  O  1457  1  0.96822350  0.37816150  0.58779950  1
  O  1459  1  0.93297250  0.41340500  0.62304600  1
  O  1460  1  0.96509250  0.31636250  0.64990850  1
  O  1461  1  0.93016000  0.35128900  0.68483900  1
  O  1471  1  0.64341700  0.37822650  0.93569950  1
  O  1473  1  0.64345550  0.41346850  0.90044850  1
  O  1474  1  0.70848850  0.31642250  0.87358450  1
  O  1475  1  0.70852550  0.35133650  0.83866250  1
  O  1485  1  0.95620850  0.10079050  0.58779150  1
  O  1487  1  0.95623750  0.06554200  0.62303000  1
  O  1488  1  0.89716000  0.16258150  0.64991750  1
  O  1489  1  0.89718900  0.12765000  0.68483900  1
  O  1499  1  0.06737100  0.56558050  0.40044850  1
  O  1501  1  0.03212900  0.60082700  0.43568600  1
  O  1502  1  0.07013750  0.62768350  0.33864350  1
  O  1503  1  0.03520850  0.66261650  0.37357050  1
  O  1513  1  0.03229400  0.91342750  0.12303550  1
  O  1515  1  0.06757700  0.87818100  0.08779600  1
  O  1516  1  0.03528850  0.85133700  0.18484400  1
  O  1517  1  0.07026100  0.81639750  0.14992650  1
  O  2823  1  0.32735650  0.30538400  0.16541200  1
  O  2825  1  0.26158650  0.33582150  0.19586750  1
  O  2826  1  0.32689750  0.36725450  0.10334550  1
  O  2827  1  0.26197400  0.39791800  0.13402500  1
  O  2837  1  0.79684650  0.17359850  0.35810850  1
  O  2839  1  0.79201050  0.14313500  0.32765500  1
  O  2840  1  0.79622400  0.11174950  0.42019550  1
  O  2841  1  0.79266400  0.08106500  0.38952100  1
  O  2851  1  0.64323100  0.14315500  0.19585300  1
  O  2853  1  0.60792300  0.17359600  0.16539900  1
  O  2854  1  0.70467050  0.08105550  0.13400750  1
  O  2855  1  0.67041650  0.11172350  0.10332750  1
  O  2865  1  0.98097100  0.33585300  0.32766000  1
  O  2867  1  0.94566300  0.30540000  0.35809700  1
  O  2868  1  0.91847850  0.39792100  0.38953300  1
  O  2869  1  0.88422350  0.36724700  0.42019700  1
  O  2879  1  0.26168900  0.67358750  0.85809450  1
  O  2881  1  0.32745700  0.64315000  0.82763900  1
  O  2882  1  0.26215000  0.61171550  0.92016050  1
  O  2883  1  0.32707150  0.58105150  0.88947950  1
  O  2893  1  0.79222550  0.80535850  0.66539250  1
  O  2895  1  0.79706100  0.83582800  0.69583900  1
  O  2896  1  0.79283850  0.86720150  0.60329750  1
  O  2897  1  0.79639750  0.89789050  0.63396750  1
  O  2907  1  0.94583000  0.83581400  0.82763500  1
  O  2909  1  0.98113850  0.80537400  0.85808900  1
  O  2910  1  0.88438750  0.89791450  0.88947950  1
  O  2911  1  0.91864400  0.86724750  0.92015850  1
  O  2921  1  0.60808900  0.64310150  0.69584250  1
  O  2923  1  0.64340300  0.67355100  0.66540400  1
  O  2924  1  0.67057750  0.58103150  0.63396950  1
  O  2925  1  0.70483900  0.61170250  0.60330550  1
  O  3047  1  0.15119383  0.56551500  0.12308100  1
  O  3049  1  0.15122583  0.60075350  0.08782850  1
  O  3050  1  0.08616383  0.62764200  0.18486800  1
  O  3051  1  0.08618783  0.66256100  0.14993900  1
  O  3061  1  0.83841283  0.91343200  0.40046600  1
  O  3063  1  0.83843483  0.87818550  0.43570750  1
  O  3064  1  0.89752333  0.85130800  0.33866700  1
  O  3065  1  0.89754583  0.81638500  0.37359700  1
  O  3075  1  0.72712350  0.10077850  0.93569450  1
  O  3077  1  0.76242450  0.06553300  0.90045400  1
  O  3078  1  0.72441600  0.16256800  0.87357600  1
  O  3079  1  0.75939100  0.12764100  0.83865500  1
  O  3089  1  0.76256250  0.37816150  0.58779950  1
  O  3091  1  0.72731150  0.41340500  0.62304600  1
  O  3092  1  0.75943150  0.31636250  0.64990850  1
  O  3093  1  0.72449900  0.35128900  0.68483900  1
  O  3103  1  0.43775600  0.37822650  0.93569950  1
  O  3105  1  0.43779450  0.41346850  0.90044850  1
  O  3106  1  0.50282750  0.31642250  0.87358450  1
  O  3107  1  0.50286450  0.35133650  0.83866250  1
  O  3117  1  0.75054750  0.10079050  0.58779150  1
  O  3119  1  0.75057650  0.06554200  0.62303000  1
  O  3120  1  0.69149900  0.16258150  0.64991750  1
  O  3121  1  0.69152800  0.12765000  0.68483900  1
  O  3131  1  0.86171000  0.56558050  0.40044850  1
  O  3133  1  0.82646800  0.60082700  0.43568600  1
  O  3134  1  0.86447650  0.62768350  0.33864350  1
  O  3135  1  0.82954750  0.66261650  0.37357050  1
  O  3145  1  0.82663300  0.91342750  0.12303550  1
  O  3147  1  0.86191600  0.87818100  0.08779600  1
  O  3148  1  0.82962750  0.85133700  0.18484400  1
  O  3149  1  0.86460000  0.81639750  0.14992650  1
