# generated using pymatgen
data_CuHC17(Br2O)4
_symmetry_space_group_name_H-M   'P 1'
_cell_length_a   31.87770000
_cell_length_b   32.52780000
_cell_length_c   35.04480000
_cell_angle_alpha   89.81190000
_cell_angle_beta   89.90740000
_cell_angle_gamma   90.60770000
_symmetry_Int_Tables_number   1
_chemical_formula_structural   CuHC17(Br2O)4
_chemical_formula_sum   'Cu24 H24 C408 Br192 O96'
_cell_volume   36336.06512086
_cell_formula_units_Z   24
loop_
 _symmetry_equiv_pos_site_id
 _symmetry_equiv_pos_as_xyz
  1  'x, y, z'
loop_
 _atom_site_type_symbol
 _atom_site_label
 _atom_site_symmetry_multiplicity
 _atom_site_fract_x
 _atom_site_fract_y
 _atom_site_fract_z
 _atom_site_occupancy
  Cu  Cu1  1  0.37490000  0.62865000  0.99843000  1.0
  Cu  Cu2  1  0.31548000  0.68443000  0.99852000  1.0
  Cu  Cu3  1  0.62114000  0.37005000  0.00593000  1.0
  Cu  Cu4  1  0.68369000  0.31783000  0.00254000  1.0
  Cu  Cu5  1  0.38841000  0.38482000  0.99764000  1.0
  Cu  Cu6  1  0.32840000  0.32848000  0.00048000  1.0
  Cu  Cu7  1  0.61355000  0.61905000  0.00039000  1.0
  Cu  Cu8  1  0.67204000  0.67725000  0.99911000  1.0
  Cu  Cu9  1  0.38844000  0.00524000  0.37745000  1.0
  Cu  Cu10  1  0.32133000  0.99176000  0.33494000  1.0
  Cu  Cu11  1  0.61501000  0.00008000  0.62482000  1.0
  Cu  Cu12  1  0.67997000  0.99990000  0.67132000  1.0
  Cu  Cu13  1  0.60897000  0.99670000  0.38057000  1.0
  Cu  Cu14  1  0.67043000  0.00696000  0.33080000  1.0
  Cu  Cu15  1  0.38312000  0.00222000  0.62131000  1.0
  Cu  Cu16  1  0.32277000  0.99874000  0.67302000  1.0
  Cu  Cu17  1  0.00363000  0.61918000  0.37492000  1.0
  Cu  Cu18  1  0.00771000  0.68045000  0.32553000  1.0
  Cu  Cu19  1  0.99676000  0.38938000  0.62282000  1.0
  Cu  Cu20  1  0.99720000  0.32361000  0.66726000  1.0
  Cu  Cu21  1  0.99795000  0.61191000  0.61996000  1.0
  Cu  Cu22  1  0.00578000  0.67384000  0.66788000  1.0
  Cu  Cu23  1  0.00109000  0.38677000  0.37557000  1.0
  Cu  Cu24  1  0.99319000  0.32593000  0.32639000  1.0
  H  H1  1  0.78400000  0.22038000  0.56927000  1.0
  H  H2  1  0.79307000  0.19896000  0.42959000  1.0
  H  H3  1  0.22546000  0.79191000  0.43230000  1.0
  H  H4  1  0.21455000  0.77710000  0.57272000  1.0
  H  H5  1  0.81581000  0.81386000  0.42626000  1.0
  H  H6  1  0.80432000  0.80906000  0.56717000  1.0
  H  H7  1  0.17649000  0.18811000  0.56807000  1.0
  H  H8  1  0.20045000  0.19482000  0.42844000  1.0
  H  H9  1  0.80983000  0.42334000  0.81730000  1.0
  H  H10  1  0.80843000  0.57585000  0.81262000  1.0
  H  H11  1  0.19416000  0.42324000  0.18214000  1.0
  H  H12  1  0.20151000  0.57416000  0.20024000  1.0
  H  H13  1  0.20552000  0.42391000  0.80463000  1.0
  H  H14  1  0.17661000  0.57265000  0.81825000  1.0
  H  H15  1  0.80401000  0.43005000  0.19768000  1.0
  H  H16  1  0.79870000  0.58190000  0.19146000  1.0
  H  H17  1  0.57598000  0.16999000  0.83046000  1.0
  H  H18  1  0.42861000  0.20245000  0.79835000  1.0
  H  H19  1  0.42469000  0.82945000  0.17833000  1.0
  H  H20  1  0.57534000  0.79646000  0.19302000  1.0
  H  H21  1  0.41584000  0.19619000  0.18333000  1.0
  H  H22  1  0.57011000  0.18080000  0.19424000  1.0
  H  H23  1  0.42162000  0.80667000  0.80044000  1.0
  H  H24  1  0.57626000  0.79679000  0.80541000  1.0
  C  C1  1  0.30374000  0.61581000  0.95210000  1.0
  C  C2  1  0.38418000  0.69941000  0.04481000  1.0
  C  C3  1  0.31124000  0.61942000  0.05196000  1.0
  C  C4  1  0.38165000  0.69234000  0.94540000  1.0
  C  C5  1  0.61964000  0.30045000  0.05419000  1.0
  C  C6  1  0.68735000  0.38692000  0.95481000  1.0
  C  C7  1  0.61351000  0.30411000  0.95557000  1.0
  C  C8  1  0.68918000  0.38336000  0.05474000  1.0
  C  C9  1  0.32416000  0.39632000  0.05019000  1.0
  C  C10  1  0.39348000  0.32017000  0.94586000  1.0
  C  C11  1  0.31614000  0.39349000  0.95110000  1.0
  C  C12  1  0.39844000  0.31551000  0.04605000  1.0
  C  C13  1  0.68061000  0.61083000  0.05053000  1.0
  C  C14  1  0.60410000  0.68433000  0.94885000  1.0
  C  C15  1  0.68308000  0.61018000  0.95122000  1.0
  C  C16  1  0.60433000  0.68799000  0.04842000  1.0
  C  C17  1  0.37740000  0.05310000  0.31114000  1.0
  C  C18  1  0.33182000  0.94375000  0.40125000  1.0
  C  C19  1  0.39444000  0.94927000  0.31685000  1.0
  C  C20  1  0.31520000  0.04939000  0.39419000  1.0
  C  C21  1  0.68557000  0.95222000  0.60603000  1.0
  C  C22  1  0.61128000  0.04702000  0.69213000  1.0
  C  C23  1  0.67735000  0.05961000  0.61260000  1.0
  C  C24  1  0.61644000  0.94112000  0.68306000  1.0
  C  C25  1  0.61112000  0.94283000  0.31879000  1.0
  C  C26  1  0.66926000  0.05809000  0.39489000  1.0
  C  C27  1  0.59575000  0.04864000  0.31732000  1.0
  C  C28  1  0.68448000  0.95264000  0.39071000  1.0
  C  C29  1  0.31099000  0.05025000  0.61003000  1.0
  C  C30  1  0.39362000  0.94905000  0.68332000  1.0
  C  C31  1  0.31944000  0.94189000  0.61333000  1.0
  C  C32  1  0.38906000  0.05464000  0.68462000  1.0
  C  C33  1  0.95493000  0.68794000  0.38957000  1.0
  C  C34  1  0.05664000  0.61044000  0.31208000  1.0
  C  C35  1  0.06368000  0.68224000  0.38646000  1.0
  C  C36  1  0.94725000  0.61958000  0.31274000  1.0
  C  C37  1  0.93965000  0.32577000  0.60712000  1.0
  C  C38  1  0.05646000  0.38599000  0.68188000  1.0
  C  C39  1  0.04664000  0.32280000  0.60111000  1.0
  C  C40  1  0.94635000  0.38887000  0.68910000  1.0
  C  C41  1  0.05760000  0.67138000  0.60165000  1.0
  C  C42  1  0.94676000  0.61068000  0.68463000  1.0
  C  C43  1  0.94898000  0.68383000  0.60901000  1.0
  C  C44  1  0.05400000  0.60548000  0.68228000  1.0
  C  C45  1  0.05387000  0.32023000  0.38580000  1.0
  C  C46  1  0.94281000  0.39590000  0.31726000  1.0
  C  C47  1  0.94432000  0.32143000  0.39151000  1.0
  C  C48  1  0.05092000  0.38662000  0.30833000  1.0
  C  C49  1  0.76113000  0.18430000  0.52206000  1.0
  C  C50  1  0.76308000  0.17889000  0.48174000  1.0
  C  C51  1  0.79106000  0.20336000  0.46020000  1.0
  C  C52  1  0.81797000  0.23199000  0.47753000  1.0
  C  C53  1  0.81546000  0.23790000  0.51745000  1.0
  C  C54  1  0.78552000  0.21573000  0.53868000  1.0
  C  C55  1  0.19240000  0.76210000  0.47848000  1.0
  C  C56  1  0.18952000  0.75763000  0.51877000  1.0
  C  C57  1  0.21677000  0.78061000  0.54201000  1.0
  C  C58  1  0.24312000  0.81145000  0.52669000  1.0
  C  C59  1  0.24677000  0.81514000  0.48634000  1.0
  C  C60  1  0.22287000  0.78890000  0.46304000  1.0
  C  C61  1  0.78590000  0.83957000  0.47557000  1.0
  C  C62  1  0.78269000  0.83830000  0.51595000  1.0
  C  C63  1  0.80687000  0.81004000  0.53632000  1.0
  C  C64  1  0.83585000  0.78451000  0.51807000  1.0
  C  C65  1  0.83906000  0.78576000  0.47760000  1.0
  C  C66  1  0.81359000  0.81296000  0.45713000  1.0
  C  C67  1  0.21040000  0.16287000  0.52074000  1.0
  C  C68  1  0.21641000  0.16413000  0.48068000  1.0
  C  C69  1  0.19501000  0.19359000  0.45897000  1.0
  C  C70  1  0.16551000  0.22025000  0.47537000  1.0
  C  C71  1  0.15901000  0.21870000  0.51569000  1.0
  C  C72  1  0.18144000  0.18969000  0.53748000  1.0
  C  C73  1  0.78299000  0.47801000  0.84105000  1.0
  C  C74  1  0.78298000  0.52166000  0.84006000  1.0
  C  C75  1  0.80865000  0.54253000  0.81348000  1.0
  C  C76  1  0.83543000  0.52120000  0.78870000  1.0
  C  C77  1  0.83529000  0.47748000  0.78976000  1.0
  C  C78  1  0.80917000  0.45664000  0.81595000  1.0
  C  C79  1  0.16977000  0.47470000  0.21316000  1.0
  C  C80  1  0.17190000  0.51792000  0.21839000  1.0
  C  C81  1  0.20010000  0.54109000  0.19640000  1.0
  C  C82  1  0.22398000  0.52319000  0.16743000  1.0
  C  C83  1  0.22246000  0.47981000  0.16238000  1.0
  C  C84  1  0.19554000  0.45632000  0.18573000  1.0
  C  C85  1  0.17028000  0.47489000  0.78233000  1.0
  C  C86  1  0.16269000  0.51785000  0.78591000  1.0
  C  C87  1  0.18262000  0.54008000  0.81519000  1.0
  C  C88  1  0.21059000  0.52127000  0.84033000  1.0
  C  C89  1  0.21841000  0.47874000  0.83674000  1.0
  C  C90  1  0.19922000  0.45648000  0.80719000  1.0
  C  C91  1  0.77811000  0.48187000  0.16824000  1.0
  C  C92  1  0.77649000  0.52554000  0.16640000  1.0
  C  C93  1  0.80006000  0.54865000  0.19265000  1.0
  C  C94  1  0.82696000  0.53006000  0.21915000  1.0
  C  C95  1  0.82839000  0.48639000  0.22096000  1.0
  C  C96  1  0.80303000  0.46332000  0.19621000  1.0
  C  C97  1  0.52316000  0.20812000  0.84478000  1.0
  C  C98  1  0.48052000  0.21723000  0.83564000  1.0
  C  C99  1  0.46103000  0.19604000  0.80529000  1.0
  C  C100  1  0.48170000  0.16508000  0.78509000  1.0
  C  C101  1  0.52424000  0.15713000  0.79329000  1.0
  C  C102  1  0.54380000  0.17755000  0.82367000  1.0
  C  C103  1  0.48084000  0.84181000  0.21098000  1.0
  C  C104  1  0.52434000  0.83265000  0.21498000  1.0
  C  C105  1  0.54240000  0.80377000  0.19014000  1.0
  C  C106  1  0.51923000  0.78530000  0.16065000  1.0
  C  C107  1  0.47602000  0.79395000  0.15706000  1.0
  C  C108  1  0.45768000  0.82255000  0.18169000  1.0
  C  C109  1  0.47604000  0.21553000  0.16113000  1.0
  C  C110  1  0.52014000  0.21087000  0.16429000  1.0
  C  C111  1  0.53641000  0.18445000  0.19212000  1.0
  C  C112  1  0.50996000  0.16111000  0.21598000  1.0
  C  C113  1  0.46586000  0.16536000  0.21265000  1.0
  C  C114  1  0.44955000  0.19319000  0.18593000  1.0
  C  C115  1  0.47970000  0.82972000  0.77737000  1.0
  C  C116  1  0.52412000  0.82632000  0.77844000  1.0
  C  C117  1  0.54242000  0.79932000  0.80469000  1.0
  C  C118  1  0.51839000  0.77715000  0.83131000  1.0
  C  C119  1  0.47389000  0.77960000  0.82947000  1.0
  C  C120  1  0.45550000  0.80496000  0.80186000  1.0
  C  C121  1  0.42556000  0.76209000  0.06323000  1.0
  C  C122  1  0.40703000  0.72412000  0.07344000  1.0
  C  C123  1  0.40684000  0.71167000  0.11192000  1.0
  C  C124  1  0.42766000  0.73550000  0.13957000  1.0
  C  C125  1  0.44921000  0.77185000  0.12884000  1.0
  C  C126  1  0.44529000  0.78656000  0.09115000  1.0
  C  C127  1  0.59645000  0.28876000  0.12162000  1.0
  C  C128  1  0.59906000  0.27476000  0.08369000  1.0
  C  C129  1  0.58188000  0.23604000  0.07419000  1.0
  C  C130  1  0.55673000  0.21467000  0.10085000  1.0
  C  C131  1  0.54988000  0.23130000  0.13742000  1.0
  C  C132  1  0.57327000  0.26615000  0.14885000  1.0
  C  C133  1  0.39667000  0.25639000  0.90417000  1.0
  C  C134  1  0.41272000  0.29617000  0.91364000  1.0
  C  C135  1  0.44723000  0.31193000  0.89189000  1.0
  C  C136  1  0.46622000  0.28758000  0.86345000  1.0
  C  C137  1  0.45442000  0.24605000  0.85895000  1.0
  C  C138  1  0.41829000  0.23130000  0.87828000  1.0
  C  C139  1  0.55161000  0.73626000  0.92869000  1.0
  C  C140  1  0.58136000  0.70661000  0.91870000  1.0
  C  C141  1  0.59190000  0.70099000  0.88009000  1.0
  C  C142  1  0.57041000  0.72262000  0.85136000  1.0
  C  C143  1  0.54094000  0.75316000  0.86141000  1.0
  C  C144  1  0.53433000  0.76174000  0.90048000  1.0
  C  C145  1  0.33042000  0.87171000  0.42719000  1.0
  C  C146  1  0.31560000  0.91228000  0.42831000  1.0
  C  C147  1  0.28051000  0.92138000  0.45103000  1.0
  C  C148  1  0.25772000  0.88974000  0.46930000  1.0
  C  C149  1  0.27157000  0.84872000  0.46736000  1.0
  C  C150  1  0.30764000  0.83973000  0.44537000  1.0
  C  C151  1  0.74363000  0.93751000  0.56052000  1.0
  C  C152  1  0.70842000  0.92348000  0.58120000  1.0
  C  C153  1  0.69839000  0.88122000  0.58173000  1.0
  C  C154  1  0.72237000  0.85329000  0.56042000  1.0
  C  C155  1  0.75653000  0.86765000  0.53805000  1.0
  C  C156  1  0.76824000  0.90960000  0.53992000  1.0
  C  C157  1  0.71727000  0.07649000  0.44827000  1.0
  C  C158  1  0.68979000  0.08924000  0.41924000  1.0
  C  C159  1  0.68653000  0.13132000  0.41054000  1.0
  C  C160  1  0.70874000  0.16067000  0.43226000  1.0
  C  C161  1  0.73727000  0.14782000  0.46078000  1.0
  C  C162  1  0.74312000  0.10537000  0.46689000  1.0
  C  C163  1  0.29597000  0.12120000  0.58584000  1.0
  C  C164  1  0.28522000  0.07917000  0.58751000  1.0
  C  C165  1  0.24767000  0.06552000  0.57034000  1.0
  C  C166  1  0.22146000  0.09360000  0.55151000  1.0
  C  C167  1  0.23483000  0.13458000  0.54572000  1.0
  C  C168  1  0.27121000  0.14876000  0.56476000  1.0
  C  C169  1  0.12939000  0.58676000  0.29725000  1.0
  C  C170  1  0.08630000  0.58681000  0.28857000  1.0
  C  C171  1  0.07174000  0.56579000  0.25615000  1.0
  C  C172  1  0.09979000  0.54398000  0.23303000  1.0
  C  C173  1  0.14239000  0.54070000  0.24350000  1.0
  C  C174  1  0.15743000  0.56374000  0.27493000  1.0
  C  C175  1  0.11882000  0.43432000  0.69119000  1.0
  C  C176  1  0.09085000  0.40397000  0.70597000  1.0
  C  C177  1  0.09517000  0.39201000  0.74479000  1.0
  C  C178  1  0.12082000  0.41520000  0.76949000  1.0
  C  C179  1  0.14613000  0.44786000  0.75528000  1.0
  C  C180  1  0.14762000  0.45457000  0.71552000  1.0
  C  C181  1  0.87977000  0.57062000  0.69784000  1.0
  C  C182  1  0.91668000  0.59012000  0.71143000  1.0
  C  C183  1  0.92530000  0.58906000  0.75105000  1.0
  C  C184  1  0.89855000  0.56719000  0.77613000  1.0
  C  C185  1  0.86313000  0.54552000  0.76218000  1.0
  C  C186  1  0.85278000  0.54929000  0.72323000  1.0
  C  C187  1  0.86972000  0.41105000  0.29561000  1.0
  C  C188  1  0.91294000  0.42014000  0.29466000  1.0
  C  C189  1  0.92843000  0.45002000  0.26911000  1.0
  C  C190  1  0.90129000  0.46900000  0.24312000  1.0
  C  C191  1  0.85746000  0.46354000  0.24667000  1.0
  C  C192  1  0.84175000  0.43394000  0.27305000  1.0
  C  C193  1  0.23870000  0.57759000  0.93195000  1.0
  C  C194  1  0.27963000  0.59188000  0.92357000  1.0
  C  C195  1  0.29622000  0.58588000  0.88672000  1.0
  C  C196  1  0.27309000  0.56385000  0.85927000  1.0
  C  C197  1  0.23335000  0.54723000  0.86854000  1.0
  C  C198  1  0.21497000  0.55702000  0.90391000  1.0
  C  C199  1  0.74863000  0.43088000  0.93567000  1.0
  C  C200  1  0.70963000  0.41282000  0.92621000  1.0
  C  C201  1  0.69491000  0.41560000  0.88839000  1.0
  C  C202  1  0.72010000  0.43433000  0.85995000  1.0
  C  C203  1  0.75817000  0.45419000  0.86990000  1.0
  C  C204  1  0.77310000  0.45070000  0.90756000  1.0
  C  C205  1  0.69841000  0.59829000  0.11908000  1.0
  C  C206  1  0.70414000  0.58875000  0.08031000  1.0
  C  C207  1  0.73407000  0.55947000  0.06982000  1.0
  C  C208  1  0.76029000  0.54217000  0.09758000  1.0
  C  C209  1  0.75188000  0.54810000  0.13676000  1.0
  C  C210  1  0.72081000  0.57684000  0.14739000  1.0
  C  C211  1  0.27436000  0.45139000  0.06819000  1.0
  C  C212  1  0.30141000  0.41975000  0.07946000  1.0
  C  C213  1  0.30251000  0.40739000  0.11795000  1.0
  C  C214  1  0.27789000  0.42781000  0.14528000  1.0
  C  C215  1  0.24879000  0.45803000  0.13356000  1.0
  C  C216  1  0.24530000  0.46727000  0.09429000  1.0
  C  C217  1  0.08193000  0.72801000  0.55840000  1.0
  C  C218  1  0.09021000  0.69052000  0.57692000  1.0
  C  C219  1  0.13067000  0.67370000  0.57449000  1.0
  C  C220  1  0.16361000  0.69637000  0.55720000  1.0
  C  C221  1  0.15515000  0.73358000  0.53782000  1.0
  C  C222  1  0.11413000  0.74953000  0.53913000  1.0
  C  C223  1  0.09311000  0.25562000  0.39480000  1.0
  C  C224  1  0.08586000  0.29750000  0.40463000  1.0
  C  C225  1  0.11127000  0.31496000  0.43420000  1.0
  C  C226  1  0.14081000  0.29053000  0.45372000  1.0
  C  C227  1  0.14072000  0.24755000  0.44919000  1.0
  C  C228  1  0.11697000  0.23052000  0.41898000  1.0
  C  C229  1  0.91359000  0.26229000  0.57437000  1.0
  C  C230  1  0.90821000  0.30437000  0.58303000  1.0
  C  C231  1  0.87236000  0.32480000  0.56922000  1.0
  C  C232  1  0.84032000  0.30214000  0.55105000  1.0
  C  C233  1  0.84785000  0.26167000  0.53877000  1.0
  C  C234  1  0.88529000  0.24226000  0.54988000  1.0
  C  C235  1  0.88181000  0.70821000  0.40628000  1.0
  C  C236  1  0.92521000  0.71153000  0.41290000  1.0
  C  C237  1  0.94042000  0.73942000  0.44025000  1.0
  C  C238  1  0.91259000  0.76528000  0.45963000  1.0
  C  C239  1  0.86882000  0.75981000  0.45553000  1.0
  C  C240  1  0.85354000  0.73142000  0.42812000  1.0
  C  C241  1  0.40556000  0.87632000  0.70354000  1.0
  C  C242  1  0.41707000  0.91818000  0.70534000  1.0
  C  C243  1  0.44855000  0.93095000  0.73079000  1.0
  C  C244  1  0.46604000  0.90266000  0.75645000  1.0
  C  C245  1  0.45757000  0.86014000  0.75259000  1.0
  C  C246  1  0.42665000  0.84712000  0.72605000  1.0
  C  C247  1  0.60961000  0.90273000  0.25676000  1.0
  C  C248  1  0.59447000  0.90823000  0.29459000  1.0
  C  C249  1  0.56221000  0.88110000  0.30784000  1.0
  C  C250  1  0.54316000  0.85274000  0.28264000  1.0
  C  C251  1  0.55204000  0.85437000  0.24329000  1.0
  C  C252  1  0.58691000  0.87817000  0.23091000  1.0
  C  C253  1  0.40459000  0.07131000  0.24624000  1.0
  C  C254  1  0.39288000  0.08380000  0.28321000  1.0
  C  C255  1  0.39744000  0.12544000  0.29351000  1.0
  C  C256  1  0.41746000  0.15335000  0.26846000  1.0
  C  C257  1  0.43641000  0.13880000  0.23484000  1.0
  C  C258  1  0.42710000  0.09856000  0.22240000  1.0
  C  C259  1  0.58815000  0.11745000  0.70987000  1.0
  C  C260  1  0.58971000  0.07520000  0.71835000  1.0
  C  C261  1  0.57374000  0.06059000  0.75341000  1.0
  C  C262  1  0.55462000  0.08774000  0.77911000  1.0
  C  C263  1  0.54943000  0.12928000  0.76899000  1.0
  C  C264  1  0.56893000  0.14457000  0.73556000  1.0
  C  C265  1  0.61070000  0.27026000  0.89343000  1.0
  C  C266  1  0.59165000  0.28038000  0.92860000  1.0
  C  C267  1  0.55109000  0.26448000  0.93681000  1.0
  C  C268  1  0.53279000  0.23533000  0.91216000  1.0
  C  C269  1  0.54793000  0.23113000  0.87452000  1.0
  C  C270  1  0.58715000  0.24972000  0.86522000  1.0
  C  C271  1  0.43270000  0.69349000  0.89207000  1.0
  C  C272  1  0.40205000  0.71349000  0.91505000  1.0
  C  C273  1  0.39222000  0.75531000  0.90631000  1.0
  C  C274  1  0.41613000  0.77723000  0.87903000  1.0
  C  C275  1  0.44595000  0.75660000  0.85639000  1.0
  C  C276  1  0.45020000  0.71394000  0.86046000  1.0
  C  C277  1  0.58629000  0.75533000  0.07536000  1.0
  C  C278  1  0.58256000  0.71162000  0.07570000  1.0
  C  C279  1  0.55807000  0.69259000  0.10494000  1.0
  C  C280  1  0.54115000  0.71659000  0.13454000  1.0
  C  C281  1  0.54164000  0.75974000  0.13198000  1.0
  C  C282  1  0.56423000  0.77890000  0.10216000  1.0
  C  C283  1  0.41767000  0.24781000  0.07117000  1.0
  C  C284  1  0.42089000  0.29140000  0.07260000  1.0
  C  C285  1  0.44382000  0.30971000  0.10294000  1.0
  C  C286  1  0.45936000  0.28498000  0.13284000  1.0
  C  C287  1  0.45677000  0.24175000  0.13087000  1.0
  C  C288  1  0.43496000  0.22337000  0.10028000  1.0
  C  C289  1  0.67394000  0.11755000  0.56604000  1.0
  C  C290  1  0.69666000  0.09313000  0.59279000  1.0
  C  C291  1  0.73987000  0.10315000  0.59908000  1.0
  C  C292  1  0.76032000  0.13265000  0.57602000  1.0
  C  C293  1  0.73806000  0.15510000  0.54811000  1.0
  C  C294  1  0.69436000  0.14946000  0.54549000  1.0
  C  C295  1  0.31090000  0.10923000  0.43800000  1.0
  C  C296  1  0.29126000  0.07758000  0.41599000  1.0
  C  C297  1  0.24644000  0.07519000  0.41615000  1.0
  C  C298  1  0.22307000  0.10105000  0.44007000  1.0
  C  C299  1  0.24260000  0.13355000  0.45994000  1.0
  C  C300  1  0.28628000  0.13886000  0.45672000  1.0
  C  C301  1  0.32578000  0.88114000  0.57146000  1.0
  C  C302  1  0.30109000  0.90728000  0.59493000  1.0
  C  C303  1  0.25791000  0.89663000  0.60053000  1.0
  C  C304  1  0.23897000  0.86560000  0.57824000  1.0
  C  C305  1  0.26343000  0.84161000  0.55321000  1.0
  C  C306  1  0.30720000  0.84703000  0.55321000  1.0
  C  C307  1  0.75441000  0.92708000  0.40923000  1.0
  C  C308  1  0.70970000  0.92413000  0.41063000  1.0
  C  C309  1  0.69103000  0.89095000  0.43137000  1.0
  C  C310  1  0.71634000  0.86222000  0.45033000  1.0
  C  C311  1  0.76009000  0.86773000  0.45186000  1.0
  C  C312  1  0.77920000  0.89885000  0.42952000  1.0
  C  C313  1  0.93315000  0.42836000  0.74883000  1.0
  C  C314  1  0.91730000  0.40908000  0.71596000  1.0
  C  C315  1  0.87364000  0.40752000  0.71011000  1.0
  C  C316  1  0.84658000  0.42955000  0.73426000  1.0
  C  C317  1  0.86319000  0.45263000  0.76493000  1.0
  C  C318  1  0.90606000  0.44891000  0.77387000  1.0
  C  C319  1  0.91018000  0.60877000  0.24949000  1.0
  C  C320  1  0.91299000  0.60061000  0.28932000  1.0
  C  C321  1  0.88298000  0.57362000  0.30623000  1.0
  C  C322  1  0.85228000  0.55417000  0.28353000  1.0
  C  C323  1  0.85417000  0.55706000  0.24346000  1.0
  C  C324  1  0.88232000  0.58578000  0.22658000  1.0
  C  C325  1  0.07862000  0.40526000  0.24307000  1.0
  C  C326  1  0.08326000  0.40562000  0.28329000  1.0
  C  C327  1  0.11958000  0.42364000  0.29944000  1.0
  C  C328  1  0.14905000  0.44391000  0.27602000  1.0
  C  C329  1  0.14162000  0.44809000  0.23663000  1.0
  C  C330  1  0.10800000  0.42611000  0.21982000  1.0
  C  C331  1  0.06706000  0.54814000  0.72799000  1.0
  C  C332  1  0.08261000  0.58200000  0.70692000  1.0
  C  C333  1  0.12385000  0.59631000  0.71336000  1.0
  C  C334  1  0.15068000  0.57416000  0.73751000  1.0
  C  C335  1  0.13473000  0.54080000  0.75943000  1.0
  C  C336  1  0.09182000  0.53050000  0.75671000  1.0
  C  C337  1  0.68971000  0.43423000  0.10965000  1.0
  C  C338  1  0.71173000  0.40671000  0.08547000  1.0
  C  C339  1  0.75554000  0.40146000  0.09155000  1.0
  C  C340  1  0.77715000  0.42624000  0.11811000  1.0
  C  C341  1  0.75509000  0.45453000  0.14101000  1.0
  C  C342  1  0.71109000  0.45576000  0.13862000  1.0
  C  C343  1  0.24671000  0.60490000  0.09227000  1.0
  C  C344  1  0.28979000  0.59763000  0.08423000  1.0
  C  C345  1  0.31189000  0.56917000  0.10752000  1.0
  C  C346  1  0.29106000  0.54839000  0.13738000  1.0
  C  C347  1  0.24734000  0.55122000  0.14120000  1.0
  C  C348  1  0.22538000  0.58062000  0.11944000  1.0
  C  C349  1  0.31030000  0.42850000  0.88731000  1.0
  C  C350  1  0.29126000  0.41526000  0.92175000  1.0
  C  C351  1  0.24750000  0.41997000  0.92660000  1.0
  C  C352  1  0.22398000  0.44064000  0.89875000  1.0
  C  C353  1  0.24354000  0.45607000  0.86547000  1.0
  C  C354  1  0.28613000  0.44754000  0.85879000  1.0
  C  C355  1  0.75290000  0.59019000  0.92366000  1.0
  C  C356  1  0.70845000  0.58744000  0.92270000  1.0
  C  C357  1  0.68892000  0.56481000  0.89305000  1.0
  C  C358  1  0.71348000  0.54699000  0.86420000  1.0
  C  C359  1  0.75747000  0.54606000  0.86746000  1.0
  C  C360  1  0.77705000  0.56865000  0.89688000  1.0
  C  C361  1  0.87776000  0.31973000  0.42986000  1.0
  C  C362  1  0.91344000  0.29942000  0.41583000  1.0
  C  C363  1  0.91675000  0.25640000  0.42058000  1.0
  C  C364  1  0.88433000  0.23385000  0.43843000  1.0
  C  C365  1  0.84945000  0.25447000  0.45375000  1.0
  C  C366  1  0.84493000  0.29685000  0.44672000  1.0
  C  C367  1  0.88899000  0.69088000  0.56163000  1.0
  C  C368  1  0.91818000  0.70938000  0.58715000  1.0
  C  C369  1  0.91728000  0.75296000  0.59183000  1.0
  C  C370  1  0.89059000  0.77714000  0.56921000  1.0
  C  C371  1  0.86330000  0.75849000  0.54251000  1.0
  C  C372  1  0.86077000  0.71532000  0.54079000  1.0
  C  C373  1  0.12620000  0.67911000  0.43078000  1.0
  C  C374  1  0.09789000  0.70264000  0.40870000  1.0
  C  C375  1  0.10336000  0.74607000  0.40722000  1.0
  C  C376  1  0.13469000  0.76544000  0.42930000  1.0
  C  C377  1  0.16190000  0.74173000  0.45213000  1.0
  C  C378  1  0.15958000  0.69860000  0.44999000  1.0
  C  C379  1  0.11863000  0.29883000  0.58627000  1.0
  C  C380  1  0.07630000  0.30162000  0.57573000  1.0
  C  C381  1  0.06138000  0.27888000  0.54443000  1.0
  C  C382  1  0.08697000  0.24908000  0.52738000  1.0
  C  C383  1  0.13019000  0.24741000  0.53631000  1.0
  C  C384  1  0.14593000  0.27346000  0.56558000  1.0
  C  C385  1  0.54897000  0.10970000  0.30722000  1.0
  C  C386  1  0.56942000  0.07492000  0.29251000  1.0
  C  C387  1  0.56832000  0.06748000  0.25281000  1.0
  C  C388  1  0.54870000  0.09537000  0.22799000  1.0
  C  C389  1  0.52951000  0.13095000  0.24257000  1.0
  C  C390  1  0.53139000  0.13874000  0.28213000  1.0
  C  C391  1  0.41085000  0.07809000  0.75009000  1.0
  C  C392  1  0.41220000  0.08379000  0.70995000  1.0
  C  C393  1  0.43618000  0.11702000  0.69490000  1.0
  C  C394  1  0.45489000  0.14590000  0.71965000  1.0
  C  C395  1  0.45686000  0.13797000  0.75909000  1.0
  C  C396  1  0.43477000  0.10375000  0.77411000  1.0
  C  C397  1  0.56635000  0.88069000  0.69050000  1.0
  C  C398  1  0.59739000  0.90722000  0.70623000  1.0
  C  C399  1  0.60888000  0.90186000  0.74516000  1.0
  C  C400  1  0.58430000  0.87652000  0.76908000  1.0
  C  C401  1  0.55230000  0.85136000  0.75334000  1.0
  C  C402  1  0.54713000  0.85048000  0.71350000  1.0
  C  C403  1  0.40158000  0.88174000  0.28369000  1.0
  C  C404  1  0.41781000  0.92131000  0.29146000  1.0
  C  C405  1  0.45373000  0.93545000  0.27154000  1.0
  C  C406  1  0.47099000  0.91135000  0.24222000  1.0
  C  C407  1  0.45816000  0.86994000  0.23770000  1.0
  C  C408  1  0.42321000  0.85531000  0.25904000  1.0
  Br  Br1  1  0.46168000  0.84211000  0.07886000  1.0
  Br  Br2  1  0.42452000  0.78037000  0.01091000  1.0
  Br  Br3  1  0.42293000  0.72001000  0.19249000  1.0
  Br  Br4  1  0.37579000  0.66329000  0.12729000  1.0
  Br  Br5  1  0.57667000  0.28079000  0.20213000  1.0
  Br  Br6  1  0.62707000  0.33728000  0.13688000  1.0
  Br  Br7  1  0.53499000  0.16092000  0.08844000  1.0
  Br  Br8  1  0.59366000  0.21162000  0.02526000  1.0
  Br  Br9  1  0.39969000  0.17494000  0.87292000  1.0
  Br  Br10  1  0.34517000  0.23350000  0.92580000  1.0
  Br  Br11  1  0.50702000  0.31169000  0.82899000  1.0
  Br  Br12  1  0.46993000  0.36664000  0.89956000  1.0
  Br  Br13  1  0.50768000  0.81183000  0.91607000  1.0
  Br  Br14  1  0.53413000  0.74185000  0.98103000  1.0
  Br  Br15  1  0.58186000  0.70955000  0.79855000  1.0
  Br  Br16  1  0.63690000  0.66472000  0.86663000  1.0
  Br  Br17  1  0.32416000  0.78347000  0.43731000  1.0
  Br  Br18  1  0.38265000  0.86036000  0.40183000  1.0
  Br  Br19  1  0.20424000  0.90242000  0.49187000  1.0
  Br  Br20  1  0.26487000  0.97768000  0.45878000  1.0
  Br  Br21  1  0.82139000  0.92806000  0.51969000  1.0
  Br  Br22  1  0.75890000  0.99503000  0.56144000  1.0
  Br  Br23  1  0.71014000  0.79510000  0.56479000  1.0
  Br  Br24  1  0.65407000  0.86107000  0.61434000  1.0
  Br  Br25  1  0.79073000  0.08612000  0.49534000  1.0
  Br  Br26  1  0.72064000  0.01920000  0.46182000  1.0
  Br  Br27  1  0.70020000  0.21848000  0.42219000  1.0
  Br  Br28  1  0.65298000  0.14863000  0.36786000  1.0
  Br  Br29  1  0.28536000  0.20643000  0.56540000  1.0
  Br  Br30  1  0.34291000  0.14161000  0.61469000  1.0
  Br  Br31  1  0.16474000  0.07750000  0.53985000  1.0
  Br  Br32  1  0.23252000  0.00811000  0.57144000  1.0
  Br  Br33  1  0.21674000  0.56664000  0.28603000  1.0
  Br  Br34  1  0.15042000  0.62091000  0.33783000  1.0
  Br  Br35  1  0.08072000  0.52443000  0.18418000  1.0
  Br  Br36  1  0.01337000  0.56786000  0.24266000  1.0
  Br  Br37  1  0.19140000  0.48886000  0.69402000  1.0
  Br  Br38  1  0.12016000  0.44710000  0.63731000  1.0
  Br  Br39  1  0.11787000  0.40340000  0.82351000  1.0
  Br  Br40  1  0.06619000  0.34433000  0.76604000  1.0
  Br  Br41  1  0.79929000  0.52921000  0.70537000  1.0
  Br  Br42  1  0.86431000  0.57496000  0.64482000  1.0
  Br  Br43  1  0.91039000  0.56877000  0.82990000  1.0
  Br  Br44  1  0.97488000  0.61576000  0.77179000  1.0
  Br  Br45  1  0.78213000  0.42387000  0.27845000  1.0
  Br  Br46  1  0.84908000  0.36642000  0.32695000  1.0
  Br  Br47  1  0.92510000  0.49596000  0.19900000  1.0
  Br  Br48  1  0.98718000  0.46432000  0.26904000  1.0
  Br  Br49  1  0.15593000  0.54746000  0.91226000  1.0
  Br  Br50  1  0.21552000  0.58455000  0.98224000  1.0
  Br  Br51  1  0.29353000  0.56122000  0.80755000  1.0
  Br  Br52  1  0.34932000  0.61033000  0.87273000  1.0
  Br  Br53  1  0.82952000  0.46790000  0.91961000  1.0
  Br  Br54  1  0.76788000  0.43032000  0.98769000  1.0
  Br  Br55  1  0.70490000  0.42794000  0.80705000  1.0
  Br  Br56  1  0.64032000  0.39377000  0.87540000  1.0
  Br  Br57  1  0.70819000  0.58724000  0.20047000  1.0
  Br  Br58  1  0.66023000  0.64114000  0.13331000  1.0
  Br  Br59  1  0.81134000  0.51654000  0.08114000  1.0
  Br  Br60  1  0.73833000  0.54174000  0.01763000  1.0
  Br  Br61  1  0.19710000  0.49554000  0.07475000  1.0
  Br  Br62  1  0.27784000  0.47410000  0.01742000  1.0
  Br  Br63  1  0.28497000  0.41431000  0.19865000  1.0
  Br  Br64  1  0.33816000  0.36272000  0.13315000  1.0
  Br  Br65  1  0.10260000  0.80333000  0.51886000  1.0
  Br  Br66  1  0.02576000  0.74916000  0.55802000  1.0
  Br  Br67  1  0.22066000  0.67845000  0.56393000  1.0
  Br  Br68  1  0.14086000  0.61926000  0.59398000  1.0
  Br  Br69  1  0.11288000  0.17198000  0.41171000  1.0
  Br  Br70  1  0.07264000  0.23029000  0.34798000  1.0
  Br  Br71  1  0.18441000  0.31645000  0.48357000  1.0
  Br  Br72  1  0.10868000  0.37230000  0.44865000  1.0
  Br  Br73  1  0.89803000  0.18761000  0.53292000  1.0
  Br  Br74  1  0.95977000  0.23108000  0.59530000  1.0
  Br  Br75  1  0.78482000  0.32478000  0.54817000  1.0
  Br  Br76  1  0.86632000  0.38342000  0.57453000  1.0
  Br  Br77  1  0.79396000  0.72460000  0.41938000  1.0
  Br  Br78  1  0.86126000  0.67292000  0.36625000  1.0
  Br  Br79  1  0.93513000  0.81199000  0.48655000  1.0
  Br  Br80  1  0.99947000  0.74195000  0.45158000  1.0
  Br  Br81  1  0.41236000  0.78953000  0.72018000  1.0
  Br  Br82  1  0.36082000  0.85898000  0.67015000  1.0
  Br  Br83  1  0.49541000  0.92339000  0.80045000  1.0
  Br  Br84  1  0.46821000  0.98713000  0.73028000  1.0
  Br  Br85  1  0.60241000  0.88115000  0.17783000  1.0
  Br  Br86  1  0.66193000  0.92706000  0.23860000  1.0
  Br  Br87  1  0.50722000  0.80952000  0.30232000  1.0
  Br  Br88  1  0.54388000  0.88050000  0.36042000  1.0
  Br  Br89  1  0.44256000  0.08164000  0.17176000  1.0
  Br  Br90  1  0.38981000  0.01711000  0.22800000  1.0
  Br  Br91  1  0.41551000  0.21161000  0.27833000  1.0
  Br  Br92  1  0.37443000  0.14453000  0.34097000  1.0
  Br  Br93  1  0.57421000  0.20298000  0.72722000  1.0
  Br  Br94  1  0.61407000  0.13839000  0.66390000  1.0
  Br  Br95  1  0.54033000  0.06896000  0.82968000  1.0
  Br  Br96  1  0.57729000  0.00326000  0.76613000  1.0
  Br  Br97  1  0.60811000  0.25078000  0.81348000  1.0
  Br  Br98  1  0.66747000  0.28797000  0.88156000  1.0
  Br  Br99  1  0.49266000  0.19642000  0.93268000  1.0
  Br  Br100  1  0.52123000  0.27906000  0.98285000  1.0
  Br  Br101  1  0.47593000  0.68264000  0.82014000  1.0
  Br  Br102  1  0.45241000  0.63812000  0.90139000  1.0
  Br  Br103  1  0.40926000  0.83636000  0.87484000  1.0
  Br  Br104  1  0.34877000  0.78577000  0.93260000  1.0
  Br  Br105  1  0.56566000  0.83795000  0.09775000  1.0
  Br  Br106  1  0.61804000  0.78497000  0.03640000  1.0
  Br  Br107  1  0.52324000  0.69039000  0.18120000  1.0
  Br  Br108  1  0.55002000  0.63355000  0.10786000  1.0
  Br  Br109  1  0.42637000  0.16450000  0.09889000  1.0
  Br  Br110  1  0.39476000  0.22026000  0.02674000  1.0
  Br  Br111  1  0.47725000  0.31061000  0.17959000  1.0
  Br  Br112  1  0.45104000  0.36873000  0.10675000  1.0
  Br  Br113  1  0.66176000  0.18849000  0.51679000  1.0
  Br  Br114  1  0.61402000  0.11103000  0.55842000  1.0
  Br  Br115  1  0.82026000  0.13973000  0.58195000  1.0
  Br  Br116  1  0.77443000  0.07604000  0.63737000  1.0
  Br  Br117  1  0.31193000  0.18961000  0.47321000  1.0
  Br  Br118  1  0.37128000  0.11583000  0.44131000  1.0
  Br  Br119  1  0.16365000  0.09132000  0.44530000  1.0
  Br  Br120  1  0.21453000  0.03569000  0.38588000  1.0
  Br  Br121  1  0.34206000  0.80421000  0.53294000  1.0
  Br  Br122  1  0.38619000  0.88747000  0.56699000  1.0
  Br  Br123  1  0.17867000  0.85761000  0.58157000  1.0
  Br  Br124  1  0.22214000  0.92428000  0.63715000  1.0
  Br  Br125  1  0.83980000  0.90242000  0.42551000  1.0
  Br  Br126  1  0.78357000  0.97197000  0.38346000  1.0
  Br  Br127  1  0.69173000  0.81156000  0.46899000  1.0
  Br  Br128  1  0.63106000  0.88056000  0.43114000  1.0
  Br  Br129  1  0.92655000  0.46615000  0.82295000  1.0
  Br  Br130  1  0.99173000  0.42486000  0.76055000  1.0
  Br  Br131  1  0.78672000  0.42523000  0.72692000  1.0
  Br  Br132  1  0.85079000  0.37194000  0.67155000  1.0
  Br  Br133  1  0.88503000  0.59265000  0.17157000  1.0
  Br  Br134  1  0.94456000  0.65049000  0.22455000  1.0
  Br  Br135  1  0.80498000  0.52718000  0.30762000  1.0
  Br  Br136  1  0.88185000  0.56352000  0.36066000  1.0
  Br  Br137  1  0.10246000  0.42313000  0.16490000  1.0
  Br  Br138  1  0.03139000  0.37791000  0.21904000  1.0
  Br  Br139  1  0.20215000  0.46127000  0.29706000  1.0
  Br  Br140  1  0.13097000  0.41842000  0.35332000  1.0
  Br  Br141  1  0.06530000  0.49837000  0.79632000  1.0
  Br  Br142  1  0.01142000  0.52670000  0.71882000  1.0
  Br  Br143  1  0.20928000  0.58973000  0.73962000  1.0
  Br  Br144  1  0.14351000  0.64683000  0.69012000  1.0
  Br  Br145  1  0.67951000  0.48302000  0.17800000  1.0
  Br  Br146  1  0.62988000  0.44293000  0.10527000  1.0
  Br  Br147  1  0.83772000  0.42169000  0.12195000  1.0
  Br  Br148  1  0.78802000  0.36098000  0.06411000  1.0
  Br  Br149  1  0.16501000  0.58618000  0.12455000  1.0
  Br  Br150  1  0.21462000  0.64706000  0.06651000  1.0
  Br  Br151  1  0.32284000  0.51873000  0.17517000  1.0
  Br  Br152  1  0.37083000  0.55749000  0.10026000  1.0
  Br  Br153  1  0.31016000  0.45741000  0.80906000  1.0
  Br  Br154  1  0.36864000  0.41750000  0.87733000  1.0
  Br  Br155  1  0.16411000  0.44427000  0.90499000  1.0
  Br  Br156  1  0.21864000  0.39792000  0.97100000  1.0
  Br  Br157  1  0.83724000  0.57157000  0.90052000  1.0
  Br  Br158  1  0.78223000  0.62217000  0.96216000  1.0
  Br  Br159  1  0.68722000  0.52999000  0.81736000  1.0
  Br  Br160  1  0.62863000  0.55846000  0.89039000  1.0
  Br  Br161  1  0.79072000  0.32157000  0.45247000  1.0
  Br  Br162  1  0.87293000  0.37867000  0.42566000  1.0
  Br  Br163  1  0.88598000  0.17448000  0.43771000  1.0
  Br  Br164  1  0.96694000  0.22825000  0.40477000  1.0
  Br  Br165  1  0.81516000  0.68946000  0.51348000  1.0
  Br  Br166  1  0.88495000  0.63191000  0.55550000  1.0
  Br  Br167  1  0.89200000  0.83655000  0.57502000  1.0
  Br  Br168  1  0.95224000  0.78190000  0.62855000  1.0
  Br  Br169  1  0.20572000  0.66627000  0.46811000  1.0
  Br  Br170  1  0.12080000  0.62001000  0.43538000  1.0
  Br  Br171  1  0.14001000  0.82485000  0.42746000  1.0
  Br  Br172  1  0.06700000  0.78071000  0.37694000  1.0
  Br  Br173  1  0.20485000  0.27594000  0.57754000  1.0
  Br  Br174  1  0.13913000  0.33029000  0.62913000  1.0
  Br  Br175  1  0.06055000  0.20699000  0.49700000  1.0
  Br  Br176  1  0.00679000  0.28999000  0.52355000  1.0
  Br  Br177  1  0.51709000  0.19209000  0.30140000  1.0
  Br  Br178  1  0.54559000  0.11854000  0.36155000  1.0
  Br  Br179  1  0.55151000  0.08612000  0.17364000  1.0
  Br  Br180  1  0.59218000  0.01796000  0.23216000  1.0
  Br  Br181  1  0.43660000  0.09159000  0.82788000  1.0
  Br  Br182  1  0.37862000  0.03362000  0.77326000  1.0
  Br  Br183  1  0.47300000  0.19834000  0.69979000  1.0
  Br  Br184  1  0.44542000  0.12336000  0.64079000  1.0
  Br  Br185  1  0.51741000  0.80531000  0.68994000  1.0
  Br  Br186  1  0.54901000  0.88416000  0.63773000  1.0
  Br  Br187  1  0.59346000  0.87916000  0.82380000  1.0
  Br  Br188  1  0.65748000  0.92878000  0.76765000  1.0
  Br  Br189  1  0.40507000  0.79868000  0.25650000  1.0
  Br  Br190  1  0.34948000  0.86319000  0.30664000  1.0
  Br  Br191  1  0.50711000  0.93727000  0.20495000  1.0
  Br  Br192  1  0.47881000  0.98829000  0.28306000  1.0
  O  O1  1  0.33972000  0.60366000  0.96263000  1.0
  O  O2  1  0.39828000  0.66471000  0.03442000  1.0
  O  O3  1  0.34351000  0.60424000  0.03662000  1.0
  O  O4  1  0.39772000  0.66051000  0.95995000  1.0
  O  O5  1  0.34701000  0.70505000  0.95836000  1.0
  O  O6  1  0.29705000  0.65316000  0.03954000  1.0
  O  O7  1  0.34997000  0.71288000  0.03158000  1.0
  O  O8  1  0.28851000  0.64877000  0.96526000  1.0
  O  O9  1  0.60348000  0.33465000  0.04492000  1.0
  O  O10  1  0.65088000  0.39632000  0.96646000  1.0
  O  O11  1  0.59588000  0.33442000  0.97144000  1.0
  O  O12  1  0.65534000  0.39694000  0.04077000  1.0
  O  O13  1  0.70385000  0.34985000  0.04233000  1.0
  O  O14  1  0.65096000  0.29490000  0.96420000  1.0
  O  O15  1  0.70565000  0.35537000  0.96783000  1.0
  O  O16  1  0.65289000  0.28807000  0.03816000  1.0
  O  O17  1  0.35804000  0.41041000  0.03597000  1.0
  O  O18  1  0.41085000  0.35238000  0.95907000  1.0
  O  O19  1  0.35174000  0.40752000  0.96162000  1.0
  O  O20  1  0.41265000  0.34996000  0.03411000  1.0
  O  O21  1  0.36312000  0.30252000  0.03439000  1.0
  O  O22  1  0.30156000  0.36052000  0.96535000  1.0
  O  O23  1  0.35942000  0.30764000  0.96068000  1.0
  O  O24  1  0.30865000  0.36235000  0.03896000  1.0
  O  O25  1  0.64594000  0.59620000  0.03875000  1.0
  O  O26  1  0.58965000  0.65044000  0.96167000  1.0
  O  O27  1  0.64924000  0.59492000  0.96467000  1.0
  O  O28  1  0.58964000  0.65382000  0.03661000  1.0
  O  O29  1  0.63908000  0.70120000  0.03553000  1.0
  O  O30  1  0.69589000  0.64512000  0.96227000  1.0
  O  O31  1  0.63794000  0.69972000  0.96178000  1.0
  O  O32  1  0.69567000  0.64405000  0.03672000  1.0
  O  O33  1  0.39916000  0.04556000  0.34068000  1.0
  O  O34  1  0.36630000  0.96251000  0.40746000  1.0
  O  O35  1  0.41261000  0.96697000  0.34468000  1.0
  O  O36  1  0.35316000  0.04187000  0.40241000  1.0
  O  O37  1  0.29842000  0.03088000  0.36629000  1.0
  O  O38  1  0.35607000  0.95582000  0.30984000  1.0
  O  O39  1  0.30989000  0.95228000  0.37209000  1.0
  O  O40  1  0.34352000  0.03351000  0.30472000  1.0
  O  O41  1  0.64829000  0.96278000  0.59795000  1.0
  O  O42  1  0.59414000  0.03694000  0.66073000  1.0
  O  O43  1  0.64327000  0.04347000  0.60107000  1.0
  O  O44  1  0.59614000  0.95746000  0.65593000  1.0
  O  O45  1  0.65260000  0.95471000  0.69138000  1.0
  O  O46  1  0.69471000  0.04480000  0.64196000  1.0
  O  O47  1  0.64707000  0.03345000  0.70125000  1.0
  O  O48  1  0.70387000  0.96605000  0.63548000  1.0
  O  O49  1  0.59183000  0.95424000  0.34857000  1.0
  O  O50  1  0.63584000  0.03995000  0.40590000  1.0
  O  O51  1  0.58131000  0.03332000  0.34815000  1.0
  O  O52  1  0.64750000  0.96054000  0.40206000  1.0
  O  O53  1  0.69877000  0.97055000  0.36122000  1.0
  O  O54  1  0.63302000  0.04128000  0.30686000  1.0
  O  O55  1  0.68661000  0.04866000  0.36358000  1.0
  O  O56  1  0.64402000  0.96217000  0.30861000  1.0
  O  O57  1  0.34742000  0.04049000  0.59855000  1.0
  O  O58  1  0.40852000  0.96300000  0.65216000  1.0
  O  O59  1  0.35236000  0.95905000  0.59997000  1.0
  O  O60  1  0.40561000  0.04183000  0.65395000  1.0
  O  O61  1  0.35322000  0.04126000  0.69481000  1.0
  O  O62  1  0.30320000  0.95596000  0.64351000  1.0
  O  O63  1  0.35864000  0.96143000  0.69611000  1.0
  O  O64  1  0.29614000  0.03535000  0.64076000  1.0
  O  O65  1  0.96408000  0.65146000  0.39916000  1.0
  O  O66  1  0.04399000  0.59575000  0.34373000  1.0
  O  O67  1  0.04548000  0.65000000  0.39908000  1.0
  O  O68  1  0.96223000  0.60052000  0.34129000  1.0
  O  O69  1  0.96219000  0.65446000  0.30358000  1.0
  O  O70  1  0.05245000  0.69753000  0.35484000  1.0
  O  O71  1  0.04350000  0.64486000  0.30001000  1.0
  O  O72  1  0.97131000  0.70468000  0.36022000  1.0
  O  O73  1  0.95455000  0.36061000  0.59732000  1.0
  O  O74  1  0.03995000  0.40686000  0.65518000  1.0
  O  O75  1  0.03549000  0.35950000  0.59424000  1.0
  O  O76  1  0.95746000  0.40734000  0.65861000  1.0
  O  O77  1  0.96082000  0.35375000  0.69734000  1.0
  O  O78  1  0.03309000  0.30363000  0.63032000  1.0
  O  O79  1  0.04249000  0.35021000  0.68912000  1.0
  O  O80  1  0.95274000  0.30789000  0.63695000  1.0
  O  O81  1  0.04107000  0.63713000  0.59262000  1.0
  O  O82  1  0.95640000  0.59350000  0.65335000  1.0
  O  O83  1  0.96010000  0.64857000  0.59726000  1.0
  O  O84  1  0.03745000  0.58886000  0.65304000  1.0
  O  O85  1  0.04508000  0.64192000  0.69167000  1.0
  O  O86  1  0.96490000  0.69797000  0.63930000  1.0
  O  O87  1  0.96409000  0.64457000  0.69391000  1.0
  O  O88  1  0.04594000  0.69014000  0.63162000  1.0
  O  O89  1  0.04321000  0.35555000  0.39725000  1.0
  O  O90  1  0.95873000  0.41098000  0.34737000  1.0
  O  O91  1  0.96139000  0.35495000  0.40233000  1.0
  O  O92  1  0.03971000  0.40471000  0.33880000  1.0
  O  O93  1  0.03443000  0.35252000  0.29909000  1.0
  O  O94  1  0.95345000  0.30596000  0.35949000  1.0
  O  O95  1  0.95379000  0.36089000  0.30512000  1.0
  O  O96  1  0.03461000  0.30474000  0.35756000  1.0
