# generated using pymatgen
data_SiH24C36(N2O)4
_symmetry_space_group_name_H-M   'P 1'
_cell_length_a   26.03960000
_cell_length_b   56.19980000
_cell_length_c   56.19980000
_cell_angle_alpha   60.00000000
_cell_angle_beta   89.96060000
_cell_angle_gamma   90.00000000
_symmetry_Int_Tables_number   1
_chemical_formula_structural   SiH24C36(N2O)4
_chemical_formula_sum   'Si12 H288 C432 N96 O48'
_cell_volume   71225.30924150
_cell_formula_units_Z   12
loop_
 _symmetry_equiv_pos_site_id
 _symmetry_equiv_pos_as_xyz
  1  'x, y, z'
loop_
 _atom_site_type_symbol
 _atom_site_label
 _atom_site_symmetry_multiplicity
 _atom_site_fract_x
 _atom_site_fract_y
 _atom_site_fract_z
 _atom_site_occupancy
  Si  7  1  0.75316300  0.13052800  0.44119600  1
  Si  56  1  0.75040200  0.44162800  0.43366200  1
  Si  105  1  0.75269000  0.43573600  0.12843300  1
  Si  154  1  0.25227000  0.87187700  0.56257400  1
  Si  203  1  0.25099500  0.56389600  0.57151600  1
  Si  252  1  0.25230400  0.57201700  0.87060400  1
  Si  445  1  0.75316300  0.91700410  0.13870390  1
  Si  494  1  0.75040200  0.22810400  0.13117000  1
  Si  543  1  0.75269000  0.22221200  0.82594100  1
  Si  592  1  0.25227000  0.65835300  0.26008190  1
  Si  641  1  0.25099500  0.35037200  0.26902400  1
  Si  690  1  0.25230400  0.35849300  0.56811190  1
  H  26  1  0.62524900  0.19021300  0.37963500  1
  H  27  1  0.65978700  0.16019400  0.42394600  1
  H  28  1  0.75962300  0.18090300  0.34318200  1
  H  29  1  0.79385400  0.15076100  0.38673800  1
  H  30  1  0.82683400  0.17287800  0.42490700  1
  H  31  1  0.84340600  0.20497300  0.43996900  1
  H  32  1  0.72155700  0.17159200  0.49674900  1
  H  33  1  0.70469600  0.13935700  0.48232700  1
  H  34  1  0.75846100  0.09174600  0.49799100  1
  H  35  1  0.70732800  0.05254900  0.52696800  1
  H  36  1  0.60989000  0.07040600  0.46014800  1
  H  37  1  0.66085700  0.10876600  0.43085600  1
  H  38  1  0.76845700  0.09612500  0.41844800  1
  H  39  1  0.85315800  0.12186900  0.46610200  1
  H  40  1  0.92114100  0.09256300  0.46942100  1
  H  41  1  0.83708800  0.06613100  0.42273600  1
  H  43  1  0.65440500  0.22330100  0.33223400  1
  H  45  1  0.78400700  0.20537300  0.49597800  1
  H  47  1  0.61035100  0.03517700  0.52860900  1
  H  49  1  0.93807100  0.05941800  0.43416400  1
  H  75  1  0.61873300  0.38114900  0.43668700  1
  H  76  1  0.65515100  0.42519600  0.42199200  1
  H  77  1  0.75291800  0.34362100  0.48194000  1
  H  78  1  0.78897200  0.38686600  0.46813700  1
  H  79  1  0.82321900  0.42388800  0.40837800  1
  H  80  1  0.84096400  0.43859000  0.36139100  1
  H  81  1  0.72139700  0.49674000  0.33679900  1
  H  82  1  0.70339200  0.48267000  0.38325000  1
  H  83  1  0.76081200  0.49839400  0.41458100  1
  H  84  1  0.71290300  0.52923800  0.42354300  1
  H  85  1  0.60978300  0.46542800  0.47268200  1
  H  86  1  0.65747200  0.43422000  0.46471300  1
  H  87  1  0.76458800  0.41941700  0.49077600  1
  H  88  1  0.85181600  0.46484300  0.41781600  1
  H  89  1  0.91978100  0.46789800  0.44397600  1
  H  90  1  0.83324600  0.42339300  0.51663300  1
  H  92  1  0.64628000  0.33333333  0.45108167  1
  H  94  1  0.78441600  0.49539900  0.30433000  1
  H  96  1  0.60870800  0.53030300  0.44010600  1
  H  98  1  0.93594800  0.43432500  0.51186200  1
  H  124  1  0.62090200  0.43786600  0.18635500  1
  H  125  1  0.65752600  0.42352000  0.15676500  1
  H  126  1  0.75487000  0.48322700  0.17891500  1
  H  127  1  0.79108900  0.46978800  0.14922300  1
  H  128  1  0.82735400  0.41103700  0.17051200  1
  H  129  1  0.84641900  0.36419900  0.20265500  1
  H  130  1  0.72559200  0.33869400  0.17065500  1
  H  131  1  0.70634800  0.38500600  0.13836400  1
  H  132  1  0.76272600  0.41654600  0.09081100  1
  H  133  1  0.71432900  0.42529700  0.05123900  1
  H  134  1  0.61124600  0.47417900  0.06627900  1
  H  135  1  0.65941200  0.46642700  0.10520200  1
  H  136  1  0.76488100  0.49307700  0.09404600  1
  H  137  1  0.85421700  0.42113100  0.11974700  1
  H  138  1  0.92141200  0.44830900  0.09042300  1
  H  139  1  0.83279900  0.51996900  0.06415200  1
  H  141  1  0.64793200  0.45206300  0.21989700  1
  H  143  1  0.78977600  0.30673500  0.20383300  1
  H  145  1  0.61150300  0.44107100  0.03372100  1
  H  147  1  0.93919500  0.51431000  0.05932600  1
  H  173  1  0.11845000  0.81372200  0.62099600  1
  H  174  1  0.15669600  0.84336600  0.57743400  1
  H  175  1  0.25065300  0.82054100  0.66043400  1
  H  176  1  0.28836500  0.85023100  0.61776600  1
  H  177  1  0.33084600  0.83145900  0.58042500  1
  H  178  1  0.35424900  0.79949500  0.56609200  1
  H  179  1  0.23350600  0.82842400  0.50847000  1
  H  180  1  0.21010700  0.86055300  0.52203500  1
  H  181  1  0.26701600  0.90930800  0.50618800  1
  H  182  1  0.21981100  0.94869600  0.47390000  1
  H  183  1  0.10870000  0.93336400  0.53452200  1
  H  184  1  0.15567800  0.89454600  0.56725000  1
  H  185  1  0.25422800  0.90671200  0.58518600  1
  H  186  1  0.35743300  0.88172500  0.54336100  1
  H  187  1  0.42135400  0.91090300  0.54516400  1
  H  188  1  0.31850000  0.93666800  0.58573400  1
  H  190  1  0.14463000  0.77996000  0.66933000  1
  H  192  1  0.30115300  0.79661200  0.51006700  1
  H  194  1  0.10769800  0.96528200  0.47322000  1
  H  196  1  0.44027600  0.93753800  0.57576000  1
  H  222  1  0.12086200  0.62458700  0.56979200  1
  H  223  1  0.15659600  0.58044500  0.58417000  1
  H  224  1  0.25438600  0.66183500  0.52354600  1
  H  225  1  0.28970900  0.61853100  0.53704400  1
  H  226  1  0.32811900  0.58144900  0.59496800  1
  H  227  1  0.34923700  0.56723300  0.64152100  1
  H  228  1  0.22763800  0.51006800  0.66889900  1
  H  229  1  0.20615900  0.52370000  0.62294500  1
  H  230  1  0.26178600  0.50712300  0.59104700  1
  H  231  1  0.21323700  0.47576700  0.58313200  1
  H  232  1  0.10736300  0.53859400  0.53565900  1
  H  233  1  0.15577400  0.57039100  0.54253000  1
  H  234  1  0.25942000  0.58644600  0.51407400  1
  H  235  1  0.35292400  0.54089400  0.58444700  1
  H  236  1  0.41783700  0.53858600  0.55615900  1
  H  237  1  0.32506300  0.58336700  0.48610000  1
  H  239  1  0.14968700  0.67231000  0.55524000  1
  H  241  1  0.29428600  0.51141600  0.69991900  1
  H  243  1  0.10407600  0.47596200  0.56617400  1
  H  245  1  0.43359300  0.57275200  0.49117000  1
  H  271  1  0.11688400  0.56939900  0.81463900  1
  H  272  1  0.15513700  0.58365800  0.84398300  1
  H  273  1  0.25203500  0.52631100  0.81845300  1
  H  274  1  0.28996600  0.53977100  0.84776600  1
  H  275  1  0.32974000  0.59632300  0.82973600  1
  H  276  1  0.34954500  0.64311900  0.79755800  1
  H  277  1  0.22582900  0.66904100  0.82745600  1
  H  278  1  0.20573700  0.62282000  0.85968500  1
  H  279  1  0.26411700  0.59220600  0.90730800  1
  H  280  1  0.21820200  0.58334300  0.94765700  1
  H  281  1  0.11471400  0.53281000  0.93530600  1
  H  282  1  0.16023700  0.54089200  0.89541100  1
  H  283  1  0.26055700  0.51440800  0.90372800  1
  H  284  1  0.35464100  0.58424700  0.88088200  1
  H  285  1  0.41980700  0.55517300  0.91069700  1
  H  286  1  0.32624200  0.48570900  0.93403700  1
  H  288  1  0.14385800  0.55613800  0.77972500  1
  H  290  1  0.29174000  0.70074800  0.79519400  1
  H  292  1  0.11498300  0.56553600  0.96741900  1
  H  294  1  0.43850500  0.49266900  0.93828100  1
  H  301  1  0.07230900  0.01356300  0.44271300  1
  H  302  1  0.00400900  0.01623600  0.52083800  1
  H  313  1  0.06799600  0.44574100  0.54892200  1
  H  314  1  0.99707500  0.52194500  0.46748100  1
  H  325  1  0.07640300  0.54781500  0.01451900  1
  H  326  1  0.99334900  0.47230600  0.01275600  1
  H  337  1  0.56837300  0.99060600  0.55772100  1
  H  338  1  0.45764100  0.99372600  0.48777000  1
  H  349  1  0.56782000  0.55959400  0.45683100  1
  H  350  1  0.48205400  0.48382100  0.53263100  1
  H  361  1  0.57026200  0.45740900  0.98787600  1
  H  362  1  0.47719200  0.53062000  0.98923300  1
  H  373  1  0.74554500  0.29338500  0.28818900  1
  H  374  1  0.72341700  0.23010200  0.25499700  1
  H  385  1  0.73745300  0.28927200  0.42492100  1
  H  386  1  0.71639500  0.25634200  0.52140600  1
  H  397  1  0.73896700  0.42507600  0.29025600  1
  H  398  1  0.71790400  0.52177100  0.22765600  1
  H  409  1  0.24256100  0.71220600  0.71216900  1
  H  410  1  0.21458100  0.77458300  0.74596600  1
  H  421  1  0.24873300  0.71399500  0.58103900  1
  H  422  1  0.22239600  0.74843600  0.48463800  1
  H  433  1  0.24146300  0.58227100  0.71154000  1
  H  434  1  0.21694700  0.48578000  0.77385200  1
  H  464  1  0.62524900  0.97668910  0.07714290  1
  H  465  1  0.65978700  0.94667010  0.12145390  1
  H  466  1  0.75962300  0.96737910  0.04068990  1
  H  467  1  0.79385400  0.93723710  0.08424590  1
  H  468  1  0.82683400  0.95935410  0.12241490  1
  H  469  1  0.84340600  0.99144911  0.13747689  1
  H  470  1  0.72155700  0.95806810  0.19425690  1
  H  471  1  0.70469600  0.92583310  0.17983490  1
  H  472  1  0.75846100  0.87822200  0.19549900  1
  H  473  1  0.70732800  0.83902500  0.22447600  1
  H  474  1  0.60989000  0.85688200  0.15765600  1
  H  475  1  0.66085700  0.89524200  0.12836400  1
  H  476  1  0.76845700  0.88260100  0.11595593  1
  H  477  1  0.85315800  0.90834510  0.16360990  1
  H  478  1  0.92114100  0.87903900  0.16692900  1
  H  479  1  0.83708800  0.85260700  0.12024390  1
  H  481  1  0.65440500  0.00977700  0.02974200  1
  H  483  1  0.78400700  0.99184911  0.19348589  1
  H  485  1  0.61035100  0.82165300  0.22611700  1
  H  487  1  0.93807100  0.84589400  0.13167190  1
  H  513  1  0.61873300  0.16762500  0.13419500  1
  H  514  1  0.65515100  0.21167200  0.11950000  1
  H  515  1  0.75291800  0.13009700  0.17944800  1
  H  516  1  0.78897200  0.17334200  0.16564500  1
  H  517  1  0.82321900  0.21036400  0.10588600  1
  H  518  1  0.84096400  0.22506600  0.05889900  1
  H  519  1  0.72139700  0.28321600  0.03430700  1
  H  520  1  0.70339200  0.26914600  0.08075800  1
  H  521  1  0.76081200  0.28487000  0.11208900  1
  H  522  1  0.71290300  0.31571400  0.12105100  1
  H  523  1  0.60978300  0.25190400  0.17019000  1
  H  524  1  0.65747200  0.22069600  0.16222100  1
  H  525  1  0.76458800  0.20589300  0.18828400  1
  H  526  1  0.85181600  0.25131900  0.11532400  1
  H  527  1  0.91978100  0.25437400  0.14148400  1
  H  528  1  0.83324600  0.20986900  0.21414100  1
  H  530  1  0.64628000  0.11984200  0.14855700  1
  H  532  1  0.78441600  0.28187500  0.00183800  1
  H  534  1  0.60870800  0.31677900  0.13761400  1
  H  536  1  0.93594800  0.22080100  0.20937000  1
  H  562  1  0.62090200  0.22434200  0.88386300  1
  H  563  1  0.65752600  0.20999600  0.85427300  1
  H  564  1  0.75487000  0.26970300  0.87642300  1
  H  565  1  0.79108900  0.25626400  0.84673100  1
  H  566  1  0.82735400  0.19751300  0.86802000  1
  H  567  1  0.84641900  0.15067500  0.90016300  1
  H  568  1  0.72559200  0.12517000  0.86816293  1
  H  569  1  0.70634800  0.17148200  0.83587200  1
  H  570  1  0.76272600  0.20302200  0.78831893  1
  H  571  1  0.71432900  0.21177300  0.74874690  1
  H  572  1  0.61124600  0.26065500  0.76378700  1
  H  573  1  0.65941200  0.25290300  0.80271000  1
  H  574  1  0.76488100  0.27955300  0.79155400  1
  H  575  1  0.85421700  0.20760700  0.81725500  1
  H  576  1  0.92141200  0.23478500  0.78793100  1
  H  577  1  0.83279900  0.30644500  0.76166000  1
  H  579  1  0.64793200  0.23853900  0.91740500  1
  H  581  1  0.78977600  0.09321100  0.90134093  1
  H  583  1  0.61150300  0.22754700  0.73122890  1
  H  585  1  0.93919500  0.30078600  0.75683400  1
  H  611  1  0.11845000  0.60019800  0.31850390  1
  H  612  1  0.15669600  0.62984200  0.27494190  1
  H  613  1  0.25065300  0.60701700  0.35794190  1
  H  614  1  0.28836500  0.63670700  0.31527390  1
  H  615  1  0.33084600  0.61793500  0.27793300  1
  H  616  1  0.35424900  0.58597100  0.26360000  1
  H  617  1  0.23350600  0.61490000  0.20597800  1
  H  618  1  0.21010700  0.64702900  0.21954300  1
  H  619  1  0.26701600  0.69578400  0.20369600  1
  H  620  1  0.21981100  0.73517200  0.17140790  1
  H  621  1  0.10870000  0.71984000  0.23202990  1
  H  622  1  0.15567800  0.68102200  0.26475790  1
  H  623  1  0.25422800  0.69318800  0.28269390  1
  H  624  1  0.35743300  0.66820100  0.24086890  1
  H  625  1  0.42135400  0.69737900  0.24267190  1
  H  626  1  0.31850000  0.72314400  0.28324200  1
  H  628  1  0.14463000  0.56643600  0.36683790  1
  H  630  1  0.30115300  0.58308800  0.20757500  1
  H  632  1  0.10769800  0.75175800  0.17072790  1
  H  634  1  0.44027600  0.72401400  0.27326793  1
  H  660  1  0.12086200  0.41106300  0.26730000  1
  H  661  1  0.15659600  0.36692100  0.28167800  1
  H  662  1  0.25438600  0.44831100  0.22105400  1
  H  663  1  0.28970900  0.40500700  0.23455200  1
  H  664  1  0.32811900  0.36792500  0.29247600  1
  H  665  1  0.34923700  0.35370900  0.33902900  1
  H  666  1  0.22763800  0.29654400  0.36640700  1
  H  667  1  0.20615900  0.31017600  0.32045300  1
  H  668  1  0.26178600  0.29359900  0.28855500  1
  H  669  1  0.21323700  0.26224300  0.28064000  1
  H  670  1  0.10736300  0.32507000  0.23316700  1
  H  671  1  0.15577400  0.35686700  0.24003800  1
  H  672  1  0.25942000  0.37292200  0.21158200  1
  H  673  1  0.35292400  0.32737000  0.28195500  1
  H  674  1  0.41783700  0.32506200  0.25366700  1
  H  675  1  0.32506300  0.36984300  0.18360800  1
  H  677  1  0.14968700  0.45878600  0.25274800  1
  H  679  1  0.29428600  0.29789200  0.39742700  1
  H  681  1  0.10407600  0.26243800  0.26368200  1
  H  683  1  0.43359300  0.35922800  0.18867800  1
  H  709  1  0.11688400  0.35587500  0.51214700  1
  H  710  1  0.15513700  0.37013400  0.54149090  1
  H  711  1  0.25203500  0.31278700  0.51596100  1
  H  712  1  0.28996600  0.32624700  0.54527400  1
  H  713  1  0.32974000  0.38279900  0.52724390  1
  H  714  1  0.34954500  0.42959500  0.49506590  1
  H  715  1  0.22582900  0.45551700  0.52496390  1
  H  716  1  0.20573700  0.40929600  0.55719290  1
  H  717  1  0.26411700  0.37868200  0.60481590  1
  H  718  1  0.21820200  0.36981900  0.64516500  1
  H  719  1  0.11471400  0.31928600  0.63281390  1
  H  720  1  0.16023700  0.32736800  0.59291890  1
  H  721  1  0.26055700  0.30088400  0.60123590  1
  H  722  1  0.35464100  0.37072300  0.57838990  1
  H  723  1  0.41980700  0.34164900  0.60820490  1
  H  724  1  0.32624200  0.27218500  0.63154490  1
  H  726  1  0.14385800  0.34261400  0.47723300  1
  H  728  1  0.29174000  0.48722400  0.49270190  1
  H  730  1  0.11498300  0.35201200  0.66492700  1
  H  732  1  0.43850500  0.27914500  0.63578890  1
  H  739  1  0.07230900  0.80003900  0.14022090  1
  H  740  1  0.00400900  0.80271200  0.21834600  1
  H  751  1  0.06799600  0.23221700  0.24643000  1
  H  752  1  0.99707500  0.30842100  0.16498900  1
  H  763  1  0.07640300  0.33429100  0.71202700  1
  H  764  1  0.99334900  0.25878200  0.71026390  1
  H  775  1  0.56837300  0.77708200  0.25522900  1
  H  776  1  0.45764100  0.78020200  0.18527790  1
  H  787  1  0.56782000  0.34607000  0.15433900  1
  H  788  1  0.48205400  0.27029700  0.23013900  1
  H  799  1  0.57026200  0.24388500  0.68538390  1
  H  800  1  0.47719200  0.31709600  0.68674100  1
  H  811  1  0.74554500  0.07986100  0.98569700  1
  H  812  1  0.72341700  0.01657800  0.95250490  1
  H  823  1  0.73745300  0.07574800  0.12242900  1
  H  824  1  0.71639500  0.04281800  0.21891400  1
  H  835  1  0.73896700  0.21155200  0.98776400  1
  H  836  1  0.71790400  0.30824700  0.92516400  1
  H  847  1  0.24256100  0.49868200  0.40967690  1
  H  848  1  0.21458100  0.56105900  0.44347400  1
  H  859  1  0.24873300  0.50047100  0.27854700  1
  H  860  1  0.22239600  0.53491200  0.18214600  1
  H  871  1  0.24146300  0.36874700  0.40904800  1
  H  872  1  0.21694700  0.27225600  0.47136000  1
  C  1  1  0.88501100  0.07644300  0.44665500  1
  C  2  1  0.88939400  0.09360500  0.45822400  1
  C  3  1  0.84936700  0.11135600  0.45573500  1
  C  4  1  0.80442400  0.11312800  0.44079800  1
  C  5  1  0.80088100  0.09626500  0.42868300  1
  C  6  1  0.84112800  0.07854200  0.43109700  1
  C  8  1  0.71384900  0.10512900  0.46156600  1
  C  9  1  0.67081900  0.09793900  0.45112200  1
  C  10  1  0.64124000  0.07475800  0.46826200  1
  C  11  1  0.65478200  0.05749600  0.49609500  1
  C  12  1  0.69701400  0.06469400  0.50683500  1
  C  13  1  0.72687900  0.08784400  0.48962900  1
  C  14  1  0.76551800  0.15184600  0.45292500  1
  C  15  1  0.72913200  0.15084100  0.41004500  1
  C  16  1  0.68078500  0.16358800  0.40711400  1
  C  17  1  0.66002900  0.18115300  0.38098000  1
  C  18  1  0.68720900  0.18711900  0.35685000  1
  C  19  1  0.73661700  0.17540200  0.35986900  1
  C  20  1  0.75722600  0.15765400  0.38592000  1
  C  21  1  0.80488700  0.17178800  0.44055500  1
  C  22  1  0.81507800  0.19065600  0.44944400  1
  C  23  1  0.78470600  0.19089200  0.47013800  1
  C  24  1  0.74531300  0.17117300  0.48245300  1
  C  25  1  0.73544400  0.15216000  0.47376300  1
  C  50  1  0.88252700  0.44600600  0.48264200  1
  C  51  1  0.88766000  0.45700800  0.45402200  1
  C  52  1  0.84760100  0.45469800  0.43867300  1
  C  53  1  0.80178500  0.44063700  0.45165000  1
  C  54  1  0.79763100  0.42896700  0.48056400  1
  C  55  1  0.83792600  0.43114800  0.49597600  1
  C  57  1  0.71297800  0.46326000  0.43776900  1
  C  58  1  0.66908900  0.45425500  0.45491600  1
  C  59  1  0.64125900  0.47252300  0.46012200  1
  C  60  1  0.65747900  0.50004200  0.44907300  1
  C  61  1  0.70054800  0.50939600  0.43164200  1
  C  62  1  0.72852800  0.49106600  0.42651000  1
  C  63  1  0.76302700  0.45263400  0.40077100  1
  C  64  1  0.72457200  0.41075000  0.44500700  1
  C  65  1  0.67567800  0.40819600  0.43546600  1
  C  66  1  0.65385300  0.38222300  0.44424600  1
  C  67  1  0.68046500  0.35786700  0.46234700  1
  C  68  1  0.73038100  0.36050100  0.47076200  1
  C  69  1  0.75202700  0.38638000  0.46227200  1
  C  70  1  0.80191200  0.43968300  0.39360400  1
  C  71  1  0.81275500  0.44834400  0.36594800  1
  C  72  1  0.78352900  0.46940400  0.34471800  1
  C  73  1  0.74436400  0.48214700  0.35173600  1
  C  74  1  0.73383100  0.47367500  0.37932600  1
  C  99  1  0.88308300  0.48655700  0.07472800  1
  C  100  1  0.88902600  0.45790000  0.09173900  1
  C  101  1  0.84941200  0.44195100  0.10941200  1
  C  102  1  0.80329700  0.45435200  0.11109200  1
  C  103  1  0.79818300  0.48327200  0.09426700  1
  C  104  1  0.83802000  0.49929400  0.07666500  1
  C  106  1  0.71494000  0.43961100  0.10291900  1
  C  107  1  0.67094500  0.45664500  0.09493300  1
  C  108  1  0.64287800  0.46176400  0.07157100  1
  C  109  1  0.65896300  0.45076400  0.05503200  1
  C  110  1  0.70209600  0.43340200  0.06299800  1
  C  111  1  0.73035600  0.42837800  0.08633200  1
  C  112  1  0.76645800  0.40296100  0.15010000  1
  C  113  1  0.72678600  0.44668200  0.14827900  1
  C  114  1  0.67795600  0.43694500  0.16040800  1
  C  115  1  0.65600200  0.44553700  0.17772700  1
  C  116  1  0.68247400  0.46357400  0.18412900  1
  C  117  1  0.73239000  0.47212600  0.17309200  1
  C  118  1  0.75415600  0.46383000  0.15557500  1
  C  119  1  0.80612100  0.39609900  0.16973900  1
  C  120  1  0.81776300  0.36853500  0.18863400  1
  C  121  1  0.78853200  0.34708800  0.18923400  1
  C  122  1  0.74859000  0.35379600  0.16995600  1
  C  123  1  0.73731300  0.38130100  0.15090100  1
  C  148  1  0.37595800  0.92559000  0.56642400  1
  C  149  1  0.38682200  0.90912400  0.55461700  1
  C  150  1  0.34896900  0.89181500  0.55375500  1
  C  151  1  0.29990500  0.88999100  0.56539700  1
  C  152  1  0.28965500  0.90663100  0.57729500  1
  C  153  1  0.32728200  0.92421600  0.57787000  1
  C  155  1  0.21498400  0.89693400  0.53982600  1
  C  156  1  0.16884300  0.90464500  0.54748700  1
  C  157  1  0.14129300  0.92780400  0.52833800  1
  C  158  1  0.15989100  0.94420100  0.50128800  1
  C  159  1  0.20546800  0.93672200  0.49329600  1
  C  160  1  0.23298400  0.91351600  0.51247400  1
  C  161  1  0.26986200  0.85052600  0.55164700  1
  C  162  1  0.22498800  0.85167900  0.59292700  1
  C  163  1  0.17637800  0.83957200  0.59475100  1
  C  164  1  0.15354700  0.82217400  0.62042600  1
  C  165  1  0.17894300  0.81566800  0.64517300  1
  C  166  1  0.22888600  0.82645700  0.64325600  1
  C  167  1  0.25150200  0.84400400  0.61770800  1
  C  168  1  0.31070400  0.83174100  0.56464600  1
  C  169  1  0.32483600  0.81292900  0.55622700  1
  C  170  1  0.29694800  0.81149800  0.53544600  1
  C  171  1  0.25566100  0.82981800  0.52275500  1
  C  172  1  0.24194300  0.84879000  0.53094400  1
  C  197  1  0.37726800  0.56093000  0.51861900  1
  C  198  1  0.38511000  0.54944000  0.54713300  1
  C  199  1  0.34683700  0.55121900  0.56372100  1
  C  200  1  0.30020800  0.56512100  0.55209800  1
  C  201  1  0.29317700  0.57699500  0.52330900  1
  C  202  1  0.33163000  0.57535000  0.50665300  1
  C  204  1  0.21263400  0.54183600  0.56864400  1
  C  205  1  0.16756400  0.55038800  0.55242500  1
  C  206  1  0.13917300  0.53177100  0.54796600  1
  C  207  1  0.15597800  0.50437600  0.55890600  1
  C  208  1  0.20028700  0.49546400  0.57535700  1
  C  209  1  0.22864000  0.51410800  0.57984400  1
  C  210  1  0.26653300  0.55309400  0.60403500  1
  C  211  1  0.22541800  0.59476200  0.56054300  1
  C  212  1  0.17705700  0.59741000  0.57054300  1
  C  213  1  0.15566700  0.62344200  0.56196700  1
  C  214  1  0.18228000  0.64775400  0.54368600  1
  C  215  1  0.23179700  0.64500700  0.53489600  1
  C  216  1  0.25297200  0.61908600  0.54316800  1
  C  217  1  0.30715500  0.56589100  0.61025000  1
  C  218  1  0.31999700  0.55751300  0.63762500  1
  C  219  1  0.29126400  0.53684700  0.65952100  1
  C  220  1  0.25033400  0.52429500  0.65345200  1
  C  221  1  0.23775300  0.53251300  0.62615300  1
  C  246  1  0.37896900  0.51787700  0.92463500  1
  C  247  1  0.38696100  0.54648100  0.90847200  1
  C  248  1  0.34854600  0.56352700  0.89061700  1
  C  249  1  0.30172100  0.55227400  0.88799000  1
  C  250  1  0.29451300  0.52340900  0.90410600  1
  C  251  1  0.33298500  0.50631600  0.92197000  1
  C  253  1  0.21551400  0.56855100  0.89630900  1
  C  254  1  0.17208400  0.55107500  0.90523100  1
  C  255  1  0.14562100  0.54579300  0.92911800  1
  C  256  1  0.16267100  0.55723700  0.94509200  1
  C  257  1  0.20518000  0.57505400  0.93620500  1
  C  258  1  0.23192800  0.58015700  0.91240500  1
  C  259  1  0.26741600  0.60465800  0.84917500  1
  C  260  1  0.22523400  0.56156700  0.85063100  1
  C  261  1  0.17558600  0.57079200  0.83955000  1
  C  262  1  0.15273300  0.56228300  0.82235800  1
  C  263  1  0.17905400  0.54483900  0.81509300  1
  C  264  1  0.22988100  0.53704000  0.82487500  1
  C  265  1  0.25258100  0.54529600  0.84219400  1
  C  266  1  0.30819200  0.61135400  0.83014700  1
  C  267  1  0.32025800  0.63888100  0.81124300  1
  C  268  1  0.29046500  0.66043600  0.81005600  1
  C  269  1  0.24932400  0.65387500  0.82867400  1
  C  270  1  0.23755700  0.62642400  0.84768800  1
  C  295  1  0.05816900  0.01405300  0.45942400  1
  C  297  1  0.98963000  0.02675600  0.47923400  1
  C  298  1  0.01757300  0.01571700  0.50404500  1
  C  300  1  0.08598800  0.00326800  0.48419100  1
  C  303  1  0.94205500  0.04012900  0.47584700  1
  C  304  1  0.13237100  0.98878100  0.48892500  1
  C  307  1  0.05323000  0.46207600  0.53162800  1
  C  309  1  0.98438100  0.48039600  0.49919200  1
  C  310  1  0.01115200  0.50556800  0.48497000  1
  C  312  1  0.07993200  0.48718900  0.51717100  1
  C  315  1  0.93732600  0.47610000  0.48946300  1
  C  316  1  0.12595800  0.49288800  0.52638000  1
  C  319  1  0.05911000  0.53172700  0.01407100  1
  C  321  1  0.98511200  0.50293500  0.02447400  1
  C  322  1  0.01005400  0.48854900  0.01315200  1
  C  324  1  0.08391500  0.51712800  0.00299800  1
  C  327  1  0.93634300  0.49492400  0.03697600  1
  C  328  1  0.13141500  0.52486000  0.98930300  1
  C  331  1  0.54508900  0.99158300  0.54263800  1
  C  333  1  0.46365200  0.98123800  0.53036500  1
  C  334  1  0.48026900  0.99328100  0.50283100  1
  C  336  1  0.56179800  0.00325600  0.51517300  1
  C  339  1  0.41564800  0.96803600  0.53895700  1
  C  340  1  0.60911800  0.01670800  0.50552500  1
  C  343  1  0.54988200  0.54333100  0.47290600  1
  C  345  1  0.47526500  0.52602600  0.50140400  1
  C  346  1  0.49929000  0.50011400  0.51625800  1
  C  348  1  0.57388700  0.51749700  0.48805000  1
  C  351  1  0.42685000  0.53122800  0.50915000  1
  C  352  1  0.62170800  0.51101100  0.48114800  1
  C  355  1  0.55076100  0.47292100  0.98838300  1
  C  357  1  0.47391300  0.49962100  0.97781700  1
  C  358  1  0.49599800  0.51474000  0.98908900  1
  C  360  1  0.57292000  0.48837700  0.99922100  1
  C  363  1  0.42533700  0.50636000  0.96504100  1
  C  364  1  0.62088200  0.48241400  0.01239500  1
  C  367  1  0.74156300  0.28030700  0.28064100  1
  C  369  1  0.70827600  0.23732300  0.28818000  1
  C  370  1  0.72759400  0.24339600  0.26227800  1
  C  372  1  0.76028900  0.28667800  0.25453100  1
  C  375  1  0.68581500  0.21177900  0.30713300  1
  C  376  1  0.78245900  0.31261800  0.23622200  1
  C  379  1  0.73366700  0.28178000  0.44555000  1
  C  381  1  0.70031100  0.28929300  0.48102000  1
  C  382  1  0.72029100  0.26356300  0.50082700  1
  C  384  1  0.75312100  0.25586500  0.46528400  1
  C  387  1  0.67758800  0.30819100  0.48763400  1
  C  388  1  0.77612100  0.23770500  0.45770100  1
  C  391  1  0.73522100  0.44574300  0.27731900  1
  C  393  1  0.70218900  0.48156000  0.23448800  1
  C  394  1  0.72185700  0.50115100  0.24079700  1
  C  396  1  0.75428000  0.46524500  0.28393100  1
  C  399  1  0.67957700  0.48848800  0.20889100  1
  C  400  1  0.77647000  0.45731900  0.30992900  1
  C  403  1  0.23739600  0.72513500  0.71981500  1
  C  405  1  0.19938900  0.76691800  0.71308000  1
  C  406  1  0.21996900  0.76147800  0.73854500  1
  C  408  1  0.25748500  0.71943000  0.74546500  1
  C  411  1  0.17381200  0.79173900  0.69472900  1
  C  412  1  0.28285000  0.69431100  0.76325500  1
  C  415  1  0.24394400  0.72177100  0.56042300  1
  C  417  1  0.20620100  0.71551700  0.52504000  1
  C  418  1  0.22745700  0.74088800  0.50520400  1
  C  420  1  0.26478900  0.74732100  0.54067500  1
  C  423  1  0.18026800  0.69742200  0.51838400  1
  C  424  1  0.29030800  0.76485800  0.54829700  1
  C  427  1  0.23703500  0.56164000  0.72445100  1
  C  429  1  0.20004900  0.52612800  0.76631900  1
  C  430  1  0.22158900  0.50636700  0.76076200  1
  C  432  1  0.25809200  0.54195400  0.71862600  1
  C  435  1  0.17448400  0.51929700  0.79124100  1
  C  436  1  0.28349500  0.54959100  0.69341300  1
  C  439  1  0.88501100  0.86291900  0.14416300  1
  C  440  1  0.88939400  0.88008100  0.15573200  1
  C  441  1  0.84936700  0.89783200  0.15324300  1
  C  442  1  0.80442400  0.89960400  0.13830600  1
  C  443  1  0.80088100  0.88274100  0.12619100  1
  C  444  1  0.84112800  0.86501800  0.12860493  1
  C  446  1  0.71384900  0.89160500  0.15907400  1
  C  447  1  0.67081900  0.88441500  0.14863000  1
  C  448  1  0.64124000  0.86123400  0.16577000  1
  C  449  1  0.65478200  0.84397200  0.19360300  1
  C  450  1  0.69701400  0.85117000  0.20434300  1
  C  451  1  0.72687900  0.87432000  0.18713700  1
  C  452  1  0.76551800  0.93832210  0.15043290  1
  C  453  1  0.72913200  0.93731710  0.10755290  1
  C  454  1  0.68078500  0.95006410  0.10462190  1
  C  455  1  0.66002900  0.96762910  0.07848790  1
  C  456  1  0.68720900  0.97359510  0.05435790  1
  C  457  1  0.73661700  0.96187810  0.05737690  1
  C  458  1  0.75722600  0.94413010  0.08342790  1
  C  459  1  0.80488700  0.95826410  0.13806290  1
  C  460  1  0.81507800  0.97713210  0.14695190  1
  C  461  1  0.78470600  0.97736810  0.16764590  1
  C  462  1  0.74531300  0.95764910  0.17996090  1
  C  463  1  0.73544400  0.93863610  0.17127090  1
  C  488  1  0.88252700  0.23248200  0.18015000  1
  C  489  1  0.88766000  0.24348400  0.15153000  1
  C  490  1  0.84760100  0.24117400  0.13618100  1
  C  491  1  0.80178500  0.22711300  0.14915800  1
  C  492  1  0.79763100  0.21544300  0.17807200  1
  C  493  1  0.83792600  0.21762400  0.19348400  1
  C  495  1  0.71297800  0.24973600  0.13527700  1
  C  496  1  0.66908900  0.24073100  0.15242400  1
  C  497  1  0.64125900  0.25899900  0.15763000  1
  C  498  1  0.65747900  0.28651800  0.14658100  1
  C  499  1  0.70054800  0.29587200  0.12915000  1
  C  500  1  0.72852800  0.27754200  0.12401800  1
  C  501  1  0.76302700  0.23911000  0.09827900  1
  C  502  1  0.72457200  0.19722600  0.14251500  1
  C  503  1  0.67567800  0.19467200  0.13297400  1
  C  504  1  0.65385300  0.16869900  0.14175400  1
  C  505  1  0.68046500  0.14434300  0.15985500  1
  C  506  1  0.73038100  0.14697700  0.16827000  1
  C  507  1  0.75202700  0.17285600  0.15978000  1
  C  508  1  0.80191200  0.22615900  0.09111200  1
  C  509  1  0.81275500  0.23482000  0.06345600  1
  C  510  1  0.78352900  0.25588000  0.04222600  1
  C  511  1  0.74436400  0.26862300  0.04924400  1
  C  512  1  0.73383100  0.26015100  0.07683400  1
  C  537  1  0.88308300  0.27303300  0.77223600  1
  C  538  1  0.88902600  0.24437600  0.78924700  1
  C  539  1  0.84941200  0.22842700  0.80692000  1
  C  540  1  0.80329700  0.24082800  0.80860000  1
  C  541  1  0.79818300  0.26974800  0.79177500  1
  C  542  1  0.83802000  0.28577000  0.77417300  1
  C  544  1  0.71494000  0.22608700  0.80042700  1
  C  545  1  0.67094500  0.24312100  0.79244100  1
  C  546  1  0.64287800  0.24824000  0.76907900  1
  C  547  1  0.65896300  0.23724000  0.75253990  1
  C  548  1  0.70209600  0.21987800  0.76050590  1
  C  549  1  0.73035600  0.21485400  0.78383993  1
  C  550  1  0.76645800  0.18943700  0.84760800  1
  C  551  1  0.72678600  0.23315800  0.84578700  1
  C  552  1  0.67795600  0.22342100  0.85791600  1
  C  553  1  0.65600200  0.23201300  0.87523500  1
  C  554  1  0.68247400  0.25005000  0.88163700  1
  C  555  1  0.73239000  0.25860200  0.87060000  1
  C  556  1  0.75415600  0.25030600  0.85308300  1
  C  557  1  0.80612100  0.18257500  0.86724700  1
  C  558  1  0.81776300  0.15501100  0.88614200  1
  C  559  1  0.78853200  0.13356400  0.88674200  1
  C  560  1  0.74859000  0.14027200  0.86746400  1
  C  561  1  0.73731300  0.16777700  0.84840900  1
  C  586  1  0.37595800  0.71206600  0.26393190  1
  C  587  1  0.38682200  0.69560000  0.25212490  1
  C  588  1  0.34896900  0.67829100  0.25126290  1
  C  589  1  0.29990500  0.67646700  0.26290490  1
  C  590  1  0.28965500  0.69310700  0.27480290  1
  C  591  1  0.32728200  0.71069200  0.27537790  1
  C  593  1  0.21498400  0.68341000  0.23733390  1
  C  594  1  0.16884300  0.69112100  0.24499490  1
  C  595  1  0.14129300  0.71428000  0.22584590  1
  C  596  1  0.15989100  0.73067700  0.19879590  1
  C  597  1  0.20546800  0.72319800  0.19080390  1
  C  598  1  0.23298400  0.69999200  0.20998190  1
  C  599  1  0.26986200  0.63700200  0.24915500  1
  C  600  1  0.22498800  0.63815500  0.29043490  1
  C  601  1  0.17637800  0.62604800  0.29225890  1
  C  602  1  0.15354700  0.60865000  0.31793390  1
  C  603  1  0.17894300  0.60214400  0.34268090  1
  C  604  1  0.22888600  0.61293300  0.34076390  1
  C  605  1  0.25150200  0.63048000  0.31521590  1
  C  606  1  0.31070400  0.61821700  0.26215400  1
  C  607  1  0.32483600  0.59940500  0.25373500  1
  C  608  1  0.29694800  0.59797400  0.23295400  1
  C  609  1  0.25566100  0.61629400  0.22026300  1
  C  610  1  0.24194300  0.63526600  0.22845200  1
  C  635  1  0.37726800  0.34740600  0.21612700  1
  C  636  1  0.38511000  0.33591600  0.24464100  1
  C  637  1  0.34683700  0.33769500  0.26122900  1
  C  638  1  0.30020800  0.35159700  0.24960600  1
  C  639  1  0.29317700  0.36347100  0.22081700  1
  C  640  1  0.33163000  0.36182600  0.20416100  1
  C  642  1  0.21263400  0.32831200  0.26615200  1
  C  643  1  0.16756400  0.33686400  0.24993300  1
  C  644  1  0.13917300  0.31824700  0.24547400  1
  C  645  1  0.15597800  0.29085200  0.25641400  1
  C  646  1  0.20028700  0.28194000  0.27286500  1
  C  647  1  0.22864000  0.30058400  0.27735200  1
  C  648  1  0.26653300  0.33957000  0.30154300  1
  C  649  1  0.22541800  0.38123800  0.25805100  1
  C  650  1  0.17705700  0.38388600  0.26805100  1
  C  651  1  0.15566700  0.40991800  0.25947500  1
  C  652  1  0.18228000  0.43423000  0.24119400  1
  C  653  1  0.23179700  0.43148300  0.23240400  1
  C  654  1  0.25297200  0.40556200  0.24067600  1
  C  655  1  0.30715500  0.35236700  0.30775800  1
  C  656  1  0.31999700  0.34398900  0.33513300  1
  C  657  1  0.29126400  0.32332300  0.35702900  1
  C  658  1  0.25033400  0.31077100  0.35096000  1
  C  659  1  0.23775300  0.31898900  0.32366100  1
  C  684  1  0.37896900  0.30435300  0.62214290  1
  C  685  1  0.38696100  0.33295700  0.60597990  1
  C  686  1  0.34854600  0.35000300  0.58812490  1
  C  687  1  0.30172100  0.33875000  0.58549790  1
  C  688  1  0.29451300  0.30988500  0.60161390  1
  C  689  1  0.33298500  0.29279200  0.61947790  1
  C  691  1  0.21551400  0.35502700  0.59381690  1
  C  692  1  0.17208400  0.33755100  0.60273890  1
  C  693  1  0.14562100  0.33226900  0.62662590  1
  C  694  1  0.16267100  0.34371300  0.64259990  1
  C  695  1  0.20518000  0.36153000  0.63371293  1
  C  696  1  0.23192800  0.36663300  0.60991290  1
  C  697  1  0.26741600  0.39113400  0.54668290  1
  C  698  1  0.22523400  0.34804300  0.54813900  1
  C  699  1  0.17558600  0.35726800  0.53705800  1
  C  700  1  0.15273300  0.34875900  0.51986600  1
  C  701  1  0.17905400  0.33131500  0.51260100  1
  C  702  1  0.22988100  0.32351600  0.52238300  1
  C  703  1  0.25258100  0.33177200  0.53970200  1
  C  704  1  0.30819200  0.39783000  0.52765490  1
  C  705  1  0.32025800  0.42535700  0.50875090  1
  C  706  1  0.29046500  0.44691200  0.50756390  1
  C  707  1  0.24932400  0.44035100  0.52618190  1
  C  708  1  0.23755700  0.41290000  0.54519590  1
  C  733  1  0.05816900  0.80052900  0.15693190  1
  C  735  1  0.98963000  0.81323200  0.17674190  1
  C  736  1  0.01757300  0.80219300  0.20155300  1
  C  738  1  0.08598800  0.78974400  0.18169890  1
  C  741  1  0.94205500  0.82660500  0.17335493  1
  C  742  1  0.13237100  0.77525700  0.18643290  1
  C  745  1  0.05323000  0.24855200  0.22913600  1
  C  747  1  0.98438100  0.26687200  0.19670000  1
  C  748  1  0.01115200  0.29204400  0.18247800  1
  C  750  1  0.07993200  0.27366500  0.21467900  1
  C  753  1  0.93732600  0.26257600  0.18697100  1
  C  754  1  0.12595800  0.27936400  0.22388800  1
  C  757  1  0.05911000  0.31820300  0.71157900  1
  C  759  1  0.98511200  0.28941100  0.72198200  1
  C  760  1  0.01005400  0.27502500  0.71065990  1
  C  762  1  0.08391500  0.30360400  0.70050600  1
  C  765  1  0.93634300  0.28140000  0.73448400  1
  C  766  1  0.13141500  0.31133600  0.68681093  1
  C  769  1  0.54508900  0.77805900  0.24014600  1
  C  771  1  0.46365200  0.76771400  0.22787293  1
  C  772  1  0.48026900  0.77975700  0.20033890  1
  C  774  1  0.56179800  0.78973200  0.21268100  1
  C  777  1  0.41564800  0.75451200  0.23646493  1
  C  778  1  0.60911800  0.80318400  0.20303300  1
  C  781  1  0.54988200  0.32980700  0.17041400  1
  C  783  1  0.47526500  0.31250200  0.19891200  1
  C  784  1  0.49929000  0.28659000  0.21376600  1
  C  786  1  0.57388700  0.30397300  0.18555800  1
  C  789  1  0.42685000  0.31770400  0.20665800  1
  C  790  1  0.62170800  0.29748700  0.17865600  1
  C  793  1  0.55076100  0.25939700  0.68589090  1
  C  795  1  0.47391300  0.28609700  0.67532490  1
  C  796  1  0.49599800  0.30121600  0.68659690  1
  C  798  1  0.57292000  0.27485300  0.69672890  1
  C  801  1  0.42533700  0.29283600  0.66254890  1
  C  802  1  0.62088200  0.26889000  0.70990290  1
  C  805  1  0.74156300  0.06678300  0.97814900  1
  C  807  1  0.70827600  0.02379900  0.98568800  1
  C  808  1  0.72759400  0.02987200  0.95978590  1
  C  810  1  0.76028900  0.07315400  0.95203900  1
  C  813  1  0.68581500  0.99825511  0.00464089  1
  C  814  1  0.78245900  0.09909400  0.93373000  1
  C  817  1  0.73366700  0.06825600  0.14305800  1
  C  819  1  0.70031100  0.07576900  0.17852800  1
  C  820  1  0.72029100  0.05003900  0.19833500  1
  C  822  1  0.75312100  0.04234100  0.16279200  1
  C  825  1  0.67758800  0.09466700  0.18514200  1
  C  826  1  0.77612100  0.02418100  0.15520900  1
  C  829  1  0.73522100  0.23221900  0.97482700  1
  C  831  1  0.70218900  0.26803600  0.93199600  1
  C  832  1  0.72185700  0.28762700  0.93830500  1
  C  834  1  0.75428000  0.25172100  0.98143900  1
  C  837  1  0.67957700  0.27496400  0.90639900  1
  C  838  1  0.77647000  0.24379500  0.00743700  1
  C  841  1  0.23739600  0.51161100  0.41732290  1
  C  843  1  0.19938900  0.55339400  0.41058790  1
  C  844  1  0.21996900  0.54795400  0.43605290  1
  C  846  1  0.25748500  0.50590600  0.44297290  1
  C  849  1  0.17381200  0.57821500  0.39223690  1
  C  850  1  0.28285000  0.48078700  0.46076290  1
  C  853  1  0.24394400  0.50824700  0.25793100  1
  C  855  1  0.20620100  0.50199300  0.22254800  1
  C  856  1  0.22745700  0.52736400  0.20271200  1
  C  858  1  0.26478900  0.53379700  0.23818300  1
  C  861  1  0.18026800  0.48389800  0.21589200  1
  C  862  1  0.29030800  0.55133400  0.24580500  1
  C  865  1  0.23703500  0.34811600  0.42195900  1
  C  867  1  0.20004900  0.31260400  0.46382700  1
  C  868  1  0.22158900  0.29284300  0.45827000  1
  C  870  1  0.25809200  0.32843000  0.41613400  1
  C  873  1  0.17448400  0.30577300  0.48874900  1
  C  874  1  0.28349500  0.33606700  0.39092100  1
  N  42  1  0.66907600  0.20743400  0.33197200  1
  N  44  1  0.78854000  0.21126900  0.47657800  1
  N  46  1  0.62587300  0.03509600  0.51284800  1
  N  48  1  0.92247800  0.05795500  0.45061800  1
  N  91  1  0.66122400  0.33309400  0.46712200  1
  N  93  1  0.78814100  0.47595900  0.31791900  1
  N  95  1  0.63143200  0.51758600  0.45473600  1
  N  97  1  0.91942100  0.45051400  0.49703100  1
  N  140  1  0.66304400  0.46818900  0.20420100  1
  N  142  1  0.79373500  0.32037300  0.20960700  1
  N  144  1  0.63253300  0.45620400  0.03200300  1
  N  146  1  0.91964800  0.50153800  0.05590600  1
  N  189  1  0.15847400  0.79591100  0.66974900  1
  N  191  1  0.30460500  0.79100500  0.52943700  1
  N  193  1  0.13532500  0.96776700  0.48348800  1
  N  195  1  0.41029800  0.94483100  0.56389300  1
  N  238  1  0.16344700  0.67262600  0.53889900  1
  N  240  1  0.29785000  0.53075900  0.68608800  1
  N  242  1  0.13059700  0.48690400  0.55295100  1
  N  244  1  0.41235300  0.55692400  0.50310400  1
  N  287  1  0.15794000  0.53982500  0.79559100  1
  N  289  1  0.29607200  0.68707300  0.78950700  1
  N  291  1  0.13818200  0.55128000  0.96875800  1
  N  293  1  0.41380100  0.50187100  0.94398700  1
  N  296  1  0.01167100  0.02555300  0.45789200  1
  N  299  1  0.06424400  0.00450500  0.50551800  1
  N  308  1  0.00711200  0.45963100  0.52190200  1
  N  311  1  0.05750500  0.50792000  0.49443000  1
  N  320  1  0.01123700  0.52386400  0.02457600  1
  N  323  1  0.05805000  0.49617400  0.00294500  1
  N  332  1  0.49722700  0.98073900  0.54915000  1
  N  335  1  0.52842600  0.00361700  0.49642500  1
  N  344  1  0.50210100  0.54660500  0.48040300  1
  N  347  1  0.54730100  0.49694700  0.50908500  1
  N  356  1  0.50270700  0.47941200  0.97781800  1
  N  359  1  0.54432500  0.50862100  0.99916300  1
  N  368  1  0.71687900  0.25620900  0.29611900  1
  N  371  1  0.75203000  0.26768500  0.24662200  1
  N  380  1  0.70865200  0.29716000  0.45418400  1
  N  383  1  0.74514000  0.24802100  0.49219100  1
  N  392  1  0.71050300  0.45464800  0.25319600  1
  N  395  1  0.74631300  0.49222900  0.26511500  1
  N  404  1  0.20978800  0.74833600  0.70494000  1
  N  407  1  0.24738100  0.73809600  0.75359100  1
  N  416  1  0.21612900  0.70717100  0.55184500  1
  N  419  1  0.25508100  0.75565900  0.51379900  1
  N  428  1  0.20949200  0.55297100  0.74775200  1
  N  431  1  0.24892900  0.51504700  0.73728500  1
  N  480  1  0.66907600  0.99391011  0.02947989  1
  N  482  1  0.78854000  0.99774511  0.17408589  1
  N  484  1  0.62587300  0.82157200  0.21035600  1
  N  486  1  0.92247800  0.84443100  0.14812593  1
  N  529  1  0.66122400  0.11957000  0.16463000  1
  N  531  1  0.78814100  0.26243500  0.01542700  1
  N  533  1  0.63143200  0.30406200  0.15224400  1
  N  535  1  0.91942100  0.23699000  0.19453900  1
  N  578  1  0.66304400  0.25466500  0.90170900  1
  N  580  1  0.79373500  0.10684900  0.90711500  1
  N  582  1  0.63253300  0.24268000  0.72951090  1
  N  584  1  0.91964800  0.28801400  0.75341400  1
  N  627  1  0.15847400  0.58238700  0.36725690  1
  N  629  1  0.30460500  0.57748100  0.22694500  1
  N  631  1  0.13532500  0.75424300  0.18099590  1
  N  633  1  0.41029800  0.73130700  0.26140093  1
  N  676  1  0.16344700  0.45910200  0.23640700  1
  N  678  1  0.29785000  0.31723500  0.38359600  1
  N  680  1  0.13059700  0.27338000  0.25045900  1
  N  682  1  0.41235300  0.34340000  0.20061200  1
  N  725  1  0.15794000  0.32630100  0.49309900  1
  N  727  1  0.29607200  0.47354900  0.48701490  1
  N  729  1  0.13818200  0.33775600  0.66626600  1
  N  731  1  0.41380100  0.28834700  0.64149490  1
  N  734  1  0.01167100  0.81202900  0.15539990  1
  N  737  1  0.06424400  0.79098100  0.20302593  1
  N  746  1  0.00711200  0.24610700  0.21941000  1
  N  749  1  0.05750500  0.29439600  0.19193800  1
  N  758  1  0.01123700  0.31034000  0.72208400  1
  N  761  1  0.05805000  0.28265000  0.70045290  1
  N  770  1  0.49722700  0.76721500  0.24665800  1
  N  773  1  0.52842600  0.79009300  0.19393290  1
  N  782  1  0.50210100  0.33308100  0.17791100  1
  N  785  1  0.54730100  0.28342300  0.20659300  1
  N  794  1  0.50270700  0.26588800  0.67532590  1
  N  797  1  0.54432500  0.29509700  0.69667093  1
  N  806  1  0.71687900  0.04268500  0.99362700  1
  N  809  1  0.75203000  0.05416100  0.94412993  1
  N  818  1  0.70865200  0.08363600  0.15169200  1
  N  821  1  0.74514000  0.03449700  0.18969900  1
  N  830  1  0.71050300  0.24112400  0.95070400  1
  N  833  1  0.74631300  0.27870500  0.96262300  1
  N  842  1  0.20978800  0.53481200  0.40244790  1
  N  845  1  0.24738100  0.52457200  0.45109890  1
  N  854  1  0.21612900  0.49364700  0.24935300  1
  N  857  1  0.25508100  0.54213500  0.21130700  1
  N  866  1  0.20949200  0.33944700  0.44526000  1
  N  869  1  0.24892900  0.30152300  0.43479300  1
  O  305  1  0.91716000  0.03640900  0.49867300  1
  O  306  1  0.16476400  0.98955800  0.50742100  1
  O  317  1  0.91135200  0.49843600  0.47033300  1
  O  318  1  0.15755200  0.51173600  0.50683500  1
  O  329  1  0.90786700  0.47762800  0.03204600  1
  O  330  1  0.15985300  0.50448200  0.98963200  1
  O  341  1  0.37776700  0.97583200  0.51992100  1
  O  342  1  0.62966400  0.01665900  0.48337600  1
  O  353  1  0.39707200  0.50944100  0.52610700  1
  O  354  1  0.64936300  0.49098200  0.50197700  1
  O  365  1  0.39267100  0.52119000  0.97137700  1
  O  366  1  0.64645700  0.50380400  0.01164800  1
  O  377  1  0.69687200  0.18974500  0.30432700  1
  O  378  1  0.78308200  0.33169000  0.24428500  1
  O  389  1  0.68910700  0.30543800  0.51240200  1
  O  390  1  0.77694900  0.24574100  0.43056900  1
  O  401  1  0.69103300  0.51337400  0.18701600  1
  O  402  1  0.77672000  0.43013200  0.32883800  1
  O  413  1  0.18352100  0.81398400  0.69738600  1
  O  414  1  0.28459300  0.67510900  0.75537300  1
  O  425  1  0.18981900  0.70010600  0.49344800  1
  O  426  1  0.29159800  0.75681100  0.57542700  1
  O  437  1  0.18477200  0.49447700  0.81347100  1
  O  438  1  0.28418300  0.57670600  0.67425200  1
  O  743  1  0.91716000  0.82288500  0.19618100  1
  O  744  1  0.16476400  0.77603400  0.20492890  1
  O  755  1  0.91135200  0.28491200  0.16784100  1
  O  756  1  0.15755200  0.29821200  0.20434300  1
  O  767  1  0.90786700  0.26410400  0.72955393  1
  O  768  1  0.15985300  0.29095800  0.68713990  1
  O  779  1  0.37776700  0.76230800  0.21742890  1
  O  780  1  0.62966400  0.80313500  0.18088390  1
  O  791  1  0.39707200  0.29591700  0.22361500  1
  O  792  1  0.64936300  0.27745800  0.19948500  1
  O  803  1  0.39267100  0.30766600  0.66888490  1
  O  804  1  0.64645700  0.29028000  0.70915593  1
  O  815  1  0.69687200  0.97622110  0.00183480  1
  O  816  1  0.78308200  0.11816600  0.94179300  1
  O  827  1  0.68910700  0.09191400  0.20991000  1
  O  828  1  0.77694900  0.03221700  0.12807700  1
  O  839  1  0.69103300  0.29985000  0.88452400  1
  O  840  1  0.77672000  0.21660800  0.02634600  1
  O  851  1  0.18352100  0.60046000  0.39489393  1
  O  852  1  0.28459300  0.46158500  0.45288090  1
  O  863  1  0.18981900  0.48658200  0.19095600  1
  O  864  1  0.29159800  0.54328700  0.27293500  1
  O  875  1  0.18477200  0.28095300  0.51097900  1
  O  876  1  0.28418300  0.36318200  0.37176000  1
