# generated using pymatgen
data_H7C12O
_symmetry_space_group_name_H-M   'P 1'
_cell_length_a   45.38280000
_cell_length_b   45.38280000
_cell_length_c   45.38280000
_cell_angle_alpha   90.00000000
_cell_angle_beta   90.00000000
_cell_angle_gamma   90.00000000
_symmetry_Int_Tables_number   1
_chemical_formula_structural   H7C12O
_chemical_formula_sum   'H672 C1152 O96'
_cell_volume   93470.34843232
_cell_formula_units_Z   96
loop_
 _symmetry_equiv_pos_site_id
 _symmetry_equiv_pos_as_xyz
  1  'x, y, z'
loop_
 _atom_site_type_symbol
 _atom_site_label
 _atom_site_symmetry_multiplicity
 _atom_site_fract_x
 _atom_site_fract_y
 _atom_site_fract_z
 _atom_site_occupancy
  H  7  1  0.25914000  0.13669400  0.44502600  1
  H  8  1  0.24760700  0.04889700  0.47129400  1
  H  9  1  0.17548100  0.09697800  0.43882700  1
  H  16  1  0.29587000  0.09907700  0.41811500  1
  H  17  1  0.37201600  0.08858300  0.46986800  1
  H  18  1  0.28803900  0.08119000  0.50838900  1
  H  25  1  0.79358300  0.92310800  0.42570600  1
  H  26  1  0.80704000  0.00410900  0.46769300  1
  H  27  1  0.87979900  0.95610300  0.43557700  1
  H  34  1  0.75447600  0.96154400  0.40797700  1
  H  35  1  0.68353900  0.95238800  0.46701400  1
  H  36  1  0.76937600  0.96633400  0.49895800  1
  H  43  1  0.79647000  0.13809900  0.59142100  1
  H  44  1  0.79596100  0.04583900  0.59143000  1
  H  45  1  0.87570700  0.09146900  0.60251500  1
  H  52  1  0.76639500  0.10808200  0.63760100  1
  H  53  1  0.67914600  0.10423000  0.60612700  1
  H  54  1  0.74991500  0.07975900  0.55122500  1
  H  61  1  0.26318800  0.91664600  0.57880800  1
  H  62  1  0.25663300  0.00849300  0.57949800  1
  H  63  1  0.18009000  0.95678600  0.58415800  1
  H  70  1  0.28909900  0.95191000  0.62661200  1
  H  71  1  0.37606600  0.94900800  0.59463100  1
  H  72  1  0.30616900  0.97167700  0.53821100  1
  H  79  1  0.43579300  0.26032100  0.13917200  1
  H  80  1  0.47226500  0.24489000  0.05590700  1
  H  81  1  0.44148700  0.17359900  0.10683200  1
  H  88  1  0.41199800  0.29366200  0.09777000  1
  H  89  1  0.46317800  0.37038100  0.10600000  1
  H  90  1  0.50403300  0.28841100  0.09279800  1
  H  97  1  0.45661600  0.79569700  0.91564700  1
  H  98  1  0.47081300  0.79801000  0.00680500  1
  H  99  1  0.45609800  0.87677600  0.96045100  1
  H  106  1  0.41722900  0.76371700  0.95056400  1
  H  107  1  0.45454500  0.67879300  0.95196100  1
  H  108  1  0.50677200  0.75312300  0.97056300  1
  H  115  1  0.61088200  0.79293100  0.14009100  1
  H  116  1  0.59411100  0.79885200  0.04952700  1
  H  117  1  0.61405500  0.87557300  0.09791600  1
  H  124  1  0.64579400  0.75782800  0.10412600  1
  H  125  1  0.59751600  0.67920500  0.11288600  1
  H  126  1  0.55506500  0.75775000  0.08813300  1
  H  133  1  0.58702000  0.25466900  0.91256500  1
  H  134  1  0.58319700  0.26291300  0.00434300  1
  H  135  1  0.59543100  0.17955400  0.96609800  1
  H  142  1  0.62824500  0.28899500  0.93430000  1
  H  143  1  0.59892800  0.37643200  0.94466300  1
  H  144  1  0.54670300  0.30548400  0.97423600  1
  H  151  1  0.13284200  0.46633800  0.26389800  1
  H  152  1  0.04203100  0.47882100  0.25377700  1
  H  153  1  0.09382800  0.45642000  0.18052300  1
  H  160  1  0.08791800  0.42652800  0.29145900  1
  H  161  1  0.09522500  0.46360800  0.37599100  1
  H  162  1  0.08488100  0.51815700  0.30191400  1
  H  169  1  0.91199400  0.45014900  0.79860500  1
  H  170  1  0.00097300  0.47440900  0.79974400  1
  H  171  1  0.95747800  0.45439300  0.87920000  1
  H  178  1  0.94802100  0.41782000  0.76217500  1
  H  179  1  0.93687600  0.46352000  0.68216200  1
  H  180  1  0.95988200  0.50935600  0.75932800  1
  H  187  1  0.13199800  0.59369700  0.79687800  1
  H  188  1  0.04029100  0.58599400  0.80134200  1
  H  189  1  0.08882700  0.60333700  0.87819300  1
  H  196  1  0.09611800  0.63573900  0.76721000  1
  H  197  1  0.09722500  0.59943000  0.68194800  1
  H  198  1  0.07746200  0.54618300  0.75526000  1
  H  205  1  0.91759500  0.59287900  0.26265000  1
  H  206  1  0.00916400  0.58318800  0.26816100  1
  H  207  1  0.96907300  0.59685900  0.18563100  1
  H  214  1  0.94534800  0.63248500  0.29832900  1
  H  215  1  0.94002400  0.59218300  0.38168000  1
  H  216  1  0.97129400  0.54471800  0.30839700  1
  H  223  1  0.14840800  0.24975300  0.61857400  1
  H  224  1  0.06238100  0.25175000  0.58551100  1
  H  225  1  0.09701500  0.17261300  0.61911600  1
  H  232  1  0.12140600  0.29183300  0.64111800  1
  H  233  1  0.11782300  0.36944400  0.59048600  1
  H  234  1  0.09690600  0.28750300  0.55213300  1
  H  241  1  0.92159200  0.79540600  0.59389500  1
  H  242  1  0.01215700  0.80382700  0.57872900  1
  H  243  1  0.96317900  0.87709500  0.60651000  1
  H  250  1  0.96350000  0.76477700  0.63064000  1
  H  251  1  0.96346700  0.68156100  0.59019100  1
  H  252  1  0.97207900  0.75833000  0.53900200  1
  H  259  1  0.13080200  0.79007300  0.47132200  1
  H  260  1  0.03871500  0.79177000  0.47755400  1
  H  261  1  0.08609600  0.87120100  0.47102700  1
  H  268  1  0.09731200  0.75880800  0.42762700  1
  H  269  1  0.10689200  0.67523900  0.46645700  1
  H  270  1  0.07796300  0.74725300  0.51693900  1
  H  277  1  0.91434700  0.26083300  0.46010600  1
  H  278  1  0.00609600  0.25458100  0.46812500  1
  H  279  1  0.95546400  0.17783000  0.45674400  1
  H  286  1  0.94816200  0.29045600  0.41804900  1
  H  287  1  0.95126400  0.37556800  0.45469000  1
  H  288  1  0.97277300  0.30158600  0.50630500  1
  H  295  1  0.25487700  0.44438700  0.91507200  1
  H  296  1  0.25303700  0.46526000  0.00483100  1
  H  297  1  0.17496600  0.43935900  0.96192300  1
  H  304  1  0.29186000  0.41211500  0.94996900  1
  H  305  1  0.37215200  0.45861500  0.94751200  1
  H  306  1  0.29277400  0.50302800  0.96605400  1
  H  313  1  0.79061800  0.46800800  0.13525000  1
  H  314  1  0.79703200  0.47064100  0.04328700  1
  H  315  1  0.87299500  0.45784100  0.09440300  1
  H  322  1  0.76147000  0.42364600  0.09890300  1
  H  323  1  0.67631600  0.46010600  0.09832800  1
  H  324  1  0.75012400  0.51323900  0.08045200  1
  H  331  1  0.79488300  0.60344700  0.91563600  1
  H  332  1  0.80243500  0.57981700  0.00440800  1
  H  333  1  0.87658400  0.61154500  0.95869500  1
  H  340  1  0.75924400  0.63329300  0.95380500  1
  H  341  1  0.68046600  0.58436500  0.95304000  1
  H  342  1  0.76181600  0.54200500  0.96718500  1
  H  349  1  0.26391300  0.60550300  0.13759100  1
  H  350  1  0.25421600  0.58600700  0.04790600  1
  H  351  1  0.17950700  0.60577900  0.09921100  1
  H  358  1  0.29619000  0.64015900  0.09999900  1
  H  359  1  0.37704900  0.59505000  0.10303200  1
  H  360  1  0.29880100  0.54933000  0.08406000  1
  H  367  1  0.46333700  0.15063100  0.79918700  1
  H  368  1  0.46957000  0.05915700  0.78920500  1
  H  369  1  0.44953400  0.09515200  0.87217300  1
  H  376  1  0.42551600  0.12767400  0.76092100  1
  H  377  1  0.46225900  0.11976800  0.67605000  1
  H  378  1  0.51009500  0.09250200  0.75100600  1
  H  385  1  0.45076600  0.91808200  0.26073800  1
  H  386  1  0.46165300  0.00966400  0.26410900  1
  H  387  1  0.45447900  0.96701500  0.18215100  1
  H  394  1  0.40895500  0.94646100  0.29256500  1
  H  395  1  0.44298500  0.94407000  0.37880500  1
  H  396  1  0.49550500  0.97411000  0.30856200  1
  H  403  1  0.61926400  0.13075300  0.26035000  1
  H  404  1  0.58381900  0.04631300  0.24897600  1
  H  405  1  0.60993700  0.09581300  0.17484900  1
  H  412  1  0.64530200  0.08866600  0.29459200  1
  H  413  1  0.59627500  0.09798400  0.37268600  1
  H  414  1  0.55300700  0.08578100  0.29177400  1
  H  421  1  0.59519100  0.91211500  0.79128300  1
  H  422  1  0.57607800  0.00171500  0.80248100  1
  H  423  1  0.59685200  0.94945800  0.87606400  1
  H  430  1  0.63065100  0.95255100  0.76085700  1
  H  431  1  0.58842600  0.95381600  0.67835900  1
  H  432  1  0.53942700  0.96588000  0.75607800  1
  H  439  1  0.80553100  0.87711500  0.64781400  1
  H  440  1  0.79437200  0.96876200  0.64190500  1
  H  441  1  0.87909200  0.93267400  0.63884000  1
  H  448  1  0.74994800  0.91572500  0.68488400  1
  H  449  1  0.68373600  0.92680400  0.62067600  1
  H  450  1  0.77258600  0.92750900  0.59576800  1
  H  457  1  0.25085700  0.15711200  0.66876300  1
  H  458  1  0.25776300  0.07213100  0.63265400  1
  H  459  1  0.17494400  0.10785500  0.64991600  1
  H  466  1  0.30138300  0.14259700  0.68230100  1
  H  467  1  0.37042300  0.13096700  0.62156000  1
  H  468  1  0.28577400  0.10158000  0.60070000  1
  H  475  1  0.24745100  0.87625100  0.43471800  1
  H  476  1  0.25746100  0.96864100  0.43711800  1
  H  477  1  0.17314500  0.93127200  0.44455200  1
  H  484  1  0.28942700  0.90504400  0.38896700  1
  H  485  1  0.37232000  0.91952600  0.42853900  1
  H  486  1  0.29503500  0.93540600  0.47650300  1
  H  493  1  0.79454000  0.16306800  0.43022500  1
  H  494  1  0.79822400  0.07370400  0.45555000  1
  H  495  1  0.87627600  0.12270900  0.44858200  1
  H  502  1  0.75785600  0.12411200  0.39452900  1
  H  503  1  0.67656300  0.10625100  0.43608900  1
  H  504  1  0.75475100  0.10526600  0.48549300  1
  H  511  1  0.63694700  0.79394900  0.88245000  1
  H  512  1  0.62097600  0.79084400  0.97378800  1
  H  513  1  0.62782400  0.87251600  0.93121500  1
  H  520  1  0.67211200  0.74757900  0.91799000  1
  H  521  1  0.61846000  0.67280000  0.93105600  1
  H  522  1  0.58214000  0.75739100  0.93869400  1
  H  529  1  0.65523300  0.25111500  0.17670200  1
  H  530  1  0.62442900  0.26589000  0.09059900  1
  H  531  1  0.63871000  0.17962700  0.11970300  1
  H  538  1  0.68064800  0.30501700  0.14325200  1
  H  539  1  0.62160400  0.37597300  0.13430000  1
  H  540  1  0.58992000  0.28941800  0.13327700  1
  H  547  1  0.42522100  0.25814200  0.89888100  1
  H  548  1  0.45067300  0.25503100  0.98823400  1
  H  549  1  0.44219900  0.17663200  0.94000200  1
  H  556  1  0.39208100  0.29621800  0.92866600  1
  H  557  1  0.43282100  0.37740500  0.94786200  1
  H  558  1  0.47862700  0.29849900  0.96244500  1
  H  565  1  0.41505600  0.80534800  0.17635100  1
  H  566  1  0.43282100  0.79287400  0.08620500  1
  H  567  1  0.42514600  0.87843300  0.11991500  1
  H  574  1  0.38127300  0.75429100  0.14322300  1
  H  575  1  0.43661100  0.68026900  0.13382600  1
  H  576  1  0.47164400  0.76524900  0.12562600  1
  H  583  1  0.87767700  0.65468900  0.80001100  1
  H  584  1  0.96747300  0.63335100  0.79182300  1
  H  585  1  0.93042000  0.64355900  0.87560100  1
  H  592  1  0.92150200  0.68596800  0.74853800  1
  H  593  1  0.92586700  0.62570900  0.67806400  1
  H  594  1  0.92142300  0.59467700  0.76494000  1
  H  601  1  0.18334700  0.64461100  0.25903200  1
  H  602  1  0.09535500  0.61918700  0.27374900  1
  H  603  1  0.12605100  0.62963600  0.18742200  1
  H  610  1  0.15070800  0.67593300  0.30973000  1
  H  611  1  0.13787000  0.62406100  0.38549200  1
  H  612  1  0.13472300  0.58501300  0.30213200  1
  H  619  1  0.87750300  0.42346900  0.25387400  1
  H  620  1  0.96984600  0.43037900  0.26039400  1
  H  621  1  0.92913900  0.43505500  0.17753900  1
  H  628  1  0.90946700  0.38117600  0.29808500  1
  H  629  1  0.92382400  0.42810300  0.37708200  1
  H  630  1  0.93615500  0.47009900  0.29578600  1
  H  637  1  0.16675500  0.40915300  0.79935900  1
  H  638  1  0.08091100  0.44375400  0.79265100  1
  H  639  1  0.11569000  0.42337400  0.87552000  1
  H  646  1  0.14427200  0.38684500  0.75181200  1
  H  647  1  0.12991100  0.43782500  0.67557600  1
  H  648  1  0.11032500  0.47296200  0.75857000  1
  H  655  1  0.87912000  0.80020700  0.39872400  1
  H  656  1  0.96112300  0.78949200  0.44073600  1
  H  657  1  0.93267800  0.87375000  0.41716700  1
  H  664  1  0.89941900  0.75021200  0.38107000  1
  H  665  1  0.91368400  0.67527000  0.43365200  1
  H  666  1  0.92889300  0.75893400  0.46855000  1
  H  673  1  0.16436700  0.25387600  0.40166400  1
  H  674  1  0.07500800  0.25568700  0.42631200  1
  H  675  1  0.11898200  0.17485700  0.41974800  1
  H  682  1  0.12437000  0.30149100  0.37069400  1
  H  683  1  0.11366000  0.37368200  0.42843600  1
  H  684  1  0.11329000  0.28755000  0.46183400  1
  H  691  1  0.88483000  0.25647400  0.62753800  1
  H  692  1  0.97650300  0.26159300  0.61305900  1
  H  693  1  0.93478900  0.17916500  0.61393600  1
  H  700  1  0.91647100  0.30004100  0.66606600  1
  H  701  1  0.93485100  0.37951200  0.62127300  1
  H  702  1  0.94511900  0.29869300  0.57772600  1
  H  709  1  0.17934100  0.80023300  0.62961800  1
  H  710  1  0.08693500  0.79392900  0.63396300  1
  H  711  1  0.12686900  0.87625600  0.62085300  1
  H  718  1  0.14100200  0.75583800  0.67970300  1
  H  719  1  0.12811200  0.67784300  0.63079200  1
  H  720  1  0.12564100  0.75976700  0.58821500  1
  H  727  1  0.80481000  0.62977200  0.17773300  1
  H  728  1  0.79256300  0.61562400  0.08673100  1
  H  729  1  0.87807800  0.62007700  0.12137900  1
  H  736  1  0.75832300  0.66697600  0.15022300  1
  H  737  1  0.67848500  0.62173600  0.13599300  1
  H  738  1  0.75877100  0.57939900  0.11976000  1
  H  745  1  0.24960600  0.63836800  0.88328500  1
  H  746  1  0.25569400  0.62107100  0.97424900  1
  H  747  1  0.17278900  0.62473300  0.93377800  1
  H  754  1  0.29611000  0.67420300  0.91718300  1
  H  755  1  0.37244300  0.62277000  0.93048600  1
  H  756  1  0.28890700  0.58424600  0.93886800  1
  H  763  1  0.25275500  0.42035400  0.17860100  1
  H  764  1  0.26003900  0.43183800  0.08679500  1
  H  765  1  0.17654900  0.43040100  0.12631900  1
  H  772  1  0.29994700  0.38111000  0.14073700  1
  H  773  1  0.37578600  0.43311800  0.12724400  1
  H  774  1  0.29214400  0.47221700  0.12489100  1
  H  781  1  0.80419500  0.39827700  0.88377200  1
  H  782  1  0.79364500  0.41588000  0.97402600  1
  H  783  1  0.87820400  0.41046600  0.93812900  1
  H  790  1  0.75342300  0.37034600  0.90493400  1
  H  791  1  0.68142000  0.42771300  0.91771600  1
  H  792  1  0.76616800  0.45413700  0.94249900  1
  H  799  1  0.63163400  0.88826000  0.26135700  1
  H  800  1  0.59659700  0.97431300  0.25926400  1
  H  801  1  0.61684900  0.93105400  0.18022700  1
  H  808  1  0.65868000  0.92539300  0.30300700  1
  H  809  1  0.60986200  0.93909200  0.38086300  1
  H  810  1  0.56721300  0.94131800  0.29884500  1
  H  817  1  0.63279800  0.16457500  0.80388000  1
  H  818  1  0.61795500  0.07309300  0.79794000  1
  H  819  1  0.61667500  0.11457400  0.88049700  1
  H  826  1  0.67163200  0.13576900  0.76179200  1
  H  827  1  0.62829200  0.12239500  0.68065700  1
  H  828  1  0.58406800  0.10488300  0.75982200  1
  H  835  1  0.41336600  0.87890000  0.80128200  1
  H  836  1  0.42400900  0.96968300  0.78572600  1
  H  837  1  0.42696600  0.93736500  0.87214800  1
  H  844  1  0.37397900  0.91028600  0.75069700  1
  H  845  1  0.42564000  0.92245200  0.67439700  1
  H  846  1  0.46403800  0.93112500  0.75782500  1
  H  853  1  0.39737800  0.17630500  0.26071800  1
  H  854  1  0.43505500  0.09212500  0.26894800  1
  H  855  1  0.41096200  0.12315100  0.18566400  1
  H  862  1  0.37824900  0.14112800  0.31329500  1
  H  863  1  0.44035200  0.13040000  0.38127500  1
  H  864  1  0.46843300  0.13372100  0.29355000  1
  H  870  1  0.18636900  0.21582200  0.44699400  1
  H  871  1  0.21539300  0.17553300  0.46350000  1
  H  873  1  0.18856300  0.12577400  0.38957100  1
  H  875  1  0.16183900  0.17904700  0.35131800  1
  H  881  1  0.85401800  0.83904100  0.43226300  1
  H  882  1  0.82733000  0.88147800  0.44501500  1
  H  884  1  0.87526400  0.93111800  0.38254200  1
  H  886  1  0.90346400  0.87590100  0.34701100  1
  H  892  1  0.86973300  0.21216400  0.57803000  1
  H  893  1  0.84319900  0.16886500  0.56420300  1
  H  895  1  0.86390700  0.12996700  0.64622300  1
  H  897  1  0.88519700  0.18810100  0.67963300  1
  H  903  1  0.18046900  0.84089900  0.57426200  1
  H  904  1  0.20537800  0.88178200  0.55202200  1
  H  906  1  0.20799700  0.92464900  0.63463100  1
  H  908  1  0.19207700  0.87037900  0.67530500  1
  H  914  1  0.43459900  0.19830700  0.22370800  1
  H  915  1  0.45293400  0.22341500  0.18232300  1
  H  917  1  0.38709200  0.18471900  0.12911400  1
  H  919  1  0.34530100  0.16108100  0.18230500  1
  H  925  1  0.46279500  0.86910500  0.83900200  1
  H  926  1  0.48172300  0.84229800  0.88016900  1
  H  928  1  0.40592100  0.86459900  0.92950500  1
  H  930  1  0.36532600  0.88490900  0.87693200  1
  H  936  1  0.59333300  0.86005600  0.21759300  1
  H  937  1  0.58461200  0.83206100  0.17448000  1
  H  939  1  0.65973100  0.86967400  0.13440200  1
  H  941  1  0.68846900  0.89777300  0.19333600  1
  H  947  1  0.58173400  0.17838300  0.84286600  1
  H  948  1  0.56363900  0.20642000  0.88349600  1
  H  950  1  0.64206100  0.18884200  0.93060700  1
  H  952  1  0.68091300  0.16605500  0.87688800  1
  H  958  1  0.21289100  0.46847800  0.19142200  1
  H  959  1  0.17114300  0.48719600  0.21719100  1
  H  961  1  0.12454600  0.40875700  0.19865800  1
  H  963  1  0.17948400  0.36924200  0.17872500  1
  H  969  1  0.83701400  0.44566700  0.87267500  1
  H  970  1  0.87510800  0.46990300  0.84620500  1
  H  972  1  0.93315600  0.39958100  0.86524300  1
  H  974  1  0.88506300  0.35248400  0.88553500  1
  H  980  1  0.20957800  0.58966500  0.86902600  1
  H  981  1  0.16755700  0.57147300  0.84329200  1
  H  983  1  0.12161800  0.65008000  0.86277900  1
  H  985  1  0.17699800  0.68894900  0.88323000  1
  H  991  1  0.84541600  0.58312000  0.18995500  1
  H  992  1  0.88744100  0.56685000  0.21693000  1
  H  994  1  0.93307000  0.64445000  0.19299900  1
  H  996  1  0.87798800  0.68178300  0.17157900  1
  H  1002  1  0.21969600  0.17824300  0.62781600  1
  H  1003  1  0.18289400  0.20763300  0.60672200  1
  H  1005  1  0.12168300  0.17744100  0.67013800  1
  H  1007  1  0.16844800  0.14804600  0.71488800  1
  H  1013  1  0.84296800  0.86913900  0.59887900  1
  H  1014  1  0.88344800  0.84379600  0.57695700  1
  H  1016  1  0.93394700  0.85811000  0.65384100  1
  H  1018  1  0.88198300  0.87600900  0.69690100  1
  H  1024  1  0.20537700  0.86706500  0.48582800  1
  H  1025  1  0.16321600  0.83993100  0.50223500  1
  H  1027  1  0.12117600  0.85605200  0.42069100  1
  H  1029  1  0.17734500  0.87620100  0.38433500  1
  H  1035  1  0.83730900  0.18863500  0.47690600  1
  H  1036  1  0.87976800  0.21707100  0.48852900  1
  H  1038  1  0.92016900  0.18927000  0.40941500  1
  H  1040  1  0.86214700  0.16259900  0.37788600  1
  H  1046  1  0.18795700  0.44904100  0.83853700  1
  H  1047  1  0.21469900  0.46427300  0.88043800  1
  H  1049  1  0.18042900  0.39253500  0.92896500  1
  H  1051  1  0.15492300  0.35557100  0.87406800  1
  H  1057  1  0.86816000  0.47535700  0.21211900  1
  H  1058  1  0.84169400  0.49327500  0.17026900  1
  H  1060  1  0.85304400  0.41105000  0.12808600  1
  H  1062  1  0.87278100  0.37355600  0.18387600  1
  H  1068  1  0.86309400  0.60939200  0.83686400  1
  H  1069  1  0.83859200  0.58792600  0.87770300  1
  H  1071  1  0.86188500  0.66104000  0.93040400  1
  H  1073  1  0.88118700  0.70471500  0.87792600  1
  H  1079  1  0.19862500  0.60007400  0.21963600  1
  H  1080  1  0.22332100  0.58299900  0.17674600  1
  H  1082  1  0.19077900  0.65591000  0.12881900  1
  H  1084  1  0.17036200  0.69512500  0.18367500  1
  H  1090  1  0.47139300  0.21813100  0.87509000  1
  H  1091  1  0.48484900  0.17795000  0.84455700  1
  H  1093  1  0.40686800  0.13303800  0.86868700  1
  H  1095  1  0.37323600  0.18783300  0.89853700  1
  H  1101  1  0.46168000  0.84440900  0.18762300  1
  H  1102  1  0.47972400  0.88592200  0.21435000  1
  H  1104  1  0.40314400  0.93387200  0.19165300  1
  H  1106  1  0.36361400  0.88012700  0.17118000  1
  H  1112  1  0.61420700  0.21384700  0.19512800  1
  H  1113  1  0.59733700  0.17226000  0.22164100  1
  H  1115  1  0.66462500  0.12034100  0.18362100  1
  H  1117  1  0.70483400  0.17327400  0.15956700  1
  H  1123  1  0.59100900  0.83234000  0.86618800  1
  H  1124  1  0.57221300  0.87269300  0.83853900  1
  H  1126  1  0.64876800  0.92186800  0.85815400  1
  H  1128  1  0.68899500  0.86839400  0.88141000  1
  H  1134  1  0.68717500  0.70722200  0.96451800  1
  H  1135  1  0.71433100  0.66522800  0.98053800  1
  H  1137  1  0.68853200  0.61908100  0.90385400  1
  H  1139  1  0.66629900  0.67416800  0.86653600  1
  H  1145  1  0.36218200  0.33833300  0.96874000  1
  H  1146  1  0.33179300  0.38001000  0.97650800  1
  H  1148  1  0.36971300  0.42194700  0.90251000  1
  H  1150  1  0.40168300  0.36471100  0.87482100  1
  H  1156  1  0.36824100  0.71671100  0.09773200  1
  H  1157  1  0.34157200  0.67594200  0.07838700  1
  H  1159  1  0.36502900  0.62516900  0.15285300  1
  H  1161  1  0.38646200  0.67782600  0.19414800  1
  H  1167  1  0.68982600  0.34200700  0.09661500  1
  H  1168  1  0.71546100  0.38301600  0.07615700  1
  H  1170  1  0.69356700  0.43394500  0.15098600  1
  H  1172  1  0.67446800  0.38167100  0.19335900  1
  H  1178  1  0.97055200  0.69006200  0.70923600  1
  H  1179  1  0.99072700  0.71497400  0.66739200  1
  H  1181  1  0.91152700  0.70030100  0.62063200  1
  H  1183  1  0.87080000  0.68400200  0.67444100  1
  H  1189  1  0.95306200  0.35940300  0.33628400  1
  H  1190  1  0.97093700  0.33287800  0.37764600  1
  H  1192  1  0.89796400  0.36162400  0.42777500  1
  H  1194  1  0.85808800  0.38532000  0.37334900  1
  H  1200  1  0.10659900  0.36338000  0.71261200  1
  H  1201  1  0.09616500  0.33222100  0.67223100  1
  H  1203  1  0.16621900  0.37034300  0.62408500  1
  H  1205  1  0.19830000  0.40234900  0.67809500  1
  H  1211  1  0.10322500  0.68925500  0.34659400  1
  H  1212  1  0.08131100  0.71363200  0.38741400  1
  H  1214  1  0.15593300  0.69385200  0.43939200  1
  H  1216  1  0.19966400  0.67515100  0.38685200  1
  H  1222  1  0.71034500  0.96249100  0.69320600  1
  H  1223  1  0.66708400  0.97944700  0.71790000  1
  H  1225  1  0.62077800  0.90414700  0.68861000  1
  H  1227  1  0.67504300  0.86528200  0.67094900  1
  H  1233  1  0.32663500  0.94728700  0.36303200  1
  H  1234  1  0.36701200  0.96522300  0.33546700  1
  H  1236  1  0.41775800  0.89181000  0.36171200  1
  H  1238  1  0.36380800  0.85203100  0.38744500  1
  H  1244  1  0.71542600  0.07380300  0.37318100  1
  H  1245  1  0.67449900  0.06114400  0.34267200  1
  H  1247  1  0.63430500  0.14269300  0.36282100  1
  H  1249  1  0.69055500  0.17498300  0.39031100  1
  H  1255  1  0.34318100  0.11277600  0.70363500  1
  H  1256  1  0.38740500  0.10386400  0.72861200  1
  H  1258  1  0.43037300  0.16873300  0.67738700  1
  H  1260  1  0.37177600  0.19947600  0.65118600  1
  H  1266  1  0.72072100  0.68701000  0.10560700  1
  H  1267  1  0.68012200  0.71331700  0.08622500  1
  H  1269  1  0.62921300  0.69019600  0.16066700  1
  H  1271  1  0.68255900  0.66700700  0.20171000  1
  H  1277  1  0.33994600  0.36774500  0.09173200  1
  H  1278  1  0.38142000  0.34068200  0.07411900  1
  H  1280  1  0.42766700  0.36048700  0.15250500  1
  H  1282  1  0.37314000  0.38203300  0.19089200  1
  H  1288  1  0.71440600  0.34881100  0.94022300  1
  H  1289  1  0.67162500  0.32355500  0.95494600  1
  H  1291  1  0.62237500  0.36796800  0.88961800  1
  H  1293  1  0.67777100  0.39227000  0.85168000  1
  H  1299  1  0.33668100  0.69252700  0.96194000  1
  H  1300  1  0.37867700  0.72020300  0.97676800  1
  H  1302  1  0.42438600  0.69175400  0.90082000  1
  H  1304  1  0.36877400  0.66738800  0.86462400  1
  H  1310  1  0.67562200  0.97372000  0.34396300  1
  H  1311  1  0.70684800  0.98750900  0.38393200  1
  H  1313  1  0.68569900  0.90820600  0.42803900  1
  H  1315  1  0.65816000  0.87397100  0.37401000  1
  H  1321  1  0.35737800  0.95501700  0.71130800  1
  H  1322  1  0.33217700  0.97324000  0.66925000  1
  H  1324  1  0.35777000  0.89780600  0.62116800  1
  H  1326  1  0.37850900  0.85795400  0.67615100  1
  H  1332  1  0.37232400  0.09207200  0.34724400  1
  H  1333  1  0.34408900  0.07068700  0.38621300  1
  H  1335  1  0.36470700  0.14325900  0.44093200  1
  H  1337  1  0.38520600  0.18708800  0.39243500  1
  H  1343  1  0.69843900  0.09633800  0.72125000  1
  H  1344  1  0.72641300  0.08346000  0.67913000  1
  H  1346  1  0.69223000  0.15713900  0.63367900  1
  H  1348  1  0.66492000  0.19118800  0.69063900  1
  H  1354  1  0.94030900  0.71339900  0.36216400  1
  H  1355  1  0.96007800  0.67203700  0.33784600  1
  H  1357  1  0.89042600  0.61929700  0.37002400  1
  H  1359  1  0.84799800  0.67242300  0.39185800  1
  H  1365  1  0.96114300  0.34299200  0.69025100  1
  H  1366  1  0.97158700  0.38502300  0.71965900  1
  H  1368  1  0.89411500  0.42622400  0.68857200  1
  H  1370  1  0.86356600  0.36921300  0.66025700  1
  H  1376  1  0.09332000  0.71734100  0.69578000  1
  H  1377  1  0.07350600  0.67605200  0.72127400  1
  H  1379  1  0.14972100  0.62673600  0.70069300  1
  H  1381  1  0.19100100  0.68086000  0.68048300  1
  H  1387  1  0.07595100  0.34514700  0.36027300  1
  H  1388  1  0.06095600  0.38946300  0.33617000  1
  H  1390  1  0.14175700  0.42942500  0.35944500  1
  H  1392  1  0.17687200  0.37133000  0.37717000  1
  H  1398  1  0.19416300  0.03083000  0.49870000  1
  H  1399  1  0.19981000  0.97925100  0.49097900  1
  H  1401  1  0.20206800  0.99312600  0.39904400  1
  H  1403  1  0.21783100  0.05136800  0.39575600  1
  H  1409  1  0.85211700  0.01206700  0.50424000  1
  H  1410  1  0.84387800  0.06349400  0.50334500  1
  H  1412  1  0.86949100  0.06629700  0.41410000  1
  H  1414  1  0.85867200  0.01116700  0.39635300  1
  H  1420  1  0.84547500  0.01471400  0.56466200  1
  H  1421  1  0.84444000  0.96683600  0.58618700  1
  H  1423  1  0.85199800  0.00434100  0.67088000  1
  H  1425  1  0.83292200  0.06197800  0.65960100  1
  H  1431  1  0.21004100  0.04002200  0.55566900  1
  H  1432  1  0.21112000  0.08390900  0.58410700  1
  H  1434  1  0.19399400  0.03493900  0.66118100  1
  H  1436  1  0.21258700  0.98060400  0.64515700  1
  H  1442  1  0.50612200  0.19745900  0.04425000  1
  H  1443  1  0.50010800  0.20634700  0.99333300  1
  H  1445  1  0.40959400  0.18646200  0.00030000  1
  H  1447  1  0.39879500  0.19763600  0.05716400  1
  H  1453  1  0.50114400  0.84592700  0.03372600  1
  H  1454  1  0.48361100  0.84229100  0.08305700  1
  H  1456  1  0.39636400  0.85474500  0.05332700  1
  H  1458  1  0.40161700  0.83826100  0.99482500  1
  H  1464  1  0.56087400  0.84679500  0.02932300  1
  H  1465  1  0.57167500  0.84093000  0.97852100  1
  H  1467  1  0.66189200  0.85506300  0.99583200  1
  H  1469  1  0.66514700  0.84106000  0.05432600  1
  H  1475  1  0.55535600  0.22180000  0.03873100  1
  H  1476  1  0.57529100  0.22367500  0.08718000  1
  H  1478  1  0.65864200  0.19899900  0.05424800  1
  H  1480  1  0.65224100  0.21558600  0.99479900  1
  H  1486  1  0.01829000  0.50310300  0.19935000  1
  H  1487  1  0.96901800  0.48556600  0.20272000  1
  H  1489  1  0.00013600  0.39804800  0.20678100  1
  H  1491  1  0.05742700  0.40659900  0.22507400  1
  H  1497  1  0.02696300  0.50544100  0.84257300  1
  H  1498  1  0.07666200  0.49021000  0.83683600  1
  H  1500  1  0.05360000  0.40382300  0.86224400  1
  H  1502  1  0.99477200  0.40315300  0.84896100  1
  H  1508  1  0.01131100  0.56209200  0.85145100  1
  H  1509  1  0.96381300  0.58361200  0.84566700  1
  H  1511  1  0.00123800  0.66852500  0.85098600  1
  H  1513  1  0.05905300  0.65676700  0.83588800  1
  H  1519  1  0.03965700  0.55205100  0.22605300  1
  H  1520  1  0.08913300  0.56890100  0.23035600  1
  H  1522  1  0.06235000  0.65462500  0.20614500  1
  H  1524  1  0.00259500  0.65233600  0.22039000  1
  H  1530  1  0.03820300  0.20795500  0.55535900  1
  H  1531  1  0.98657100  0.21424400  0.56143400  1
  H  1533  1  0.99467100  0.19560900  0.65216000  1
  H  1535  1  0.05343300  0.20961300  0.66131900  1
  H  1541  1  0.03771300  0.85950100  0.55862000  1
  H  1542  1  0.08693400  0.85462000  0.57597200  1
  H  1544  1  0.05564200  0.84383200  0.66288600  1
  H  1546  1  0.99805900  0.82649000  0.65253600  1
  H  1552  1  0.00948800  0.83561900  0.50871500  1
  H  1553  1  0.96183200  0.83304300  0.48731300  1
  H  1555  1  0.99723700  0.85670900  0.40467100  1
  H  1557  1  0.05526600  0.84033700  0.41202900  1
  H  1563  1  0.03203400  0.20811600  0.49861900  1
  H  1564  1  0.08061000  0.20926800  0.47934700  1
  H  1566  1  0.04776800  0.19125300  0.39437700  1
  H  1568  1  0.99033000  0.20978900  0.40012800  1
  H  1574  1  0.20597100  0.49492400  0.02913500  1
  H  1575  1  0.21046300  0.48383100  0.08019600  1
  H  1577  1  0.19723700  0.39362500  0.06201300  1
  H  1579  1  0.21288900  0.39116600  0.00309300  1
  H  1585  1  0.84830700  0.49281700  0.01385000  1
  H  1586  1  0.84662600  0.46783900  0.96779500  1
  H  1588  1  0.85006700  0.38590700  0.01154300  1
  H  1590  1  0.83062400  0.40185300  0.06727900  1
  H  1596  1  0.85229100  0.55370400  0.02709500  1
  H  1597  1  0.84630600  0.56503600  0.07800400  1
  H  1599  1  0.85184300  0.65581700  0.05870100  1
  H  1601  1  0.83643000  0.65634600  0.99987400  1
  H  1607  1  0.20648400  0.55456500  0.02706000  1
  H  1608  1  0.20787700  0.56848200  0.97667100  1
  H  1610  1  0.19203300  0.65694800  0.00038100  1
  H  1612  1  0.21077700  0.65716800  0.05780200  1
  H  1618  1  0.49585100  0.02561900  0.83132500  1
  H  1619  1  0.47947500  0.97582700  0.82937000  1
  H  1621  1  0.39297300  0.00311500  0.84982700  1
  H  1623  1  0.39599800  0.06316200  0.83306100  1
  H  1629  1  0.49658700  0.03840600  0.22239900  1
  H  1630  1  0.47930100  0.08761600  0.22606800  1
  H  1632  1  0.39446500  0.06000300  0.19982900  1
  H  1634  1  0.39690400  0.00078800  0.21383300  1
  H  1640  1  0.54722500  0.03388300  0.20302100  1
  H  1641  1  0.55293300  0.98285100  0.21205000  1
  H  1643  1  0.64284800  0.98890400  0.18923800  1
  H  1645  1  0.65439600  0.04581600  0.19969500  1
  H  1651  1  0.54717500  0.02320900  0.85302700  1
  H  1652  1  0.56283500  0.07305100  0.84982100  1
  H  1654  1  0.65141000  0.04610900  0.85801100  1
  H  1656  1  0.64799300  0.98855400  0.84023300  1
  H  1662  1  0.71857000  0.51466000  0.00046200  1
  H  1663  1  0.72246600  0.46451100  0.98577100  1
  H  1665  1  0.69928500  0.48797000  0.89879700  1
  H  1667  1  0.71417400  0.54734900  0.89859500  1
  H  1673  1  0.33742800  0.52608800  0.99951900  1
  H  1674  1  0.33438000  0.57713800  0.98857800  1
  H  1676  1  0.35546800  0.55967300  0.89977400  1
  H  1678  1  0.33929000  0.50115100  0.89541100  1
  H  1684  1  0.34681000  0.52279800  0.05497200  1
  H  1685  1  0.34235300  0.47315600  0.07140300  1
  H  1687  1  0.35406600  0.50090000  0.15935400  1
  H  1689  1  0.33825800  0.55958300  0.15525000  1
  H  1695  1  0.70198000  0.53659600  0.05236500  1
  H  1696  1  0.70854000  0.58470900  0.07157000  1
  H  1698  1  0.69351200  0.55280500  0.15757100  1
  H  1700  1  0.70714300  0.49526500  0.15178600  1
  H  1706  1  0.00101200  0.71215800  0.51130700  1
  H  1707  1  0.97842900  0.71323300  0.46422500  1
  H  1709  1  0.89606500  0.69381600  0.50264900  1
  H  1711  1  0.90527600  0.71206800  0.55955400  1
  H  1717  1  0.00669000  0.34823800  0.52391500  1
  H  1718  1  0.99558400  0.34530500  0.57491000  1
  H  1720  1  0.90662900  0.36523800  0.55691200  1
  H  1722  1  0.90217100  0.34782200  0.49972500  1
  H  1728  1  0.05968900  0.32838700  0.53140200  1
  H  1729  1  0.06344500  0.32759400  0.47917300  1
  H  1731  1  0.15150000  0.35696600  0.48484500  1
  H  1733  1  0.16548700  0.33982100  0.54209600  1
  H  1739  1  0.05614100  0.69575800  0.54134900  1
  H  1740  1  0.07305400  0.70279100  0.59040300  1
  H  1742  1  0.16103800  0.70242800  0.56056500  1
  H  1744  1  0.15407200  0.71705200  0.50247100  1
  H  1750  1  0.51457000  0.99865500  0.70941700  1
  H  1751  1  0.46497600  0.98191900  0.71088500  1
  H  1753  1  0.49341400  0.89513100  0.69368000  1
  H  1755  1  0.55139200  0.89815800  0.71170600  1
  H  1761  1  0.51144100  0.00329100  0.35898200  1
  H  1762  1  0.56228200  0.99340800  0.35203700  1
  H  1764  1  0.54610000  0.90234100  0.36108000  1
  H  1766  1  0.48826700  0.89861900  0.34708300  1
  H  1772  1  0.52150600  0.05812500  0.33968000  1
  H  1773  1  0.47285400  0.07806500  0.34047700  1
  H  1775  1  0.50767300  0.16356900  0.35167500  1
  H  1777  1  0.56573500  0.15486500  0.33095600  1
  H  1783  1  0.52299200  0.05663800  0.70556300  1
  H  1784  1  0.57443600  0.06100400  0.71319200  1
  H  1786  1  0.57031400  0.15094300  0.69005300  1
  H  1788  1  0.51369500  0.16404600  0.70159900  1
  H  1794  1  0.52720900  0.71143100  0.06112700  1
  H  1795  1  0.47715500  0.71601900  0.07593400  1
  H  1797  1  0.50176500  0.70266100  0.16458200  1
  H  1799  1  0.56111400  0.71837400  0.16236500  1
  H  1805  1  0.53521200  0.33324800  0.06280700  1
  H  1806  1  0.58476600  0.33394600  0.08002600  1
  H  1808  1  0.55486100  0.35167500  0.16625200  1
  H  1810  1  0.49601200  0.33200500  0.16182700  1
  H  1816  1  0.53961700  0.35120200  0.01129800  1
  H  1817  1  0.48812600  0.34414200  0.00840400  1
  H  1819  1  0.48967300  0.36963600  0.91905400  1
  H  1821  1  0.54484800  0.35717500  0.90361400  1
  H  1827  1  0.52650800  0.70460200  0.00295800  1
  H  1828  1  0.57685800  0.70805300  0.98931600  1
  H  1830  1  0.55408700  0.69394200  0.90032400  1
  H  1832  1  0.49618200  0.71075900  0.90010800  1
  H  1838  1  0.73028000  0.99621100  0.53396500  1
  H  1839  1  0.73265500  0.98057300  0.58407900  1
  H  1841  1  0.70573500  0.89511800  0.55901400  1
  H  1843  1  0.72106900  0.89612500  0.49812500  1
  H  1849  1  0.35671900  0.99923600  0.51928100  1
  H  1850  1  0.34856400  0.98289300  0.47046900  1
  H  1852  1  0.35802100  0.89470800  0.49795800  1
  H  1854  1  0.34488000  0.89836500  0.55557900  1
  H  1860  1  0.32731600  0.04465600  0.53779200  1
  H  1861  1  0.32464100  0.05978200  0.58788600  1
  H  1863  1  0.35547000  0.14432800  0.56425800  1
  H  1865  1  0.34149500  0.14538700  0.50465900  1
  H  1871  1  0.70093800  0.04479100  0.53962300  1
  H  1872  1  0.70553700  0.05232200  0.48823800  1
  H  1874  1  0.68960300  0.14312900  0.50000700  1
  H  1876  1  0.70537400  0.15102300  0.55659700  1
  H  1882  1  0.99738800  0.52249100  0.35614400  1
  H  1883  1  0.98469300  0.47252800  0.34769600  1
  H  1885  1  0.89484400  0.49284800  0.35992500  1
  H  1887  1  0.89404200  0.55150500  0.34731500  1
  H  1893  1  0.98751400  0.53369400  0.70667200  1
  H  1894  1  0.97470500  0.58452400  0.70982300  1
  H  1896  1  0.88447300  0.56198700  0.71046200  1
  H  1898  1  0.88706200  0.50332600  0.72833600  1
  H  1904  1  0.04734400  0.52513600  0.70778400  1
  H  1905  1  0.06340100  0.47552400  0.71082100  1
  H  1907  1  0.15074500  0.50237100  0.69389100  1
  H  1909  1  0.14890200  0.55973200  0.71155000  1
  H  1915  1  0.05821700  0.54405000  0.35253500  1
  H  1916  1  0.08117300  0.59107000  0.35279700  1
  H  1918  1  0.16453300  0.55089600  0.36084900  1
  H  1920  1  0.15259400  0.49502900  0.34006300  1
  C  1  1  0.25706500  0.09292600  0.46078500  1
  C  2  1  0.24535100  0.11934200  0.44941500  1
  C  3  1  0.21534700  0.12121300  0.44170500  1
  C  4  1  0.19688400  0.09645800  0.44599300  1
  C  5  1  0.20820500  0.07005300  0.45784800  1
  C  6  1  0.23836600  0.06873000  0.46555100  1
  C  10  1  0.28773000  0.08867500  0.46271800  1
  C  11  1  0.30545700  0.09303400  0.43768200  1
  C  12  1  0.33633300  0.09241000  0.44015600  1
  C  13  1  0.34965500  0.08636300  0.46757200  1
  C  14  1  0.33211500  0.08140200  0.49273100  1
  C  15  1  0.30105500  0.08217200  0.48993700  1
  C  19  1  0.79632000  0.96386600  0.44790400  1
  C  20  1  0.80768800  0.93917400  0.43303500  1
  C  21  1  0.83818200  0.93613100  0.42828600  1
  C  22  1  0.85758100  0.95800900  0.43907400  1
  C  23  1  0.84662300  0.98290400  0.45418800  1
  C  24  1  0.81579000  0.98548400  0.45837500  1
  C  28  1  0.76577800  0.96630500  0.45274500  1
  C  29  1  0.74620200  0.96302900  0.42896300  1
  C  30  1  0.71600800  0.95805600  0.43396900  1
  C  31  1  0.70521700  0.95739900  0.46318700  1
  C  32  1  0.72443200  0.96169800  0.48727100  1
  C  33  1  0.75474300  0.96620600  0.48172700  1
  C  37  1  0.79244900  0.09190300  0.58847000  1
  C  38  1  0.80799600  0.11869600  0.58994200  1
  C  39  1  0.83864200  0.11871700  0.59466900  1
  C  40  1  0.85390800  0.09161800  0.59663400  1
  C  41  1  0.83866700  0.06464600  0.59392800  1
  C  42  1  0.80780500  0.06502900  0.58967100  1
  C  46  1  0.76200800  0.09214600  0.59403600  1
  C  47  1  0.75165600  0.10232500  0.62145200  1
  C  48  1  0.72135600  0.10682300  0.62598900  1
  C  49  1  0.70114300  0.09996200  0.60330800  1
  C  50  1  0.71118400  0.08893800  0.57603600  1
  C  51  1  0.74186800  0.08517400  0.57164000  1
  C  55  1  0.26380500  0.96302200  0.57565300  1
  C  56  1  0.25034200  0.93506700  0.57606700  1
  C  57  1  0.21954300  0.93271300  0.57839200  1
  C  58  1  0.20202100  0.95845400  0.57897300  1
  C  59  1  0.21528200  0.98659300  0.57856100  1
  C  60  1  0.24634700  0.98860000  0.57635300  1
  C  64  1  0.29401500  0.96509600  0.58222100  1
  C  65  1  0.30407100  0.95668900  0.61035700  1
  C  66  1  0.33419300  0.95110100  0.61510600  1
  C  67  1  0.35449800  0.95509200  0.59181300  1
  C  68  1  0.34473000  0.96356600  0.56353100  1
  C  69  1  0.31424500  0.96873800  0.55912000  1
  C  73  1  0.45605000  0.25649400  0.09745400  1
  C  74  1  0.44284400  0.24577400  0.12336800  1
  C  75  1  0.43728900  0.21551600  0.12686700  1
  C  76  1  0.44642100  0.19554100  0.10482000  1
  C  77  1  0.46015300  0.20579200  0.07886000  1
  C  78  1  0.46487500  0.23653000  0.07555000  1
  C  82  1  0.45770000  0.28710500  0.09271500  1
  C  83  1  0.43191700  0.30411800  0.09546000  1
  C  84  1  0.43373700  0.33465800  0.10037000  1
  C  85  1  0.46160300  0.34854600  0.10046800  1
  C  86  1  0.48757100  0.33197900  0.09622000  1
  C  87  1  0.48534700  0.30113000  0.09233000  1
  C  91  1  0.46637800  0.79294400  0.96104100  1
  C  92  1  0.46119900  0.80769400  0.93425600  1
  C  93  1  0.45803300  0.83853200  0.93381700  1
  C  94  1  0.46109800  0.85475200  0.96021500  1
  C  95  1  0.46678100  0.84017400  0.98706900  1
  C  96  1  0.46998000  0.80917100  0.98715300  1
  C  100  1  0.46218900  0.76231600  0.96264500  1
  C  101  1  0.43460100  0.75009600  0.95542900  1
  C  102  1  0.43160900  0.71946100  0.95184000  1
  C  103  1  0.45616200  0.70087000  0.95644700  1
  C  104  1  0.48373700  0.71285400  0.96431600  1
  C  105  1  0.48640300  0.74373800  0.96768300  1
  C  109  1  0.60077400  0.79209600  0.09473300  1
  C  110  1  0.60765200  0.80570300  0.12171300  1
  C  111  1  0.61249000  0.83628000  0.12320300  1
  C  112  1  0.60959100  0.85345900  0.09733300  1
  C  113  1  0.60154800  0.84018900  0.07034800  1
  C  114  1  0.59728000  0.80931000  0.06932000  1
  C  118  1  0.60088000  0.76122700  0.09295800  1
  C  119  1  0.62677600  0.74608300  0.10065100  1
  C  120  1  0.62576900  0.71597900  0.10790900  1
  C  121  1  0.59871400  0.70066000  0.10596400  1
  C  122  1  0.57265800  0.71539500  0.09742500  1
  C  123  1  0.57409700  0.74586300  0.09089000  1
  C  127  1  0.58227000  0.26265900  0.95803600  1
  C  128  1  0.58488100  0.24483700  0.93281900  1
  C  129  1  0.58967600  0.21436100  0.93563100  1
  C  130  1  0.58998600  0.20136000  0.96391200  1
  C  131  1  0.58628700  0.21877100  0.98941300  1
  C  132  1  0.58233100  0.24952700  0.98614300  1
  C  136  1  0.58701600  0.29321900  0.95550000  1
  C  137  1  0.61279700  0.30368400  0.94182500  1
  C  138  1  0.61720100  0.33404500  0.93756100  1
  C  139  1  0.59605700  0.35430400  0.94812000  1
  C  140  1  0.57033800  0.34425900  0.96242500  1
  C  141  1  0.56610300  0.31349400  0.96588500  1
  C  145  1  0.08739500  0.47623400  0.26237100  1
  C  146  1  0.11517300  0.46963400  0.25017400  1
  C  147  1  0.11779600  0.46288100  0.22002400  1
  C  148  1  0.09255000  0.46388100  0.20180400  1
  C  149  1  0.06469300  0.47082600  0.21370600  1
  C  150  1  0.06243000  0.47740200  0.24410800  1
  C  154  1  0.08335800  0.47282500  0.29288200  1
  C  155  1  0.08563800  0.44438900  0.30513800  1
  C  156  1  0.08964200  0.44085500  0.33567400  1
  C  157  1  0.08982100  0.46589900  0.35418100  1
  C  158  1  0.08703600  0.49445700  0.34220500  1
  C  159  1  0.08362100  0.49764900  0.31135600  1
  C  163  1  0.95600600  0.46484600  0.79532400  1
  C  164  1  0.93029600  0.45635400  0.81035800  1
  C  165  1  0.93076500  0.45275300  0.84109500  1
  C  166  1  0.95659500  0.45920300  0.85714700  1
  C  167  1  0.98254500  0.46775900  0.84230700  1
  C  168  1  0.98183100  0.47100100  0.81125800  1
  C  172  1  0.95647300  0.46348400  0.76440500  1
  C  173  1  0.95000000  0.43676300  0.75000500  1
  C  174  1  0.94308100  0.43637700  0.71974300  1
  C  175  1  0.94328300  0.46319600  0.70380300  1
  C  176  1  0.95068100  0.48994400  0.71783700  1
  C  177  1  0.95749100  0.48980500  0.74820500  1
  C  181  1  0.08610300  0.58640100  0.79553300  1
  C  182  1  0.11345300  0.59080600  0.80949700  1
  C  183  1  0.11461000  0.59663200  0.83992300  1
  C  184  1  0.08835500  0.59646700  0.85668200  1
  C  185  1  0.06092400  0.59139600  0.84297000  1
  C  186  1  0.06009000  0.58594700  0.81228200  1
  C  190  1  0.08415900  0.59079900  0.76496500  1
  C  191  1  0.09136000  0.61860300  0.75323500  1
  C  192  1  0.09587600  0.62191000  0.72278600  1
  C  193  1  0.09186000  0.59756000  0.70380900  1
  C  194  1  0.08401900  0.56972300  0.71525800  1
  C  195  1  0.08004700  0.56667300  0.74606800  1
  C  199  1  0.96302900  0.58586800  0.26921900  1
  C  200  1  0.93744600  0.58990500  0.25222800  1
  C  201  1  0.93944700  0.59368800  0.22154000  1
  C  202  1  0.96729300  0.59228000  0.20766600  1
  C  203  1  0.99302000  0.58706200  0.22438000  1
  C  204  1  0.99058100  0.58383000  0.25529700  1
  C  208  1  0.96138300  0.58893500  0.29996400  1
  C  209  1  0.95004200  0.61510600  0.31201300  1
  C  210  1  0.94226300  0.61655800  0.34197400  1
  C  211  1  0.94703400  0.59176700  0.36022500  1
  C  212  1  0.95847000  0.56528700  0.34849800  1
  C  213  1  0.96584900  0.56436000  0.31816700  1
  C  217  1  0.10644300  0.25447100  0.59930000  1
  C  218  1  0.12956500  0.23877600  0.61265300  1
  C  219  1  0.12626200  0.20890900  0.62023300  1
  C  220  1  0.09991000  0.19412400  0.61290200  1
  C  221  1  0.07642900  0.20937800  0.59941100  1
  C  222  1  0.08007600  0.23961300  0.59258400  1
  C  226  1  0.10819900  0.28542600  0.59699100  1
  C  227  1  0.11706700  0.30220100  0.62151400  1
  C  228  1  0.12091200  0.33287300  0.61934800  1
  C  229  1  0.11498000  0.34712500  0.59233100  1
  C  230  1  0.10518400  0.33082400  0.56773500  1
  C  231  1  0.10207600  0.29990500  0.57029800  1
  C  235  1  0.96667600  0.79625400  0.58234200  1
  C  236  1  0.93942700  0.80884700  0.59040300  1
  C  237  1  0.93783600  0.83872800  0.59865900  1
  C  238  1  0.96356200  0.85627500  0.59776000  1
  C  239  1  0.99086500  0.84387100  0.58960700  1
  C  240  1  0.99205500  0.81393900  0.58105600  1
  C  244  1  0.97033800  0.76555100  0.58459400  1
  C  245  1  0.96740300  0.75202600  0.61237600  1
  C  246  1  0.96544800  0.72118100  0.61455500  1
  C  247  1  0.96777300  0.70370300  0.58891800  1
  C  248  1  0.97095300  0.71698200  0.56098400  1
  C  249  1  0.97270400  0.74809300  0.55914400  1
  C  253  1  0.08466100  0.78694200  0.47656400  1
  C  254  1  0.11179200  0.80186000  0.47468300  1
  C  255  1  0.11244500  0.83281000  0.47328800  1
  C  256  1  0.08585200  0.84892600  0.47475100  1
  C  257  1  0.05860900  0.83418000  0.47746300  1
  C  258  1  0.05830300  0.80301000  0.47861800  1
  C  262  1  0.08390600  0.75632300  0.47209300  1
  C  263  1  0.09327200  0.74474500  0.44486500  1
  C  264  1  0.10123900  0.71486600  0.44251400  1
  C  265  1  0.09877700  0.69629500  0.46740900  1
  C  266  1  0.08946900  0.70767000  0.49481800  1
  C  267  1  0.08144700  0.73774700  0.49671300  1
  C  271  1  0.96040700  0.26160200  0.46659100  1
  C  272  1  0.93274400  0.24802800  0.46311400  1
  C  273  1  0.93078300  0.21731800  0.45966400  1
  C  274  1  0.95660600  0.19996200  0.46107800  1
  C  275  1  0.98440900  0.21319700  0.46546100  1
  C  276  1  0.98599300  0.24423400  0.46826200  1
  C  280  1  0.96279500  0.29215500  0.46219500  1
  C  281  1  0.95397700  0.30420600  0.43503500  1
  C  282  1  0.94984800  0.33475100  0.43214200  1
  C  283  1  0.95582100  0.35350700  0.45627000  1
  C  284  1  0.96547700  0.34181700  0.48343700  1
  C  285  1  0.96885300  0.31087800  0.48607500  1
  C  289  1  0.25754700  0.45744700  0.95949700  1
  C  290  1  0.24287400  0.44832200  0.93383100  1
  C  291  1  0.21257200  0.44183100  0.93436400  1
  C  292  1  0.19671900  0.44530400  0.96096000  1
  C  293  1  0.21105100  0.45499000  0.98684200  1
  C  294  1  0.24161600  0.46116000  0.98575800  1
  C  298  1  0.28846900  0.45740100  0.95983200  1
  C  299  1  0.30357100  0.43119500  0.95313700  1
  C  300  1  0.33421500  0.43135300  0.94855900  1
  C  301  1  0.34994800  0.45809500  0.95153100  1
  C  302  1  0.33518700  0.48441700  0.95910400  1
  C  303  1  0.30426300  0.48379000  0.96309300  1
  C  307  1  0.79013300  0.47295300  0.08897200  1
  C  308  1  0.80355600  0.47026700  0.11684500  1
  C  309  1  0.83411000  0.46541200  0.11897600  1
  C  310  1  0.85144500  0.46450900  0.09311700  1
  C  311  1  0.83815500  0.46724800  0.06515900  1
  C  312  1  0.80743900  0.47217100  0.06330800  1
  C  316  1  0.75957900  0.46850600  0.08654300  1
  C  317  1  0.74764700  0.44075800  0.09366900  1
  C  318  1  0.71707200  0.43754500  0.09759200  1
  C  319  1  0.69821700  0.46189400  0.09307700  1
  C  320  1  0.70994600  0.48985300  0.08622300  1
  C  321  1  0.74080100  0.49274400  0.08246500  1
  C  325  1  0.79524700  0.58857600  0.95966400  1
  C  326  1  0.80806900  0.59910600  0.93348500  1
  C  327  1  0.83794600  0.60734700  0.93286800  1
  C  328  1  0.85536700  0.60383100  0.95845000  1
  C  329  1  0.84291100  0.59259700  0.98465600  1
  C  330  1  0.81272300  0.58477700  0.98489000  1
  C  334  1  0.76442000  0.58788200  0.96223800  1
  C  335  1  0.74824200  0.61387600  0.95748500  1
  C  336  1  0.71743600  0.61281000  0.95439800  1
  C  337  1  0.70264100  0.58554600  0.95711200  1
  C  338  1  0.71855000  0.55950100  0.96317400  1
  C  339  1  0.74959100  0.56096900  0.96576600  1
  C  343  1  0.26292800  0.59348100  0.09266600  1
  C  344  1  0.25040100  0.60088000  0.12006200  1
  C  345  1  0.21983800  0.60528500  0.12266800  1
  C  346  1  0.20152500  0.60094900  0.09787100  1
  C  347  1  0.21371300  0.59279300  0.07045300  1
  C  348  1  0.24459500  0.58894800  0.06815000  1
  C  352  1  0.29367800  0.59501900  0.08911600  1
  C  353  1  0.30830400  0.62156400  0.09566300  1
  C  354  1  0.33891500  0.62176300  0.10046900  1
  C  355  1  0.35518800  0.59542700  0.09736100  1
  C  356  1  0.34088300  0.56877600  0.09021400  1
  C  357  1  0.30998600  0.56890100  0.08584400  1
  C  361  1  0.46952400  0.10547600  0.79064600  1
  C  362  1  0.46446700  0.13013300  0.80866800  1
  C  363  1  0.45705500  0.12662500  0.83855200  1
  C  364  1  0.45603700  0.09797200  0.85074400  1
  C  365  1  0.46184500  0.07297200  0.83314900  1
  C  366  1  0.46859200  0.07704800  0.80298600  1
  C  370  1  0.46793500  0.10888000  0.75989700  1
  C  371  1  0.44256500  0.12147200  0.74742700  1
  C  372  1  0.44005500  0.12536900  0.71677400  1
  C  373  1  0.46362500  0.11666000  0.69836200  1
  C  374  1  0.48934700  0.10397500  0.71049000  1
  C  375  1  0.49108300  0.10007000  0.74143600  1
  C  379  1  0.45804000  0.96361900  0.26650700  1
  C  380  1  0.45530300  0.93750600  0.25007300  1
  C  381  1  0.45437100  0.93861200  0.21913400  1
  C  382  1  0.45765000  0.96586500  0.20448100  1
  C  383  1  0.46160700  0.99205500  0.22076700  1
  C  384  1  0.46204800  0.99062700  0.25192200  1
  C  388  1  0.45227100  0.96300500  0.29692300  1
  C  389  1  0.42524100  0.95185300  0.30728400  1
  C  390  1  0.42168400  0.94498900  0.33727800  1
  C  391  1  0.44492200  0.95058100  0.35726800  1
  C  392  1  0.47195900  0.96225100  0.34725300  1
  C  393  1  0.47521100  0.96862800  0.31688500  1
  C  397  1  0.60001900  0.08841000  0.25860500  1
  C  398  1  0.61195700  0.11436900  0.24659400  1
  C  399  1  0.61560600  0.11722600  0.21595500  1
  C  400  1  0.60629000  0.09428500  0.19707900  1
  C  401  1  0.59367000  0.06838500  0.20877400  1
  C  402  1  0.59060300  0.06579300  0.23974500  1
  C  406  1  0.59927400  0.08460000  0.28932800  1
  C  407  1  0.62559200  0.08705800  0.30555700  1
  C  408  1  0.62465800  0.09156500  0.33620000  1
  C  409  1  0.59716500  0.09254600  0.35078300  1
  C  410  1  0.57069900  0.08914200  0.33486900  1
  C  411  1  0.57198800  0.08492100  0.30403800  1
  C  415  1  0.58274600  0.95695600  0.79306300  1
  C  416  1  0.59035400  0.92936600  0.80506800  1
  C  417  1  0.59508300  0.92644700  0.83553800  1
  C  418  1  0.59111400  0.95097800  0.85426700  1
  C  419  1  0.58320200  0.97865400  0.84257100  1
  C  420  1  0.57866000  0.98127800  0.81180400  1
  C  424  1  0.58502000  0.96141800  0.76247500  1
  C  425  1  0.61228800  0.95688100  0.74839200  1
  C  426  1  0.61379700  0.95457600  0.71750400  1
  C  427  1  0.58784400  0.95773400  0.70059000  1
  C  428  1  0.56050100  0.96311300  0.71439000  1
  C  429  1  0.55940000  0.96513300  0.74550600  1
  C  433  1  0.79561700  0.92263700  0.64829300  1
  C  434  1  0.81439100  0.89786300  0.64883500  1
  C  435  1  0.84526800  0.90143700  0.64715600  1
  C  436  1  0.85718700  0.93005200  0.64380800  1
  C  437  1  0.83871300  0.95484700  0.64278400  1
  C  438  1  0.80799000  0.95108400  0.64559500  1
  C  442  1  0.76555500  0.91911300  0.64111600  1
  C  443  1  0.74380500  0.91668700  0.66318100  1
  C  444  1  0.71359900  0.91817000  0.65567000  1
  C  445  1  0.70535400  0.92282400  0.62597600  1
  C  446  1  0.72686900  0.92602800  0.60398900  1
  C  447  1  0.75687600  0.92373900  0.61158900  1
  C  451  1  0.25930100  0.11477500  0.65153600  1
  C  452  1  0.24165800  0.13697100  0.66436700  1
  C  453  1  0.21057100  0.13465900  0.66439300  1
  C  454  1  0.19724300  0.10862600  0.65352800  1
  C  455  1  0.21456600  0.08567400  0.64229500  1
  C  456  1  0.24547900  0.08841400  0.64235200  1
  C  460  1  0.28890500  0.12107900  0.64299800  1
  C  461  1  0.30828000  0.13677100  0.66161900  1
  C  462  1  0.33813700  0.14127000  0.65386300  1
  C  463  1  0.34840100  0.13030000  0.62656400  1
  C  464  1  0.32949100  0.11514200  0.60737600  1
  C  465  1  0.29971500  0.11158100  0.61535700  1
  C  469  1  0.25683800  0.92201500  0.43462500  1
  C  470  1  0.23843600  0.89694200  0.43536600  1
  C  471  1  0.20768200  0.90030200  0.43841300  1
  C  472  1  0.19534800  0.92872100  0.44108800  1
  C  473  1  0.21343500  0.95372100  0.44021100  1
  C  474  1  0.24417900  0.95035700  0.43706900  1
  C  478  1  0.28777000  0.91891300  0.43346600  1
  C  479  1  0.30179300  0.90956800  0.40730900  1
  C  480  1  0.33286900  0.90905900  0.40542900  1
  C  481  1  0.34981800  0.91796100  0.43004400  1
  C  482  1  0.33610800  0.92761000  0.45594600  1
  C  483  1  0.30508300  0.92801300  0.45765400  1
  C  487  1  0.79184700  0.11799900  0.44236200  1
  C  488  1  0.80643800  0.14471800  0.43582200  1
  C  489  1  0.83740600  0.14643500  0.43769300  1
  C  490  1  0.85376700  0.12154400  0.44670700  1
  C  491  1  0.83955500  0.09512800  0.45396500  1
  C  492  1  0.80858200  0.09338700  0.45156400  1
  C  496  1  0.76080400  0.11584400  0.44045100  1
  C  497  1  0.74607000  0.11981400  0.41329800  1
  C  498  1  0.71516800  0.11681200  0.41172900  1
  C  499  1  0.69894000  0.10934400  0.43720400  1
  C  500  1  0.71339700  0.10482200  0.46406000  1
  C  501  1  0.74427200  0.10818500  0.46568400  1
  C  505  1  0.63064500  0.78789200  0.92824700  1
  C  506  1  0.63537800  0.80446900  0.90236900  1
  C  507  1  0.63518000  0.83557500  0.90333400  1
  C  508  1  0.63020900  0.85004800  0.93049400  1
  C  509  1  0.62516700  0.83378800  0.95626900  1
  C  510  1  0.62545100  0.80273400  0.95509400  1
  C  514  1  0.62726300  0.75699200  0.92673500  1
  C  515  1  0.65162900  0.73854900  0.92092500  1
  C  516  1  0.64839400  0.70759700  0.92166900  1
  C  517  1  0.62065900  0.69514700  0.92835500  1
  C  518  1  0.59652000  0.71330000  0.93463900  1
  C  519  1  0.59977200  0.74417500  0.93367000  1
  C  523  1  0.64135200  0.26295000  0.13393100  1
  C  524  1  0.65114600  0.24332800  0.15590400  1
  C  525  1  0.65105800  0.21260100  0.15068500  1
  C  526  1  0.64168400  0.20179600  0.12292900  1
  C  527  1  0.63205300  0.22123400  0.10089400  1
  C  528  1  0.63250700  0.25177000  0.10630200  1
  C  532  1  0.63581200  0.29284700  0.14047300  1
  C  533  1  0.65943600  0.31276200  0.14350500  1
  C  534  1  0.65427300  0.34344100  0.14247300  1
  C  535  1  0.62521500  0.35403100  0.13836500  1
  C  536  1  0.60149700  0.33434900  0.13573900  1
  C  537  1  0.60686900  0.30382500  0.13735900  1
  C  541  1  0.43704500  0.26135500  0.94401700  1
  C  542  1  0.43021400  0.24642000  0.91751800  1
  C  543  1  0.43144400  0.21540100  0.91609500  1
  C  544  1  0.44020500  0.19913800  0.94108000  1
  C  545  1  0.44804000  0.21362000  0.96714100  1
  C  546  1  0.44613000  0.24463500  0.96870100  1
  C  550  1  0.43554000  0.29258000  0.94556200  1
  C  551  1  0.41014900  0.30775100  0.93574800  1
  C  552  1  0.40923900  0.33879400  0.93600500  1
  C  553  1  0.43347100  0.35481300  0.94705800  1
  C  554  1  0.45856200  0.34022600  0.95757700  1
  C  555  1  0.45959700  0.30912200  0.95651300  1
  C  559  1  0.42183400  0.79462800  0.13151600  1
  C  560  1  0.41650200  0.81373200  0.15543100  1
  C  561  1  0.41673800  0.84455200  0.15114200  1
  C  562  1  0.42223100  0.85618900  0.12279000  1
  C  563  1  0.42772900  0.83732500  0.09898500  1
  C  564  1  0.42736300  0.80658400  0.10333000  1
  C  568  1  0.42624300  0.76424000  0.13630600  1
  C  569  1  0.40204900  0.74555000  0.14180200  1
  C  570  1  0.40576200  0.71464200  0.14176900  1
  C  571  1  0.43400600  0.70257700  0.13644500  1
  C  572  1  0.45816100  0.72102700  0.13092100  1
  C  573  1  0.45425600  0.75182500  0.13096300  1
  C  577  1  0.92269600  0.64640900  0.79142000  1
  C  578  1  0.89814100  0.65281200  0.80936900  1
  C  579  1  0.90093500  0.65291300  0.84040100  1
  C  580  1  0.92863500  0.64665800  0.85327100  1
  C  581  1  0.95305400  0.64003600  0.83557300  1
  C  582  1  0.95010100  0.64002700  0.80466200  1
  C  586  1  0.91909100  0.64111100  0.76102000  1
  C  587  1  0.91991600  0.66477200  0.74091100  1
  C  588  1  0.92132800  0.65924400  0.71034500  1
  C  589  1  0.92227100  0.62990000  0.69999300  1
  C  590  1  0.92154400  0.60618800  0.71982000  1
  C  591  1  0.91996400  0.61187300  0.75034200  1
  C  595  1  0.13967600  0.63358000  0.27092900  1
  C  596  1  0.16246600  0.64114200  0.25118400  1
  C  597  1  0.15744000  0.64063300  0.22044300  1
  C  598  1  0.12932900  0.63262100  0.20959500  1
  C  599  1  0.10666800  0.62469500  0.22902800  1
  C  600  1  0.11178500  0.62561200  0.25961800  1
  C  604  1  0.14517200  0.63041600  0.30144300  1
  C  605  1  0.14961700  0.65550700  0.31928600  1
  C  606  1  0.14828700  0.65319700  0.35032500  1
  C  607  1  0.14222000  0.62551100  0.36334900  1
  C  608  1  0.13803500  0.60040900  0.34585600  1
  C  609  1  0.13995800  0.60287900  0.31496800  1
  C  613  1  0.92356700  0.42476700  0.26144700  1
  C  614  1  0.89780800  0.42415900  0.24402200  1
  C  615  1  0.89986200  0.42699700  0.21313700  1
  C  616  1  0.92767200  0.43082400  0.19970700  1
  C  617  1  0.95338900  0.43132700  0.21682000  1
  C  618  1  0.95125600  0.42833500  0.24769500  1
  C  622  1  0.92153500  0.42587500  0.29245900  1
  C  623  1  0.91357600  0.40062600  0.30878700  1
  C  624  1  0.91373300  0.40137300  0.33991100  1
  C  625  1  0.92189900  0.42763400  0.35455800  1
  C  626  1  0.93027000  0.45263000  0.33853600  1
  C  627  1  0.92995700  0.45178800  0.30749600  1
  C  631  1  0.12396900  0.42571900  0.79102500  1
  C  632  1  0.14681000  0.41405600  0.80872400  1
  C  633  1  0.14376500  0.41228400  0.83966900  1
  C  634  1  0.11746000  0.42226200  0.85300200  1
  C  635  1  0.09485200  0.43441400  0.83588800  1
  C  636  1  0.09787600  0.43542100  0.80501100  1
  C  640  1  0.12781700  0.42967000  0.76015200  1
  C  641  1  0.13915100  0.40672700  0.74241900  1
  C  642  1  0.14081100  0.40975000  0.71147500  1
  C  643  1  0.13091100  0.43604400  0.69808900  1
  C  644  1  0.11934700  0.45891200  0.71527800  1
  C  645  1  0.11840100  0.45589300  0.74618000  1
  C  649  1  0.91944800  0.78995000  0.41961500  1
  C  650  1  0.89898000  0.80860500  0.40540500  1
  C  651  1  0.90387400  0.83933600  0.40350100  1
  C  652  1  0.92989500  0.85137000  0.41579700  1
  C  653  1  0.95054600  0.83321700  0.42984800  1
  C  654  1  0.94563900  0.80260200  0.43081800  1
  C  658  1  0.91320800  0.75957500  0.42455300  1
  C  659  1  0.90286100  0.74132800  0.40153100  1
  C  660  1  0.90183600  0.71033800  0.40484800  1
  C  661  1  0.91094300  0.69763500  0.43184500  1
  C  662  1  0.92092300  0.71541100  0.45497900  1
  C  663  1  0.92100200  0.74624200  0.45161200  1
  C  667  1  0.11914900  0.25921500  0.41176700  1
  C  668  1  0.14492600  0.24300400  0.40533500  1
  C  669  1  0.14477100  0.21188400  0.40697400  1
  C  670  1  0.11875700  0.19712600  0.41586700  1
  C  671  1  0.09318300  0.21305300  0.42265400  1
  C  672  1  0.09333700  0.24399400  0.42008900  1
  C  676  1  0.12019900  0.29008600  0.41575500  1
  C  677  1  0.12267600  0.30962600  0.39167700  1
  C  678  1  0.12106800  0.34037600  0.39631100  1
  C  679  1  0.11641800  0.35149700  0.42504000  1
  C  680  1  0.11323300  0.33222300  0.44894800  1
  C  681  1  0.11557700  0.30162600  0.44428800  1
  C  685  1  0.93063800  0.26360700  0.62162800  1
  C  686  1  0.90484400  0.24641300  0.62481200  1
  C  687  1  0.90636400  0.21538700  0.62260400  1
  C  688  1  0.93362100  0.20158100  0.61675000  1
  C  689  1  0.95911800  0.21847800  0.61292400  1
  C  690  1  0.95767700  0.24936100  0.61567400  1
  C  694  1  0.92960900  0.29479500  0.62155500  1
  C  695  1  0.92184600  0.31093300  0.64704100  1
  C  696  1  0.92308400  0.34205500  0.64687600  1
  C  697  1  0.93265600  0.35700800  0.62128200  1
  C  698  1  0.94117900  0.34120500  0.59618500  1
  C  699  1  0.93924900  0.31019700  0.59627900  1
  C  703  1  0.13351500  0.79307000  0.63497500  1
  C  704  1  0.15914900  0.81022200  0.63116900  1
  C  705  1  0.15677500  0.84092500  0.62720300  1
  C  706  1  0.12874500  0.85434900  0.62617600  1
  C  707  1  0.10305000  0.83742600  0.62932900  1
  C  708  1  0.10556200  0.80673600  0.63386600  1
  C  712  1  0.13531000  0.76210700  0.63381800  1
  C  713  1  0.13886300  0.74540700  0.65979500  1
  C  714  1  0.13744100  0.71434400  0.65867300  1
  C  715  1  0.13152800  0.70018700  0.63155300  1
  C  716  1  0.12768100  0.71665800  0.60573900  1
  C  717  1  0.12968100  0.74763900  0.60686000  1
  C  721  1  0.79409900  0.62402800  0.13267200  1
  C  722  1  0.81325800  0.62802300  0.15686700  1
  C  723  1  0.84410500  0.62739900  0.15275800  1
  C  724  1  0.85579400  0.62256200  0.12434500  1
  C  725  1  0.83698300  0.61832300  0.10026700  1
  C  726  1  0.80621400  0.61916700  0.10438600  1
  C  730  1  0.76322800  0.62259100  0.13686900  1
  C  731  1  0.74735700  0.64761400  0.14640600  1
  C  732  1  0.71619900  0.64737600  0.14687000  1
  C  733  1  0.70099100  0.62158000  0.13823000  1
  C  734  1  0.71649500  0.59690100  0.12817000  1
  C  735  1  0.74754400  0.59731100  0.12775500  1
  C  739  1  0.25709800  0.63176900  0.92886200  1
  C  740  1  0.23970300  0.63616200  0.90345300  1
  C  741  1  0.20867800  0.63457600  0.90527800  1
  C  742  1  0.19509600  0.62825000  0.93260100  1
  C  743  1  0.21223400  0.62342000  0.95779800  1
  C  744  1  0.24316300  0.62550000  0.95596000  1
  C  748  1  0.28803500  0.62927000  0.92670400  1
  C  749  1  0.30574400  0.65404800  0.92045100  1
  C  750  1  0.33677800  0.65167900  0.92103500  1
  C  751  1  0.35001400  0.62436500  0.92814800  1
  C  752  1  0.33258700  0.59975200  0.93480200  1
  C  753  1  0.30165000  0.60221300  0.93378400  1
  C  757  1  0.26077700  0.42411900  0.13280000  1
  C  758  1  0.24307900  0.42143800  0.15823200  1
  C  759  1  0.21206600  0.42281700  0.15591100  1
  C  760  1  0.19887400  0.42726100  0.12803000  1
  C  761  1  0.21632800  0.43030900  0.10273400  1
  C  762  1  0.24724400  0.42860300  0.10515100  1
  C  766  1  0.29166600  0.42668900  0.13511900  1
  C  767  1  0.30950700  0.40146100  0.13870600  1
  C  768  1  0.34048800  0.40388000  0.13687100  1
  C  769  1  0.35352600  0.43151000  0.13093900  1
  C  770  1  0.33591400  0.45650800  0.12689700  1
  C  771  1  0.30503400  0.45413100  0.12912000  1
  C  775  1  0.79435000  0.40485400  0.92875100  1
  C  776  1  0.81299600  0.39913000  0.90456200  1
  C  777  1  0.84389800  0.40035500  0.90791800  1
  C  778  1  0.85610700  0.40613900  0.93599200  1
  C  779  1  0.83780500  0.41086800  0.96042700  1
  C  780  1  0.80697000  0.40995300  0.95675600  1
  C  784  1  0.76427700  0.41146500  0.92374300  1
  C  785  1  0.74542200  0.39077600  0.91027800  1
  C  786  1  0.71491000  0.39647000  0.90763300  1
  C  787  1  0.70368400  0.42388100  0.91743400  1
  C  788  1  0.72226800  0.44492700  0.93038400  1
  C  789  1  0.75254600  0.43869500  0.93319800  1
  C  793  1  0.61413600  0.93144400  0.26500600  1
  C  794  1  0.62536100  0.90663300  0.24984400  1
  C  795  1  0.62702900  0.90654300  0.21878400  1
  C  796  1  0.61675000  0.93120200  0.20284300  1
  C  797  1  0.60493200  0.95570700  0.21742200  1
  C  798  1  0.60389200  0.95583000  0.24851500  1
  C  802  1  0.61290700  0.93197700  0.29624500  1
  C  803  1  0.63876000  0.92825300  0.31324200  1
  C  804  1  0.63764100  0.93012900  0.34427400  1
  C  805  1  0.61066400  0.93623500  0.35843800  1
  C  806  1  0.58502800  0.94047600  0.34184400  1
  C  807  1  0.58610600  0.93824600  0.31084700  1
  C  811  1  0.62735900  0.11878400  0.79645500  1
  C  812  1  0.63028100  0.14445700  0.81381800  1
  C  813  1  0.62726500  0.14289000  0.84473100  1
  C  814  1  0.62098900  0.11561900  0.85831700  1
  C  815  1  0.61786200  0.09011600  0.84126500  1
  C  816  1  0.62111700  0.09167700  0.81040500  1
  C  820  1  0.62765700  0.12055600  0.76534600  1
  C  821  1  0.65294600  0.13056800  0.75024100  1
  C  822  1  0.65325000  0.13183400  0.71917000  1
  C  823  1  0.62805600  0.12270800  0.70326100  1
  C  824  1  0.60294000  0.11227700  0.71790300  1
  C  825  1  0.60277100  0.11146800  0.74898300  1
  C  829  1  0.41614300  0.92385300  0.78925100  1
  C  830  1  0.41438000  0.90004500  0.80914400  1
  C  831  1  0.41721100  0.90503300  0.83974000  1
  C  832  1  0.42219600  0.93391000  0.85031900  1
  C  833  1  0.42415500  0.95766800  0.83064600  1
  C  834  1  0.42084700  0.95260200  0.80019800  1
  C  838  1  0.41909100  0.91876800  0.75871800  1
  C  839  1  0.39426700  0.91258000  0.74105700  1
  C  840  1  0.39669500  0.91278900  0.70999700  1
  C  841  1  0.42411700  0.91960000  0.69677100  1
  C  842  1  0.44879600  0.92605200  0.71418100  1
  C  843  1  0.44630600  0.92517700  0.74510700  1
  C  847  1  0.41558100  0.13445200  0.26930100  1
  C  848  1  0.40218100  0.15619400  0.25164200  1
  C  849  1  0.39998000  0.15230500  0.22078200  1
  C  850  1  0.40998000  0.12555300  0.20810900  1
  C  851  1  0.42288500  0.10356200  0.22557500  1
  C  852  1  0.42515300  0.10794800  0.25619600  1
  C  856  1  0.42256400  0.13995800  0.29912700  1
  C  857  1  0.39978000  0.14156000  0.32012800  1
  C  858  1  0.40627300  0.13916600  0.35045300  1
  C  859  1  0.43576900  0.13548400  0.35972000  1
  C  860  1  0.45867200  0.13445100  0.33898100  1
  C  861  1  0.45203100  0.13703500  0.30875200  1
  C  865  1  0.20447500  0.14697600  0.42806600  1
  C  866  1  0.20549400  0.17408300  0.44326300  1
  C  867  1  0.18876100  0.19806400  0.43323900  1
  C  868  1  0.17112000  0.19533200  0.40770300  1
  C  869  1  0.17322800  0.16943800  0.39030000  1
  C  872  1  0.18956900  0.14532600  0.40080000  1
  C  876  1  0.84890400  0.91020700  0.41493300  1
  C  877  1  0.84128200  0.88271900  0.42731200  1
  C  878  1  0.85679200  0.85733700  0.41932000  1
  C  879  1  0.88015600  0.85905500  0.39873300  1
  C  880  1  0.88470800  0.88573300  0.38299800  1
  C  883  1  0.86950900  0.91129800  0.39167300  1
  C  887  1  0.85189400  0.14533500  0.60369800  1
  C  888  1  0.85184100  0.17019000  0.58501100  1
  C  889  1  0.86676100  0.19592200  0.59344600  1
  C  890  1  0.88117600  0.19735100  0.62100700  1
  C  891  1  0.87862900  0.17353000  0.64107600  1
  C  894  1  0.86416500  0.14765600  0.63220500  1
  C  898  1  0.20838300  0.90687100  0.59133700  1
  C  899  1  0.20215500  0.88167400  0.57435000  1
  C  900  1  0.18805400  0.85750200  0.58756000  1
  C  901  1  0.18074500  0.85811700  0.61786900  1
  C  902  1  0.18942300  0.88239500  0.63543700  1
  C  905  1  0.20330600  0.90652900  0.62205300  1
  C  909  1  0.42189600  0.20590900  0.15198600  1
  C  910  1  0.43368500  0.21183400  0.18008600  1
  C  911  1  0.42228400  0.19739900  0.20480200  1
  C  912  1  0.39879700  0.17704900  0.20177200  1
  C  913  1  0.38384200  0.17507000  0.17434800  1
  C  916  1  0.39599600  0.18888800  0.14943200  1
  C  920  1  0.44575700  0.85170200  0.90859400  1
  C  921  1  0.46116000  0.85149500  0.88161900  1
  C  922  1  0.44974600  0.86673200  0.85728200  1
  C  923  1  0.42248200  0.88166100  0.85947000  1
  C  924  1  0.40572500  0.87958300  0.88573100  1
  C  927  1  0.41754400  0.86473800  0.91015400  1
  C  931  1  0.62117000  0.84866600  0.15038200  1
  C  932  1  0.60361300  0.84418000  0.17568300  1
  C  933  1  0.60920900  0.86011700  0.20152300  1
  C  934  1  0.63251800  0.88074200  0.20236900  1
  C  935  1  0.65273900  0.88204000  0.17849800  1
  C  938  1  0.64662700  0.86639300  0.15248000  1
  C  942  1  0.60085800  0.19924800  0.91095000  1
  C  943  1  0.58451300  0.19789900  0.88454100  1
  C  944  1  0.59552800  0.18217800  0.86034700  1
  C  945  1  0.62328300  0.16818000  0.86214700  1
  C  946  1  0.64099700  0.17190500  0.88758800  1
  C  949  1  0.62961100  0.18734600  0.91184000  1
  C  953  1  0.14404000  0.44980500  0.20977400  1
  C  954  1  0.17056100  0.46598100  0.20951300  1
  C  955  1  0.19533100  0.45469500  0.19485700  1
  C  956  1  0.19397500  0.42689100  0.18085100  1
  C  957  1  0.16847900  0.40913600  0.18417300  1
  C  960  1  0.14361600  0.42082900  0.19840100  1
  C  964  1  0.90754500  0.43715100  0.85417000  1
  C  965  1  0.87899500  0.44925000  0.85445000  1
  C  966  1  0.85639600  0.43455100  0.86940300  1
  C  967  1  0.86191800  0.40727400  0.88355800  1
  C  968  1  0.88983100  0.39361900  0.88040500  1
  C  971  1  0.91256300  0.40878700  0.86593500  1
  C  975  1  0.14069800  0.60888300  0.85145300  1
  C  976  1  0.16713700  0.59256700  0.85130600  1
  C  977  1  0.19208300  0.60359100  0.86581800  1
  C  978  1  0.19098300  0.63130600  0.88000800  1
  C  979  1  0.16560000  0.64926900  0.87705600  1
  C  982  1  0.14055200  0.63780200  0.86298600  1
  C  986  1  0.91423900  0.60382200  0.20657200  1
  C  987  1  0.88796900  0.58720500  0.20719300  1
  C  988  1  0.86303300  0.59711700  0.19193900  1
  C  989  1  0.86377100  0.62416000  0.17651400  1
  C  990  1  0.88929200  0.64214000  0.17809400  1
  C  993  1  0.91438900  0.63178400  0.19294000  1
  C  997  1  0.14883700  0.19493200  0.63629700  1
  C  998  1  0.17802300  0.19666800  0.62584600  1
  C  999  1  0.20005400  0.17964900  0.63886600  1
  C  1000  1  0.19333300  0.16055700  0.66263100  1
  C  1001  1  0.16489400  0.16167200  0.67557400  1
  C  1004  1  0.14272500  0.17856400  0.66206600  1
  C  1008  1  0.91241900  0.84907100  0.61329500  1
  C  1009  1  0.88519500  0.85059800  0.59840800  1
  C  1010  1  0.86122100  0.86506600  0.61153800  1
  C  1011  1  0.86398200  0.87764600  0.63992800  1
  C  1012  1  0.89034000  0.87335200  0.65613300  1
  C  1015  1  0.91437600  0.85925600  0.64265800  1
  C  1019  1  0.13840400  0.84622700  0.46308100  1
  C  1020  1  0.16368600  0.84773800  0.48106600  1
  C  1021  1  0.18865500  0.86307900  0.47118100  1
  C  1022  1  0.18876400  0.87619800  0.44293000  1
  C  1023  1  0.16439200  0.87228100  0.42380600  1
  C  1026  1  0.13931100  0.85741200  0.43407000  1
  C  1030  1  0.90384300  0.20517400  0.45024400  1
  C  1031  1  0.87867700  0.20693500  0.46839400  1
  C  1032  1  0.85330400  0.19086400  0.46111100  1
  C  1033  1  0.85285700  0.17321500  0.43546300  1
  C  1034  1  0.87656900  0.17480800  0.41513600  1
  C  1037  1  0.90209200  0.19047500  0.42288500  1
  C  1041  1  0.19955000  0.43008800  0.90869500  1
  C  1042  1  0.20319600  0.44488500  0.88158800  1
  C  1043  1  0.18797100  0.43541200  0.85655400  1
  C  1044  1  0.16871000  0.41097800  0.85818700  1
  C  1045  1  0.16780600  0.39391600  0.88440900  1
  C  1048  1  0.18292100  0.40380500  0.90957500  1
  C  1052  1  0.84540000  0.45383100  0.14544100  1
  C  1053  1  0.84797600  0.47160600  0.17077300  1
  C  1054  1  0.86300000  0.46085600  0.19559100  1
  C  1055  1  0.87492500  0.43205800  0.19543500  1
  C  1056  1  0.86967000  0.41316800  0.17115600  1
  C  1059  1  0.85496600  0.42421600  0.14631200  1
  C  1063  1  0.84864800  0.62229100  0.90783400  1
  C  1064  1  0.84709100  0.60872000  0.87992200  1
  C  1065  1  0.86093300  0.62176700  0.85563600  1
  C  1066  1  0.87614800  0.64879100  0.85880200  1
  C  1067  1  0.87434500  0.66431400  0.88590900  1
  C  1070  1  0.86099700  0.65074300  0.91034100  1
  C  1074  1  0.20875100  0.61766200  0.14887700  1
  C  1075  1  0.21276400  0.60293600  0.17594100  1
  C  1076  1  0.19867900  0.61334500  0.20136100  1
  C  1077  1  0.18098200  0.63897200  0.20020000  1
  C  1078  1  0.17985500  0.65570500  0.17380900  1
  C  1081  1  0.19347800  0.64476500  0.14826100  1
  C  1085  1  0.44734800  0.15161200  0.85431400  1
  C  1086  1  0.46468800  0.17745500  0.85468100  1
  C  1087  1  0.45635600  0.20154000  0.87205600  1
  C  1088  1  0.43042600  0.20008400  0.88919500  1
  C  1089  1  0.41128200  0.17554400  0.88644000  1
  C  1092  1  0.41998600  0.15139600  0.86915200  1
  C  1096  1  0.44345500  0.91375900  0.20434600  1
  C  1097  1  0.45928700  0.88705900  0.20483000  1
  C  1098  1  0.44826300  0.86244400  0.18983600  1
  C  1099  1  0.42094000  0.86401100  0.17491100  1
  C  1100  1  0.40373700  0.89001900  0.17683500  1
  C  1103  1  0.41519700  0.91478800  0.19137900  1
  C  1107  1  0.62939300  0.14261200  0.20476800  1
  C  1108  1  0.61641300  0.17039000  0.20970800  1
  C  1109  1  0.62677300  0.19509800  0.19444100  1
  C  1110  1  0.65056700  0.19244500  0.17443500  1
  C  1111  1  0.66595300  0.16529600  0.17242600  1
  C  1114  1  0.65499300  0.14042500  0.18726000  1
  C  1118  1  0.60877100  0.90079800  0.84620000  1
  C  1119  1  0.59323000  0.87393600  0.84668100  1
  C  1120  1  0.60464600  0.84995100  0.86246200  1
  C  1121  1  0.63182800  0.85256600  0.87751200  1
  C  1122  1  0.64917000  0.87829600  0.87377900  1
  C  1125  1  0.63734100  0.90240000  0.85841600  1
  C  1129  1  0.70306400  0.63822300  0.94398900  1
  C  1130  1  0.70423400  0.66462000  0.96035600  1
  C  1131  1  0.68894000  0.68957000  0.95053500  1
  C  1132  1  0.67282800  0.68861600  0.92389900  1
  C  1133  1  0.67405600  0.66302300  0.90599200  1
  C  1136  1  0.68895100  0.63792300  0.91627300  1
  C  1140  1  0.34823100  0.40486100  0.94034600  1
  C  1141  1  0.34457100  0.37942600  0.95791000  1
  C  1142  1  0.36201200  0.35446900  0.95293000  1
  C  1143  1  0.38328000  0.35468300  0.93021200  1
  C  1144  1  0.38423800  0.37863500  0.91012100  1
  C  1147  1  0.36696800  0.40373700  0.91555700  1
  C  1151  1  0.35160500  0.64681200  0.11359600  1
  C  1152  1  0.35081600  0.67415300  0.09890100  1
  C  1153  1  0.36598700  0.69832000  0.11064500  1
  C  1154  1  0.38155200  0.69563000  0.13752300  1
  C  1155  1  0.37953400  0.66911100  0.15393500  1
  C  1158  1  0.36481000  0.64479800  0.14171000  1
  C  1162  1  0.70639400  0.41209500  0.11164300  1
  C  1163  1  0.70702800  0.38473200  0.09702100  1
  C  1164  1  0.69227200  0.36052900  0.10929700  1
  C  1165  1  0.67749500  0.36324600  0.13662600  1
  C  1166  1  0.67963000  0.38987700  0.15278900  1
  C  1169  1  0.69391100  0.41419300  0.14008100  1
  C  1173  1  0.95308000  0.70919000  0.64026500  1
  C  1174  1  0.96931500  0.70787700  0.66666667  1
  C  1175  1  0.95721600  0.69375500  0.69139000  1
  C  1176  1  0.92852200  0.68162200  0.69011500  1
  C  1177  1  0.91125100  0.68533700  0.66438500  1
  C  1180  1  0.92369000  0.69897900  0.63959800  1
  C  1184  1  0.93630100  0.34549500  0.40644500  1
  C  1185  1  0.95072200  0.34282200  0.37908000  1
  C  1186  1  0.93972900  0.35783600  0.35445200  1
  C  1187  1  0.91403200  0.37533000  0.35687800  1
  C  1188  1  0.89712900  0.37419500  0.38319600  1
  C  1191  1  0.90873900  0.35980000  0.40802100  1
  C  1195  1  0.13018400  0.34860200  0.64444500  1
  C  1196  1  0.11438500  0.34549900  0.67105400  1
  C  1197  1  0.12093700  0.36350800  0.69515800  1
  C  1198  1  0.14351800  0.38485800  0.69308900  1
  C  1199  1  0.16143000  0.38592900  0.66746900  1
  C  1202  1  0.15443600  0.36802500  0.64319100  1
  C  1206  1  0.11646500  0.70542400  0.41712500  1
  C  1207  1  0.10249400  0.70609900  0.38938600  1
  C  1208  1  0.11578300  0.69235300  0.36510800  1
  C  1209  1  0.14336800  0.67816500  0.36824100  1
  C  1210  1  0.15913700  0.68090000  0.39508800  1
  C  1213  1  0.14542100  0.69422000  0.41942600  1
  C  1217  1  0.63993000  0.94366200  0.70477200  1
  C  1218  1  0.66657500  0.95942800  0.70748500  1
  C  1219  1  0.69213500  0.94914000  0.69347900  1
  C  1220  1  0.69160400  0.92257100  0.67721300  1
  C  1221  1  0.66546600  0.90545600  0.67658500  1
  C  1224  1  0.63981400  0.91617600  0.69018300  1
  C  1228  1  0.39600300  0.93022800  0.34645100  1
  C  1229  1  0.36855200  0.94461900  0.34455400  1
  C  1230  1  0.34438200  0.93358600  0.36031100  1
  C  1231  1  0.34752600  0.90805400  0.37798500  1
  C  1232  1  0.37353000  0.89083000  0.37542000  1
  C  1235  1  0.39788700  0.90241800  0.36023400  1
  C  1239  1  0.65062200  0.10060000  0.35055400  1
  C  1240  1  0.67529800  0.08174900  0.35185000  1
  C  1241  1  0.69965800  0.08948700  0.36922400  1
  C  1242  1  0.69980500  0.11641700  0.38485300  1
  C  1243  1  0.67651200  0.13685100  0.38083400  1
  C  1246  1  0.65197200  0.12868100  0.36388300  1
  C  1250  1  0.41302700  0.13549100  0.70526400  1
  C  1251  1  0.38688900  0.12107900  0.71401800  1
  C  1252  1  0.36044500  0.12671700  0.69943700  1
  C  1253  1  0.35954600  0.14697500  0.67580100  1
  C  1254  1  0.38486900  0.16428900  0.66947000  1
  C  1257  1  0.41160100  0.15802400  0.68387400  1
  C  1261  1  0.65080200  0.70339900  0.12133200  1
  C  1262  1  0.67830800  0.70444600  0.10690100  1
  C  1263  1  0.70260800  0.68965800  0.11884600  1
  C  1264  1  0.69976400  0.67373800  0.14551900  1
  C  1265  1  0.67330600  0.67611400  0.16201700  1
  C  1268  1  0.64888500  0.69055100  0.14961100  1
  C  1272  1  0.40852700  0.34905800  0.11134700  1
  C  1273  1  0.38216300  0.34948300  0.09489000  1
  C  1274  1  0.35750400  0.36467800  0.10561100  1
  C  1275  1  0.35868000  0.37905800  0.13322200  1
  C  1276  1  0.38415000  0.37611600  0.15108000  1
  C  1279  1  0.40891700  0.36128900  0.13996200  1
  C  1283  1  0.64316700  0.34370300  0.92369900  1
  C  1284  1  0.67054300  0.33641600  0.93642000  1
  C  1285  1  0.69606200  0.35101400  0.92724700  1
  C  1286  1  0.69459000  0.37293200  0.90508600  1
  C  1287  1  0.66790100  0.37672700  0.88915500  1
  C  1290  1  0.64217100  0.36259100  0.89903100  1
  C  1294  1  0.40522000  0.70815700  0.94018800  1
  C  1295  1  0.37891300  0.71006500  0.95659900  1
  C  1296  1  0.35396900  0.69425500  0.94751000  1
  C  1297  1  0.35503800  0.67680300  0.92172000  1
  C  1298  1  0.38030100  0.67782400  0.90335000  1
  C  1301  1  0.40537400  0.69322100  0.91290400  1
  C  1305  1  0.69846100  0.94940000  0.40985600  1
  C  1306  1  0.69672300  0.96734300  0.38449800  1
  C  1307  1  0.67897600  0.95891100  0.36069000  1
  C  1308  1  0.66316800  0.93212700  0.36169700  1
  C  1309  1  0.66666667  0.91298100  0.38614900  1
  C  1312  1  0.68412600  0.92178600  0.41008100  1
  C  1316  1  0.34303300  0.93726100  0.64145100  1
  C  1317  1  0.34086700  0.95242800  0.66845700  1
  C  1318  1  0.35524700  0.94133600  0.69346800  1
  C  1319  1  0.37153300  0.91477300  0.69181100  1
  C  1320  1  0.37005200  0.89750400  0.66579300  1
  C  1323  1  0.35615500  0.90905500  0.64066800  1
  C  1327  1  0.35280800  0.10472600  0.41713200  1
  C  1328  1  0.35376400  0.09083300  0.38940600  1
  C  1329  1  0.36979000  0.10373400  0.36641700  1
  C  1330  1  0.38419400  0.13106100  0.37063200  1
  C  1331  1  0.38163000  0.14593800  0.39794200  1
  C  1334  1  0.36602900  0.13261600  0.42106700  1
  C  1338  1  0.71167800  0.11915500  0.65271300  1
  C  1339  1  0.71546600  0.10320000  0.67910400  1
  C  1340  1  0.69928800  0.11111800  0.70418400  1
  C  1341  1  0.67967000  0.13529700  0.70312200  1
  C  1342  1  0.67969700  0.15416000  0.67815400  1
  C  1345  1  0.69523100  0.14554000  0.65281000  1
  C  1349  1  0.92736300  0.64181200  0.35226200  1
  C  1350  1  0.94005300  0.66985800  0.34802600  1
  C  1351  1  0.92785000  0.69456300  0.36183600  1
  C  1352  1  0.90265800  0.69158700  0.37999000  1
  C  1353  1  0.88740500  0.66428300  0.38062500  1
  C  1356  1  0.90016800  0.63945900  0.36721000  1
  C  1360  1  0.93395800  0.40963600  0.70655700  1
  C  1361  1  0.95199800  0.38434200  0.70846700  1
  C  1362  1  0.94553500  0.35927100  0.69159100  1
  C  1363  1  0.92070900  0.35897100  0.67280800  1
  C  1364  1  0.90068100  0.38297100  0.67348500  1
  C  1367  1  0.90757800  0.40817900  0.69010400  1
  C  1371  1  0.10969200  0.64772200  0.71269800  1
  C  1372  1  0.09463400  0.67486000  0.71343400  1
  C  1373  1  0.10666900  0.69942200  0.69905400  1
  C  1374  1  0.13403400  0.69712200  0.68428400  1
  C  1375  1  0.15099200  0.67100600  0.68724600  1
  C  1378  1  0.13852200  0.64633100  0.70111700  1
  C  1382  1  0.09980400  0.41347200  0.34622000  1
  C  1383  1  0.08181500  0.38817800  0.34468600  1
  C  1384  1  0.09093500  0.36192400  0.35826400  1
  C  1385  1  0.11840600  0.36056000  0.37288600  1
  C  1386  1  0.13782300  0.38499600  0.37169800  1
  C  1389  1  0.12831500  0.41131500  0.35852400  1
  C  1393  1  0.20106200  0.98177400  0.44428100  1
  C  1394  1  0.19664700  0.99261700  0.47305600  1
  C  1395  1  0.19272700  0.02296200  0.47758500  1
  C  1396  1  0.19387100  0.04272200  0.45348100  1
  C  1397  1  0.19474400  0.03123700  0.42435700  1
  C  1400  1  0.19821300  0.00077300  0.41993000  1
  C  1404  1  0.85630800  0.06948000  0.45873400  1
  C  1405  1  0.85387100  0.05392900  0.48550800  1
  C  1406  1  0.85945000  0.02348700  0.48620000  1
  C  1407  1  0.86428000  0.00827000  0.45931800  1
  C  1408  1  0.87206900  0.02462500  0.43382300  1
  C  1411  1  0.86848600  0.05539400  0.43385000  1
  C  1415  1  0.84921200  0.98134200  0.63043300  1
  C  1416  1  0.84882000  0.98456600  0.59947400  1
  C  1417  1  0.84955800  0.01275200  0.58678700  1
  C  1418  1  0.85088300  0.03811200  0.60481800  1
  C  1419  1  0.85378900  0.03466200  0.63579700  1
  C  1422  1  0.85300200  0.00633500  0.64842500  1
  C  1426  1  0.20164600  0.06333800  0.62506300  1
  C  1427  1  0.20428100  0.06483900  0.59408300  1
  C  1428  1  0.20359100  0.03888800  0.57728300  1
  C  1429  1  0.20069800  0.01117800  0.59126000  1
  C  1430  1  0.19444000  0.01031700  0.62198300  1
  C  1433  1  0.19453600  0.03644000  0.63866300  1
  C  1437  1  0.45435300  0.19696800  0.99241000  1
  C  1438  1  0.48280500  0.19750400  0.00482000  1
  C  1439  1  0.48644500  0.19151200  0.03496600  1
  C  1440  1  0.46119900  0.18813700  0.05306000  1
  C  1441  1  0.43362900  0.18207400  0.03953800  1
  C  1444  1  0.43042600  0.18627000  0.00903100  1
  C  1448  1  0.43851700  0.84888600  0.07242400  1
  C  1449  1  0.46907700  0.84812200  0.06679000  1
  C  1450  1  0.47945300  0.85069800  0.03780100  1
  C  1451  1  0.45930200  0.85351100  0.01421700  1
  C  1452  1  0.42881500  0.85728800  0.02034600  1
  C  1455  1  0.41861300  0.85530300  0.04953800  1
  C  1459  1  0.61767500  0.84819400  0.98266200  1
  C  1460  1  0.58813100  0.84798500  0.99227800  1
  C  1461  1  0.58168600  0.85196700  0.02226300  1
  C  1462  1  0.60484400  0.85480900  0.04299500  1
  C  1463  1  0.63408700  0.85895400  0.03263600  1
  C  1466  1  0.64031800  0.85596200  0.00240400  1
  C  1470  1  0.61855900  0.21063300  0.07503600  1
  C  1471  1  0.58822300  0.21576500  0.07044800  1
  C  1472  1  0.57642600  0.21439400  0.04192500  1
  C  1473  1  0.59484300  0.20828300  0.01756200  1
  C  1474  1  0.62480800  0.20067900  0.02258500  1
  C  1477  1  0.63639200  0.20145600  0.05134800  1
  C  1481  1  0.98026200  0.44015000  0.20419200  1
  C  1482  1  0.98565400  0.47051400  0.20013800  1
  C  1483  1  0.01470100  0.48086100  0.19783900  1
  C  1484  1  0.03860900  0.46099500  0.19980000  1
  C  1485  1  0.03292500  0.43019400  0.20062400  1
  C  1488  1  0.00376100  0.41995900  0.20274100  1
  C  1492  1  0.06944600  0.44576600  0.84946100  1
  C  1493  1  0.06193300  0.47572000  0.84592500  1
  C  1494  1  0.03265000  0.48481600  0.84977700  1
  C  1495  1  0.01051200  0.46363400  0.85563800  1
  C  1496  1  0.01888100  0.43436500  0.86307900  1
  C  1499  1  0.04851000  0.42576300  0.86059100  1
  C  1503  1  0.97845300  0.62794600  0.84846300  1
  C  1504  1  0.98129300  0.59705700  0.85051500  1
  C  1505  1  0.00923300  0.58439400  0.85431800  1
  C  1506  1  0.03461900  0.60245100  0.85555200  1
  C  1507  1  0.03114700  0.63357100  0.85678400  1
  C  1510  1  0.00303100  0.64616000  0.85346100  1
  C  1514  1  0.08006300  0.61315400  0.21810900  1
  C  1515  1  0.07354900  0.58303200  0.22215900  1
  C  1516  1  0.04443900  0.57307200  0.21932300  1
  C  1517  1  0.02143500  0.59317500  0.21306000  1
  C  1518  1  0.02861500  0.62286000  0.20613700  1
  C  1521  1  0.05799300  0.63256800  0.20817400  1
  C  1525  1  0.98614800  0.20469500  0.60721500  1
  C  1526  1  0.99866100  0.20648400  0.57885000  1
  C  1527  1  0.02910800  0.20254200  0.57529100  1
  C  1528  1  0.04734800  0.19807500  0.60020600  1
  C  1529  1  0.03413000  0.19294700  0.62812400  1
  C  1532  1  0.00348600  0.19584800  0.63136500  1
  C  1536  1  0.07566200  0.84954700  0.62115400  1
  C  1537  1  0.07027300  0.85592900  0.59115600  1
  C  1538  1  0.04127800  0.85913000  0.58091900  1
  C  1539  1  0.01735700  0.85606100  0.60059400  1
  C  1540  1  0.02295600  0.85255700  0.63122000  1
  C  1543  1  0.05208300  0.84943900  0.64131600  1
  C  1547  1  0.97527100  0.84532300  0.44421300  1
  C  1548  1  0.97878400  0.84122300  0.47484600  1
  C  1549  1  0.00688300  0.84313100  0.48757900  1
  C  1550  1  0.03185000  0.84814800  0.46959700  1
  C  1551  1  0.02768700  0.85577400  0.43949500  1
  C  1554  1  0.99928900  0.85495500  0.42708300  1
  C  1558  1  0.06854600  0.19912700  0.43533700  1
  C  1559  1  0.06389500  0.20212800  0.46594400  1
  C  1560  1  0.03516300  0.20125000  0.47734700  1
  C  1561  1  0.01081700  0.19821400  0.45813200  1
  C  1562  1  0.01587500  0.19167400  0.42793300  1
  C  1565  1  0.04478600  0.19185600  0.41674600  1
  C  1569  1  0.20345400  0.43780100  0.07559400  1
  C  1570  1  0.20426200  0.46736300  0.06604300  1
  C  1571  1  0.20129800  0.47391800  0.03597700  1
  C  1572  1  0.19839000  0.45095100  0.01508300  1
  C  1573  1  0.19446900  0.42157000  0.02517200  1
  C  1576  1  0.19672000  0.41521300  0.05542800  1
  C  1580  1  0.84928500  0.42464800  0.98567800  1
  C  1581  1  0.85054800  0.45574400  0.98645800  1
  C  1582  1  0.85179700  0.47050700  0.01359700  1
  C  1583  1  0.85160800  0.45428300  0.04018000  1
  C  1584  1  0.85325600  0.42301500  0.03915300  1
  C  1587  1  0.85228200  0.40836700  0.01187500  1
  C  1591  1  0.84892800  0.61141300  0.07262500  1
  C  1592  1  0.85100400  0.58177400  0.06359600  1
  C  1593  1  0.85504500  0.57513300  0.03367800  1
  C  1594  1  0.85598200  0.59801800  0.01246600  1
  C  1595  1  0.85730400  0.62774900  0.02223300  1
  C  1598  1  0.85416800  0.63427800  0.05235100  1
  C  1602  1  0.19909500  0.61381900  0.98411800  1
  C  1603  1  0.20121100  0.58379400  0.99186600  1
  C  1604  1  0.20026100  0.57558900  0.02165400  1
  C  1605  1  0.19803200  0.59735900  0.04387300  1
  C  1606  1  0.19202900  0.62697800  0.03561700  1
  C  1609  1  0.19224300  0.63500800  0.00569400  1
  C  1613  1  0.43489900  0.98507900  0.84028600  1
  C  1614  1  0.46500700  0.99172700  0.83628200  1
  C  1615  1  0.47464700  0.02105900  0.83755400  1
  C  1616  1  0.45437300  0.04417400  0.84265900  1
  C  1617  1  0.42453100  0.03713700  0.84896600  1
  C  1620  1  0.41500800  0.00762900  0.84794800  1
  C  1624  1  0.43544700  0.07824400  0.21271100  1
  C  1625  1  0.46559300  0.07202800  0.21719000  1
  C  1626  1  0.47594500  0.04305200  0.21458100  1
  C  1627  1  0.45616200  0.01994000  0.20792500  1
  C  1628  1  0.42666200  0.02678100  0.19998700  1
  C  1631  1  0.41659000  0.05604600  0.20194100  1
  C  1635  1  0.59834800  0.98134600  0.20123800  1
  C  1636  1  0.57008400  0.99411100  0.20265300  1
  C  1637  1  0.56652100  0.02423200  0.19651800  1
  C  1638  1  0.59174500  0.04209600  0.19200100  1
  C  1639  1  0.61903000  0.02822600  0.18540700  1
  C  1642  1  0.62204000  0.99766800  0.18948900  1
  C  1646  1  0.60843600  0.06382200  0.85445900  1
  C  1647  1  0.57807400  0.05723800  0.85507200  1
  C  1648  1  0.56881700  0.02783100  0.85739200  1
  C  1649  1  0.58990700  0.00490000  0.85803100  1
  C  1650  1  0.62026000  0.01198200  0.86118200  1
  C  1653  1  0.62935800  0.04153500  0.85962400  1
  C  1657  1  0.71082300  0.47177200  0.94103400  1
  C  1658  1  0.71460200  0.47955900  0.97089300  1
  C  1659  1  0.71185200  0.50906300  0.97964300  1
  C  1660  1  0.70616300  0.53127000  0.95850900  1
  C  1661  1  0.69927700  0.52292600  0.92913300  1
  C  1664  1  0.70111400  0.49314800  0.92069600  1
  C  1668  1  0.34556100  0.57295300  0.94335800  1
  C  1669  1  0.34225300  0.56317400  0.97267800  1
  C  1670  1  0.34435100  0.53303700  0.97919600  1
  C  1671  1  0.34876900  0.51236400  0.95626600  1
  C  1672  1  0.35550900  0.52258000  0.92748900  1
  C  1675  1  0.35431300  0.55293500  0.92128800  1
  C  1679  1  0.34859900  0.48278500  0.11674500  1
  C  1680  1  0.34835000  0.48902700  0.08630100  1
  C  1681  1  0.35129200  0.51821700  0.07660900  1
  C  1682  1  0.35390500  0.54136200  0.09729700  1
  C  1683  1  0.35739600  0.53455300  0.12767300  1
  C  1686  1  0.35500500  0.50518300  0.13720700  1
  C  1690  1  0.70111700  0.57289800  0.11619600  1
  C  1691  1  0.70110300  0.56852400  0.08543800  1
  C  1692  1  0.69682600  0.54009700  0.07406800  1
  C  1693  1  0.69413200  0.51579900  0.09345400  1
  C  1694  1  0.68947100  0.52125300  0.12399500  1
  C  1697  1  0.69259100  0.54996000  0.13518900  1
  C  1701  1  0.93537500  0.70283300  0.47932700  1
  C  1702  1  0.96623000  0.70598800  0.48179100  1
  C  1703  1  0.97961700  0.70510500  0.50963900  1
  C  1704  1  0.96213600  0.70177300  0.53523000  1
  C  1705  1  0.93175900  0.69467800  0.53216000  1
  C  1708  1  0.91856500  0.69497800  0.50413600  1
  C  1712  1  0.95028800  0.35593700  0.57049600  1
  C  1713  1  0.97968500  0.35304600  0.56086900  1
  C  1714  1  0.98627800  0.35504700  0.53072800  1
  C  1715  1  0.96323400  0.35824000  0.50994500  1
  C  1716  1  0.93444100  0.36523800  0.52003500  1
  C  1719  1  0.92824000  0.36455000  0.55039600  1
  C  1723  1  0.10758000  0.34302700  0.47741500  1
  C  1724  1  0.08045600  0.33645400  0.49108700  1
  C  1725  1  0.07820800  0.33711000  0.52188800  1
  C  1726  1  0.10327800  0.34345000  0.53930000  1
  C  1727  1  0.12955300  0.35317800  0.52540200  1
  C  1730  1  0.13138800  0.35339000  0.49445400  1
  C  1734  1  0.11856300  0.70264400  0.57970900  1
  C  1735  1  0.08823600  0.69860500  0.57422000  1
  C  1736  1  0.07829800  0.69387200  0.54530400  1
  C  1737  1  0.09852300  0.69425100  0.52155700  1
  C  1738  1  0.12925900  0.69465800  0.52775800  1
  C  1741  1  0.13910000  0.69860900  0.55685000  1
  C  1745  1  0.47477300  0.93715300  0.70142700  1
  C  1746  1  0.48100700  0.96750400  0.70415500  1
  C  1747  1  0.51025800  0.97743100  0.70303400  1
  C  1748  1  0.53360100  0.95704900  0.69981000  1
  C  1749  1  0.52696400  0.92704200  0.69375300  1
  C  1752  1  0.49753300  0.91731800  0.69431400  1
  C  1756  1  0.55848700  0.94701600  0.35624500  1
  C  1757  1  0.54871500  0.97642200  0.35813200  1
  C  1758  1  0.51873000  0.98230300  0.36297900  1
  C  1759  1  0.49822500  0.95873400  0.36379200  1
  C  1760  1  0.50896200  0.92944100  0.36664400  1
  C  1763  1  0.53919200  0.92374100  0.36309600  1
  C  1767  1  0.48607900  0.12249400  0.34709900  1
  C  1768  1  0.49026600  0.09173500  0.34494600  1
  C  1769  1  0.51884500  0.07999300  0.34463100  1
  C  1770  1  0.54355700  0.09880300  0.34666500  1
  C  1771  1  0.53920300  0.12951100  0.35094200  1
  C  1774  1  0.51047600  0.14117900  0.35129900  1
  C  1778  1  0.57701900  0.10627600  0.70191600  1
  C  1779  1  0.56344300  0.07839700  0.70391700  1
  C  1780  1  0.53303500  0.07573800  0.69891100  1
  C  1781  1  0.51583300  0.10133800  0.69408300  1
  C  1782  1  0.53024300  0.12824800  0.68723700  1
  C  1785  1  0.56097100  0.13039700  0.69065900  1
  C  1789  1  0.48509600  0.70901600  0.12151000  1
  C  1790  1  0.49246500  0.70980500  0.09132400  1
  C  1791  1  0.52196700  0.70678600  0.08259000  1
  C  1792  1  0.54446200  0.70369200  0.10397500  1
  C  1793  1  0.53651400  0.69989600  0.13402100  1
  C  1796  1  0.50682000  0.70225400  0.14258300  1
  C  1800  1  0.57423400  0.34399000  0.12453000  1
  C  1801  1  0.56830000  0.33999700  0.09424700  1
  C  1802  1  0.53913400  0.33971300  0.08405900  1
  C  1803  1  0.51549500  0.34350500  0.10394500  1
  C  1804  1  0.52159200  0.34980200  0.13399300  1
  C  1807  1  0.55093800  0.35019900  0.14407600  1
  C  1811  1  0.48424600  0.35656100  0.96356600  1
  C  1812  1  0.49860800  0.35391200  0.99096700  1
  C  1813  1  0.52910800  0.35880600  0.99286200  1
  C  1814  1  0.54557500  0.36287800  0.96662300  1
  C  1815  1  0.53041300  0.37117000  0.94052200  1
  C  1818  1  0.49957100  0.36855900  0.93931900  1
  C  1822  1  0.56976300  0.70076200  0.94369300  1
  C  1823  1  0.56183200  0.70168700  0.97371100  1
  C  1824  1  0.53212500  0.69900300  0.98182200  1
  C  1825  1  0.51010100  0.69686400  0.95984300  1
  C  1826  1  0.51865700  0.69197900  0.93010700  1
  C  1829  1  0.54856700  0.69361800  0.92221400  1
  C  1833  1  0.71896500  0.93654100  0.57591300  1
  C  1834  1  0.72485700  0.96616200  0.56854200  1
  C  1835  1  0.72317800  0.97541200  0.53911900  1
  C  1836  1  0.71582900  0.95520600  0.51656000  1
  C  1837  1  0.70803800  0.92589800  0.52432700  1
  C  1840  1  0.70924500  0.91683900  0.55398800  1
  C  1844  1  0.35311900  0.93736500  0.47990000  1
  C  1845  1  0.35529600  0.96778800  0.48583200  1
  C  1846  1  0.36072300  0.97750600  0.51471300  1
  C  1847  1  0.36157800  0.95674000  0.53803900  1
  C  1848  1  0.36446000  0.92632100  0.53111800  1
  C  1851  1  0.36051800  0.91679800  0.50190400  1
  C  1855  1  0.34001700  0.10339200  0.58055800  1
  C  1856  1  0.33384500  0.07386900  0.57284500  1
  C  1857  1  0.33585400  0.06478800  0.54340200  1
  C  1858  1  0.34388000  0.08520200  0.52131000  1
  C  1859  1  0.35334100  0.11388500  0.52954000  1
  C  1862  1  0.35191800  0.12261200  0.55922600  1
  C  1866  1  0.69718100  0.09829000  0.48958000  1
  C  1867  1  0.69796100  0.06939300  0.50092600  1
  C  1868  1  0.69496900  0.06493800  0.53138000  1
  C  1869  1  0.69309600  0.08945000  0.55061000  1
  C  1870  1  0.68725000  0.11774300  0.53852600  1
  C  1873  1  0.68899500  0.12197400  0.50788200  1
  C  1877  1  0.93868500  0.47838200  0.35344900  1
  C  1878  1  0.96857100  0.48674000  0.35459900  1
  C  1879  1  0.97606700  0.51623400  0.36019900  1
  C  1880  1  0.95359800  0.53780800  0.36262700  1
  C  1881  1  0.92386000  0.52844700  0.36569200  1
  C  1884  1  0.91661900  0.49864100  0.36145900  1
  C  1888  1  0.92840100  0.57767300  0.70982000  1
  C  1889  1  0.95822300  0.56934400  0.70701700  1
  C  1890  1  0.96576300  0.53945200  0.70473500  1
  C  1891  1  0.94362900  0.51752500  0.70527200  1
  C  1892  1  0.91355600  0.52619300  0.70542400  1
  C  1895  1  0.90609500  0.55622500  0.70754900  1
  C  1899  1  0.10837600  0.48458700  0.70187500  1
  C  1900  1  0.07806600  0.49115400  0.70373000  1
  C  1901  1  0.06851400  0.52047300  0.70147800  1
  C  1902  1  0.08944400  0.54350800  0.69916900  1
  C  1903  1  0.11936500  0.53631200  0.69322600  1
  C  1906  1  0.12859500  0.50674500  0.69397500  1
  C  1910  1  0.12484500  0.57511100  0.35795500  1
  C  1911  1  0.09379400  0.57292900  0.35745500  1
  C  1912  1  0.08021000  0.54515400  0.35756300  1
  C  1913  1  0.09761000  0.51932900  0.35775500  1
  C  1914  1  0.12859000  0.52167400  0.36168800  1
  C  1917  1  0.14202600  0.54959900  0.36191300  1
  O  874  1  0.15556300  0.16486600  0.36644800  1
  O  885  1  0.90749000  0.88908900  0.36372000  1
  O  896  1  0.89378200  0.17274100  0.66699600  1
  O  907  1  0.18098400  0.88525500  0.66412700  1
  O  918  1  0.36184500  0.15516700  0.16962900  1
  O  929  1  0.38001900  0.89460400  0.88956000  1
  O  940  1  0.67461500  0.90259600  0.17739200  1
  O  951  1  0.66709500  0.15748600  0.89120600  1
  O  962  1  0.16527300  0.38294900  0.16981000  1
  O  973  1  0.89687600  0.36816600  0.89469400  1
  O  984  1  0.16256700  0.67525400  0.89180800  1
  O  995  1  0.89178600  0.66772300  0.16256200  1
  O  1006  1  0.15661100  0.14288600  0.69749400  1
  O  1017  1  0.89493200  0.88623300  0.68286300  1
  O  1028  1  0.16266400  0.88580800  0.39704500  1
  O  1039  1  0.87827400  0.15680200  0.39114000  1
  O  1050  1  0.14861000  0.37107300  0.88782400  1
  O  1061  1  0.88234400  0.38602800  0.16896600  1
  O  1072  1  0.88976500  0.68960600  0.89086500  1
  O  1083  1  0.16206000  0.67972100  0.17090300  1
  O  1094  1  0.38711000  0.17209400  0.90394000  1
  O  1105  1  0.37798500  0.89332600  0.16176100  1
  O  1116  1  0.68826100  0.16108100  0.15278000  1
  O  1127  1  0.67467500  0.88276700  0.88900300  1
  O  1138  1  0.65781200  0.66032800  0.88088100  1
  O  1149  1  0.40541800  0.38073100  0.88892100  1
  O  1160  1  0.39510200  0.66470200  0.17923300  1
  O  1171  1  0.66481900  0.39420000  0.17855000  1
  O  1182  1  0.88406900  0.67293600  0.66137200  1
  O  1193  1  0.87315800  0.39178100  0.38751100  1
  O  1204  1  0.18269000  0.40680200  0.66374600  1
  O  1215  1  0.18492000  0.66629300  0.40002200  1
  O  1226  1  0.66330500  0.88020000  0.66050400  1
  O  1237  1  0.37844100  0.86699500  0.39303300  1
  O  1248  1  0.67442400  0.16212400  0.39692400  1
  O  1259  1  0.38569100  0.18356100  0.64644800  1
  O  1270  1  0.66854900  0.65984800  0.18681500  1
  O  1281  1  0.38725700  0.39088200  0.17704300  1
  O  1292  1  0.66481000  0.39791500  0.86809400  1
  O  1303  1  0.38319600  0.66028400  0.87914500  1
  O  1314  1  0.65066100  0.88769400  0.38900500  1
  O  1325  1  0.38648600  0.87260000  0.66232200  1
  O  1336  1  0.39582400  0.17179100  0.40351000  1
  O  1347  1  0.66006800  0.17672300  0.67525900  1
  O  1358  1  0.86398000  0.65957000  0.39883400  1
  O  1369  1  0.87746100  0.38481800  0.65453500  1
  O  1380  1  0.17666400  0.66689400  0.67219100  1
  O  1391  1  0.16375700  0.38561100  0.38683900  1
  O  1402  1  0.19673500  0.04915500  0.40028000  1
  O  1413  1  0.87734900  0.01123700  0.40739500  1
  O  1424  1  0.85363700  0.05826900  0.65438300  1
  O  1435  1  0.19277900  0.98447300  0.63720500  1
  O  1446  1  0.40847000  0.17827500  0.05561300  1
  O  1457  1  0.40817000  0.85860100  0.99852500  1
  O  1468  1  0.65732700  0.86110500  0.05159000  1
  O  1479  1  0.64415700  0.19616200  0.00004900  1
  O  1490  1  0.05500600  0.41002100  0.20379500  1
  O  1501  1  0.99878000  0.41257100  0.86808700  1
  O  1512  1  0.05469800  0.65225400  0.85664900  1
  O  1523  1  0.00745700  0.64361000  0.20114300  1
  O  1534  1  0.05024600  0.18971600  0.65329700  1
  O  1545  1  0.00083000  0.84795000  0.65105800  1
  O  1556  1  0.05085200  0.85970800  0.42073300  1
  O  1567  1  0.99340800  0.18983000  0.40803800  1
  O  1578  1  0.19265500  0.39831900  0.00621100  1
  O  1589  1  0.85162500  0.40612300  0.06395800  1
  O  1600  1  0.85718200  0.65089700  0.00305000  1
  O  1611  1  0.19069900  0.64920300  0.05583000  1
  O  1622  1  0.40361600  0.05834800  0.85278000  1
  O  1633  1  0.40619200  0.00538300  0.19478100  1
  O  1644  1  0.64413900  0.04412600  0.18065000  1
  O  1655  1  0.64175500  0.99094700  0.86087100  1
  O  1666  1  0.69481000  0.54328100  0.90746600  1
  O  1677  1  0.35888300  0.50369400  0.90435000  1
  O  1688  1  0.35864300  0.55585700  0.14885100  1
  O  1699  1  0.68720200  0.49897600  0.14408200  1
  O  1710  1  0.91341300  0.69230300  0.55585900  1
  O  1721  1  0.91106200  0.36754700  0.50125900  1
  O  1732  1  0.15470400  0.35859700  0.54092600  1
  O  1743  1  0.15002700  0.69604200  0.50604900  1
  O  1754  1  0.54845300  0.90610900  0.69174300  1
  O  1765  1  0.49045500  0.90574100  0.36745900  1
  O  1776  1  0.56215200  0.14889300  0.35148800  1
  O  1787  1  0.51492000  0.15372000  0.68255900  1
  O  1798  1  0.55706200  0.69808200  0.15587600  1
  O  1809  1  0.49975600  0.35206100  0.15449900  1
  O  1820  1  0.54494700  0.37589400  0.91458800  1
  O  1831  1  0.49854200  0.69060800  0.90778300  1
  O  1842  1  0.70206800  0.90502700  0.50357900  1
  O  1853  1  0.36525300  0.90516300  0.55249400  1
  O  1864  1  0.36000000  0.13505100  0.50924600  1
  O  1875  1  0.68553100  0.14227800  0.55586300  1
  O  1886  1  0.90099000  0.54789300  0.36754700  1
  O  1897  1  0.89136300  0.50600700  0.70725500  1
  O  1908  1  0.14081800  0.55732400  0.69156400  1
  O  1919  1  0.14664900  0.49765200  0.36075400  1
