# generated using pymatgen
data_H24C40N7
_symmetry_space_group_name_H-M   'P 1'
_cell_length_a   25.19090000
_cell_length_b   25.19080000
_cell_length_c   58.05210000
_cell_angle_alpha   89.83540000
_cell_angle_beta   90.10430000
_cell_angle_gamma   90.00000000
_symmetry_Int_Tables_number   1
_chemical_formula_structural   H24C40N7
_chemical_formula_sum   'H288 C480 N84'
_cell_volume   36838.42608449
_cell_formula_units_Z   12
loop_
 _symmetry_equiv_pos_site_id
 _symmetry_equiv_pos_as_xyz
  1  'x, y, z'
loop_
 _atom_site_type_symbol
 _atom_site_label
 _atom_site_symmetry_multiplicity
 _atom_site_fract_x
 _atom_site_fract_y
 _atom_site_fract_z
 _atom_site_occupancy
  H  10  1  0.97102900  0.13229700  0.88327800  1
  H  11  1  0.99572800  0.93521600  0.92807400  1
  H  12  1  0.02679400  0.95079300  0.82860900  1
  H  22  1  0.13227100  0.02203900  0.38253200  1
  H  23  1  0.93686900  0.00021400  0.42856100  1
  H  24  1  0.94812100  0.96452500  0.32949000  1
  H  34  1  0.97084800  0.85923400  0.26575000  1
  H  35  1  0.99203400  0.05484800  0.21946000  1
  H  36  1  0.02771100  0.04337100  0.31861800  1
  H  46  1  0.13195500  0.98369500  0.76416200  1
  H  47  1  0.93390100  0.00443500  0.71993300  1
  H  48  1  0.95054800  0.03397800  0.81930800  1
  H  121  1  0.03406600  0.78036300  0.90809200  1
  H  122  1  0.03321300  0.71316700  0.93737500  1
  H  123  1  0.93222900  0.87480400  0.94839700  1
  H  124  1  0.93253700  0.80897600  0.97791700  1
  H  125  1  0.89989400  0.71697500  0.98522400  1
  H  126  1  0.89982300  0.65192100  0.01525800  1
  H  127  1  0.06585200  0.69894300  0.97812900  1
  H  128  1  0.06539800  0.63327000  0.00797500  1
  H  129  1  0.98208800  0.54917700  0.98729400  1
  H  130  1  0.98231300  0.44880200  0.98686900  1
  H  131  1  0.98123600  0.49693800  0.05397500  1
  H  132  1  0.98095100  0.49533000  0.09416700  1
  H  133  1  0.98225300  0.69955200  0.05316200  1
  H  134  1  0.98159500  0.69794200  0.09694000  1
  H  135  1  0.90117000  0.62903000  0.14280300  1
  H  136  1  0.90360100  0.69521800  0.17231900  1
  H  137  1  0.06591200  0.64781800  0.13234300  1
  H  138  1  0.06857700  0.71378700  0.16187200  1
  H  139  1  0.98331700  0.54336000  0.16128300  1
  H  140  1  0.98282800  0.44300100  0.16083300  1
  H  141  1  0.98123500  0.29429100  0.05120200  1
  H  142  1  0.98200100  0.29267600  0.09497100  1
  H  143  1  0.06535700  0.35857600  0.14013300  1
  H  144  1  0.06579900  0.29235900  0.16975800  1
  H  145  1  0.89967600  0.34047100  0.13269100  1
  H  146  1  0.89974400  0.27485700  0.16249900  1
  H  147  1  0.93249400  0.18257500  0.16940600  1
  H  148  1  0.93195800  0.11635300  0.19874600  1
  H  149  1  0.03366000  0.21017700  0.23957100  1
  H  150  1  0.03297800  0.27777900  0.21047500  1
  H  151  1  0.90049100  0.36229600  0.00568500  1
  H  152  1  0.90273000  0.29543400  0.97645300  1
  H  153  1  0.03035300  0.18424300  0.98247800  1
  H  154  1  0.03108400  0.11366400  0.95514300  1
  H  155  1  0.94285500  0.20771300  0.90858200  1
  H  156  1  0.94242600  0.27895500  0.93586200  1
  H  157  1  0.06812600  0.27844500  0.98645700  1
  H  158  1  0.06564500  0.34506100  0.01571400  1
  H  159  1  0.03026000  0.80753000  0.16635600  1
  H  160  1  0.03071700  0.87777200  0.19383800  1
  H  161  1  0.94394100  0.71144200  0.21286100  1
  H  162  1  0.94412300  0.78239700  0.24031600  1
  H  239  1  0.78155900  0.95870700  0.40864300  1
  H  240  1  0.71448200  0.95938800  0.43783100  1
  H  241  1  0.87570200  0.06116100  0.44895400  1
  H  242  1  0.81003500  0.06060900  0.47839100  1
  H  243  1  0.71792200  0.09287500  0.48549200  1
  H  244  1  0.65298900  0.09275300  0.51544300  1
  H  245  1  0.70070700  0.92677900  0.47859400  1
  H  246  1  0.63510800  0.92704200  0.50834000  1
  H  247  1  0.55074700  0.01076600  0.48736800  1
  H  248  1  0.45037500  0.01043200  0.48673400  1
  H  249  1  0.49855500  0.01102800  0.55394300  1
  H  250  1  0.49717100  0.00920900  0.59412800  1
  H  251  1  0.70121800  0.00880000  0.55346900  1
  H  252  1  0.69976700  0.00897800  0.59727100  1
  H  253  1  0.63567100  0.09146700  0.64124900  1
  H  254  1  0.70077500  0.08839400  0.67130500  1
  H  255  1  0.64448000  0.92492500  0.63452600  1
  H  256  1  0.70875000  0.92149300  0.66479400  1
  H  257  1  0.54538300  0.01106300  0.66132300  1
  H  258  1  0.44499900  0.01139700  0.66069900  1
  H  259  1  0.29596500  0.00967900  0.55082500  1
  H  260  1  0.29452100  0.00849600  0.59457200  1
  H  261  1  0.36349000  0.92697800  0.64099800  1
  H  262  1  0.29623500  0.92598400  0.67006700  1
  H  263  1  0.33899100  0.09120900  0.63103800  1
  H  264  1  0.27189800  0.09046900  0.66015000  1
  H  265  1  0.17948900  0.04971100  0.66500600  1
  H  266  1  0.10983800  0.04714200  0.69280900  1
  H  267  1  0.20834600  0.96080900  0.73825100  1
  H  268  1  0.27863600  0.96373600  0.71052900  1
  H  269  1  0.36394500  0.09172400  0.50528600  1
  H  270  1  0.29713100  0.08954500  0.47590000  1
  H  271  1  0.18572700  0.96206700  0.48182100  1
  H  272  1  0.11495900  0.96159800  0.45444400  1
  H  273  1  0.20882600  0.04974200  0.40795100  1
  H  274  1  0.28028800  0.04995000  0.43529500  1
  H  275  1  0.27983400  0.92422200  0.48600300  1
  H  276  1  0.34643400  0.92663300  0.51540100  1
  H  277  1  0.80244400  0.94887100  0.67139000  1
  H  278  1  0.86908000  0.94518700  0.70045300  1
  H  279  1  0.71393100  0.05558400  0.71217100  1
  H  280  1  0.78213500  0.05311100  0.74098300  1
  H  294  1  0.73284800  0.89411500  0.79714800  1
  H  295  1  0.75754700  0.69703400  0.84194400  1
  H  296  1  0.78861300  0.71261100  0.74247900  1
  H  306  1  0.89409000  0.78385700  0.29640200  1
  H  307  1  0.69868800  0.76203200  0.34243100  1
  H  308  1  0.70994000  0.72634300  0.24336000  1
  H  318  1  0.73266700  0.62105200  0.17962000  1
  H  319  1  0.75385300  0.81666600  0.13333000  1
  H  320  1  0.78953000  0.80518900  0.23248800  1
  H  330  1  0.89377400  0.74551300  0.67803200  1
  H  331  1  0.69572000  0.76625300  0.63380300  1
  H  332  1  0.71236700  0.79579600  0.73317800  1
  H  405  1  0.79588500  0.54218100  0.82196200  1
  H  406  1  0.79503200  0.47498500  0.85124500  1
  H  407  1  0.69404800  0.63662200  0.86226700  1
  H  408  1  0.69435600  0.57079400  0.89178700  1
  H  409  1  0.66171300  0.47879300  0.89909400  1
  H  410  1  0.66164200  0.41373900  0.92912850  1
  H  411  1  0.82767100  0.46076100  0.89199900  1
  H  412  1  0.82721700  0.39508800  0.92184550  1
  H  413  1  0.74390700  0.31099500  0.90116450  1
  H  414  1  0.74413200  0.21062000  0.90073950  1
  H  415  1  0.74305500  0.25875600  0.96784550  1
  H  416  1  0.74277000  0.25714800  0.00803700  1
  H  417  1  0.74407200  0.46137000  0.96703250  1
  H  418  1  0.74341400  0.45976000  0.01081000  1
  H  419  1  0.66298900  0.39084800  0.05667300  1
  H  420  1  0.66542000  0.45703600  0.08618900  1
  H  421  1  0.82773100  0.40963600  0.04621300  1
  H  422  1  0.83039600  0.47560500  0.07574200  1
  H  423  1  0.74513600  0.30517800  0.07515300  1
  H  424  1  0.74464700  0.20481900  0.07470300  1
  H  425  1  0.74305400  0.05610900  0.96507250  1
  H  426  1  0.74382000  0.05449400  0.00884100  1
  H  427  1  0.82717600  0.12039400  0.05400300  1
  H  428  1  0.82761800  0.05417700  0.08362800  1
  H  429  1  0.66149500  0.10228900  0.04656100  1
  H  430  1  0.66156300  0.03667500  0.07636900  1
  H  431  1  0.69431300  0.94439280  0.08327600  1
  H  432  1  0.69377700  0.87817100  0.11261600  1
  H  433  1  0.79547900  0.97199480  0.15344100  1
  H  434  1  0.79479700  0.03959700  0.12434500  1
  H  435  1  0.66231000  0.12411400  0.91955550  1
  H  436  1  0.66454900  0.05725200  0.89032300  1
  H  437  1  0.79217200  0.94606080  0.89634800  1
  H  438  1  0.79290300  0.87548200  0.86901300  1
  H  439  1  0.70467400  0.96953080  0.82245200  1
  H  440  1  0.70424500  0.04077300  0.84973200  1
  H  441  1  0.82994500  0.04026300  0.90032750  1
  H  442  1  0.82746400  0.10687900  0.92958450  1
  H  443  1  0.79207900  0.56934800  0.08022600  1
  H  444  1  0.79253600  0.63959000  0.10770800  1
  H  445  1  0.70576000  0.47326000  0.12673100  1
  H  446  1  0.70594200  0.54421500  0.15418600  1
  H  523  1  0.54337800  0.72052500  0.32251300  1
  H  524  1  0.47630100  0.72120600  0.35170100  1
  H  525  1  0.63752100  0.82297900  0.36282400  1
  H  526  1  0.57185400  0.82242700  0.39226100  1
  H  527  1  0.47974100  0.85469300  0.39936200  1
  H  528  1  0.41480800  0.85457100  0.42931300  1
  H  529  1  0.46252600  0.68859700  0.39246400  1
  H  530  1  0.39692700  0.68886000  0.42221000  1
  H  531  1  0.31256600  0.77258400  0.40123800  1
  H  532  1  0.21219400  0.77225000  0.40060400  1
  H  533  1  0.26037400  0.77284600  0.46781300  1
  H  534  1  0.25899000  0.77102700  0.50799800  1
  H  535  1  0.46303700  0.77061800  0.46733900  1
  H  536  1  0.46158600  0.77079600  0.51114100  1
  H  537  1  0.39749000  0.85328500  0.55511900  1
  H  538  1  0.46259400  0.85021200  0.58517500  1
  H  539  1  0.40629900  0.68674300  0.54839600  1
  H  540  1  0.47056900  0.68331100  0.57866400  1
  H  541  1  0.30720200  0.77288100  0.57519300  1
  H  542  1  0.20681800  0.77321500  0.57456900  1
  H  543  1  0.05778400  0.77149700  0.46469500  1
  H  544  1  0.05634000  0.77031400  0.50844200  1
  H  545  1  0.12530900  0.68879600  0.55486800  1
  H  546  1  0.05805400  0.68780200  0.58393700  1
  H  547  1  0.10081000  0.85302700  0.54490800  1
  H  548  1  0.03371700  0.85228700  0.57402000  1
  H  549  1  0.94130780  0.81152900  0.57887600  1
  H  550  1  0.87165700  0.80896000  0.60667900  1
  H  551  1  0.97016480  0.72262700  0.65212100  1
  H  552  1  0.04045500  0.72555400  0.62439900  1
  H  553  1  0.12576400  0.85354200  0.41915600  1
  H  554  1  0.05895000  0.85136300  0.38977000  1
  H  555  1  0.94754580  0.72388500  0.39569100  1
  H  556  1  0.87677800  0.72341600  0.36831400  1
  H  557  1  0.97064480  0.81156000  0.32182100  1
  H  558  1  0.04210700  0.81176800  0.34916500  1
  H  559  1  0.04165300  0.68604000  0.39987300  1
  H  560  1  0.10825300  0.68845100  0.42927100  1
  H  561  1  0.56426300  0.71068900  0.58526000  1
  H  562  1  0.63089900  0.70700500  0.61432300  1
  H  563  1  0.47575000  0.81740200  0.62604100  1
  H  564  1  0.54395400  0.81492900  0.65485300  1
  H  578  1  0.49466700  0.65593300  0.71101900  1
  H  579  1  0.51936600  0.45885200  0.75581500  1
  H  580  1  0.55043200  0.47442900  0.65635000  1
  H  590  1  0.65590900  0.54567500  0.21027300  1
  H  591  1  0.46050700  0.52385000  0.25630200  1
  H  592  1  0.47175900  0.48816100  0.15723100  1
  H  602  1  0.49448600  0.38287000  0.09349100  1
  H  603  1  0.51567200  0.57848400  0.04720100  1
  H  604  1  0.55134900  0.56700700  0.14635900  1
  H  614  1  0.65559300  0.50733100  0.59190300  1
  H  615  1  0.45753900  0.52807100  0.54767400  1
  H  616  1  0.47418600  0.55761400  0.64704900  1
  H  689  1  0.55770400  0.30399900  0.73583300  1
  H  690  1  0.55685100  0.23680300  0.76511600  1
  H  691  1  0.45586700  0.39844000  0.77613800  1
  H  692  1  0.45617500  0.33261200  0.80565800  1
  H  693  1  0.42353200  0.24061100  0.81296500  1
  H  694  1  0.42346100  0.17555700  0.84299900  1
  H  695  1  0.58949000  0.22257900  0.80587000  1
  H  696  1  0.58903600  0.15690600  0.83571600  1
  H  697  1  0.50572600  0.07281300  0.81503500  1
  H  698  1  0.50595100  0.97243760  0.81461000  1
  H  699  1  0.50487400  0.02057400  0.88171600  1
  H  700  1  0.50458900  0.01896600  0.92190790  1
  H  701  1  0.50589100  0.22318800  0.88090300  1
  H  702  1  0.50523300  0.22157800  0.92468090  1
  H  703  1  0.42480800  0.15266600  0.97054390  1
  H  704  1  0.42723900  0.21885400  0.00006000  1
  H  705  1  0.58955000  0.17145400  0.96008390  1
  H  706  1  0.59221500  0.23742300  0.98961290  1
  H  707  1  0.50695500  0.06699600  0.98902390  1
  H  708  1  0.50646600  0.96663660  0.98857390  1
  H  709  1  0.50487300  0.81792700  0.87894300  1
  H  710  1  0.50563900  0.81631200  0.92271190  1
  H  711  1  0.58899500  0.88221200  0.96787390  1
  H  712  1  0.58943700  0.81599500  0.99749894  1
  H  713  1  0.42331400  0.86410700  0.96043190  1
  H  714  1  0.42338200  0.79849300  0.99023994  1
  H  715  1  0.45613200  0.70621100  0.99714694  1
  H  716  1  0.45559600  0.63998900  0.02648700  1
  H  717  1  0.55729800  0.73381300  0.06731200  1
  H  718  1  0.55661600  0.80141500  0.03821600  1
  H  719  1  0.42412900  0.88593200  0.83342600  1
  H  720  1  0.42636800  0.81907000  0.80419400  1
  H  721  1  0.55399100  0.70787900  0.81021900  1
  H  722  1  0.55472200  0.63730000  0.78288400  1
  H  723  1  0.46649300  0.73134900  0.73632300  1
  H  724  1  0.46606400  0.80259100  0.76360300  1
  H  725  1  0.59176400  0.80208100  0.81419800  1
  H  726  1  0.58928300  0.86869700  0.84345500  1
  H  727  1  0.55389800  0.33116600  0.99409694  1
  H  728  1  0.55435500  0.40140800  0.02157900  1
  H  729  1  0.46757900  0.23507800  0.04060200  1
  H  730  1  0.46776100  0.30603300  0.06805700  1
  H  807  1  0.30519700  0.48234300  0.23638400  1
  H  808  1  0.23812000  0.48302400  0.26557200  1
  H  809  1  0.39934000  0.58479700  0.27669500  1
  H  810  1  0.33367300  0.58424500  0.30613200  1
  H  811  1  0.24156000  0.61651100  0.31323300  1
  H  812  1  0.17662700  0.61638900  0.34318400  1
  H  813  1  0.22434500  0.45041500  0.30633500  1
  H  814  1  0.15874600  0.45067800  0.33608100  1
  H  815  1  0.07438500  0.53440200  0.31510900  1
  H  816  1  0.97401250  0.53406800  0.31447500  1
  H  817  1  0.02219300  0.53466400  0.38168400  1
  H  818  1  0.02080900  0.53284500  0.42186900  1
  H  819  1  0.22485600  0.53243600  0.38121000  1
  H  820  1  0.22340500  0.53261400  0.42501200  1
  H  821  1  0.15930900  0.61510300  0.46899000  1
  H  822  1  0.22441300  0.61203000  0.49904600  1
  H  823  1  0.16811800  0.44856100  0.46226700  1
  H  824  1  0.23238800  0.44512900  0.49253500  1
  H  825  1  0.06902100  0.53469900  0.48906400  1
  H  826  1  0.96863650  0.53503300  0.48844000  1
  H  827  1  0.81960300  0.53331500  0.37856600  1
  H  828  1  0.81815900  0.53213200  0.42231300  1
  H  829  1  0.88712800  0.45061400  0.46873900  1
  H  830  1  0.81987300  0.44962000  0.49780800  1
  H  831  1  0.86262900  0.61484500  0.45877900  1
  H  832  1  0.79553600  0.61410500  0.48789100  1
  H  833  1  0.70312700  0.57334700  0.49274700  1
  H  834  1  0.63347600  0.57077800  0.52055000  1
  H  835  1  0.73198400  0.48444500  0.56599200  1
  H  836  1  0.80227400  0.48737200  0.53827000  1
  H  837  1  0.88758300  0.61536000  0.33302700  1
  H  838  1  0.82076900  0.61318100  0.30364100  1
  H  839  1  0.70936500  0.48570300  0.30956200  1
  H  840  1  0.63859700  0.48523400  0.28218500  1
  H  841  1  0.73246400  0.57337800  0.23569200  1
  H  842  1  0.80392600  0.57358600  0.26303600  1
  H  843  1  0.80347200  0.44785800  0.31374400  1
  H  844  1  0.87007200  0.45026900  0.34314200  1
  H  845  1  0.32608200  0.47250700  0.49913100  1
  H  846  1  0.39271800  0.46882300  0.52819400  1
  H  847  1  0.23756900  0.57922000  0.53991200  1
  H  848  1  0.30577300  0.57674700  0.56872400  1
  C  1  1  0.99011700  0.95927000  0.89462500  1
  C  3  1  0.98351100  0.05154200  0.88616000  1
  C  5  1  0.99275600  0.98926600  0.85577600  1
  C  7  1  0.00089200  0.97916600  0.83255900  1
  C  8  1  0.99150300  0.92177900  0.91201700  1
  C  9  1  0.97950200  0.10293700  0.89413600  1
  C  13  1  0.95962800  0.00399800  0.39493800  1
  C  15  1  0.05151700  0.00984600  0.38579300  1
  C  17  1  0.98767700  0.00032200  0.35592100  1
  C  19  1  0.97599200  0.99139900  0.33290500  1
  C  20  1  0.92284000  0.00312700  0.41252100  1
  C  21  1  0.10326700  0.01355800  0.39350800  1
  C  25  1  0.98843200  0.03197400  0.25311600  1
  C  27  1  0.98279600  0.94005900  0.26242000  1
  C  29  1  0.99185800  0.00391600  0.29219900  1
  C  31  1  0.00064300  0.01568500  0.31520400  1
  C  32  1  0.98927400  0.06881100  0.23548000  1
  C  33  1  0.97928900  0.88831900  0.25476700  1
  C  37  1  0.95847700  0.99996600  0.75333400  1
  C  39  1  0.05084400  0.99445000  0.76171400  1
  C  41  1  0.98822500  0.99959800  0.79217500  1
  C  43  1  0.97722600  0.00633200  0.81535400  1
  C  44  1  0.92074200  0.00199700  0.73610600  1
  C  45  1  0.10226400  0.99239400  0.75352500  1
  C  49  1  0.98186700  0.52595300  0.00174900  1
  C  50  1  0.98193600  0.47118100  0.00151700  1
  C  51  1  0.98146100  0.45309500  0.02430300  1
  C  53  1  0.98187200  0.54270400  0.02468200  1
  C  54  1  0.98215300  0.59665200  0.03192200  1
  C  55  1  0.98187000  0.61336500  0.05527000  1
  C  57  1  0.98180800  0.61190700  0.09389500  1
  C  58  1  0.98172800  0.66493000  0.08676100  1
  C  59  1  0.98202600  0.66582800  0.06297700  1
  C  60  1  0.98189800  0.59349700  0.11705700  1
  C  61  1  0.98185300  0.53915000  0.12384700  1
  C  63  1  0.98205700  0.44954100  0.12344700  1
  C  64  1  0.98245100  0.46624800  0.14638600  1
  C  65  1  0.98264300  0.52102000  0.14662700  1
  C  66  1  0.98209000  0.39560500  0.11620000  1
  C  67  1  0.98163800  0.37887600  0.09286100  1
  C  69  1  0.98148200  0.38033800  0.05425700  1
  C  70  1  0.98136900  0.32730700  0.06138200  1
  C  71  1  0.98172600  0.32640800  0.08515900  1
  C  72  1  0.98153300  0.39876400  0.03110400  1
  C  73  1  0.98283100  0.35972000  0.01339700  1
  C  74  1  0.03117300  0.33498500  0.00745300  1
  C  75  1  0.03245400  0.29566800  0.99031400  1
  C  76  1  0.98568400  0.28040000  0.97848600  1
  C  77  1  0.93754200  0.30608500  0.98428200  1
  C  78  1  0.93601900  0.34503900  0.00160600  1
  C  79  1  0.98682700  0.23893900  0.96180400  1
  C  80  1  0.96140800  0.24439400  0.94013600  1
  C  81  1  0.96210400  0.20279600  0.92395500  1
  C  82  1  0.98795700  0.15446200  0.92916000  1
  C  83  1  0.01282900  0.14861400  0.95079100  1
  C  84  1  0.01266600  0.19034900  0.96680900  1
  C  85  1  0.98253300  0.35542700  0.13358000  1
  C  86  1  0.03030800  0.34095900  0.14471300  1
  C  87  1  0.03033800  0.30235300  0.16230600  1
  C  88  1  0.98280300  0.27682600  0.16920300  1
  C  89  1  0.93515500  0.29156900  0.15783600  1
  C  90  1  0.93490100  0.33039300  0.14035300  1
  C  91  1  0.98291600  0.23704700  0.18686800  1
  C  92  1  0.01202600  0.24364700  0.20759000  1
  C  93  1  0.01207000  0.20417300  0.22486400  1
  C  94  1  0.98372600  0.15642500  0.22181500  1
  C  95  1  0.95377700  0.15005100  0.20135600  1
  C  96  1  0.95361700  0.18949600  0.18416600  1
  C  97  1  0.98326200  0.63250400  0.13480100  1
  C  98  1  0.93664800  0.64653600  0.14682000  1
  C  99  1  0.93829500  0.68507100  0.16432300  1
  C  100  1  0.98636700  0.71100300  0.17010200  1
  C  101  1  0.03294000  0.69640300  0.15803900  1
  C  102  1  0.03154600  0.65748300  0.14072300  1
  C  103  1  0.98756700  0.75215700  0.18694600  1
  C  104  1  0.01289500  0.80104300  0.18203700  1
  C  105  1  0.01292700  0.84257800  0.19815300  1
  C  106  1  0.98837900  0.83628700  0.21979300  1
  C  107  1  0.96312900  0.78762600  0.22493500  1
  C  108  1  0.96257200  0.74621500  0.20865100  1
  C  109  1  0.98264300  0.63679600  0.01451200  1
  C  110  1  0.93504600  0.66182400  0.00760800  1
  C  111  1  0.03037400  0.65093800  0.00333700  1
  C  112  1  0.03040600  0.68921100  0.98560200  1
  C  113  1  0.98290800  0.71473600  0.97856900  1
  C  114  1  0.93530400  0.70032200  0.98998300  1
  C  115  1  0.98302900  0.75420800  0.96075000  1
  C  116  1  0.95370400  0.80180200  0.96322700  1
  C  117  1  0.95396500  0.84100700  0.94592700  1
  C  118  1  0.98404200  0.83437000  0.92556700  1
  C  119  1  0.01237000  0.78655800  0.92272100  1
  C  120  1  0.01224400  0.74733500  0.94011400  1
  C  167  1  0.52752100  0.01088900  0.50177500  1
  C  168  1  0.47275000  0.01080000  0.50142800  1
  C  169  1  0.45466000  0.01101800  0.52417600  1
  C  171  1  0.54427100  0.01070900  0.52474500  1
  C  172  1  0.59821400  0.01024300  0.53210000  1
  C  173  1  0.61504700  0.01019600  0.55546400  1
  C  175  1  0.61375300  0.00998000  0.59407400  1
  C  176  1  0.66674600  0.00942300  0.58702900  1
  C  177  1  0.66754100  0.00939800  0.56324500  1
  C  178  1  0.59539900  0.01007300  0.61719700  1
  C  179  1  0.54106600  0.01043700  0.62388200  1
  C  181  1  0.45146000  0.01014300  0.62332700  1
  C  182  1  0.46822100  0.01093600  0.64629100  1
  C  183  1  0.52299200  0.01080700  0.64663200  1
  C  184  1  0.39751700  0.00972000  0.61597900  1
  C  185  1  0.38072200  0.00993800  0.59260500  1
  C  187  1  0.38201700  0.01036800  0.55399400  1
  C  188  1  0.32901900  0.00986500  0.56104500  1
  C  189  1  0.32822600  0.00926300  0.58482000  1
  C  190  1  0.40033100  0.01068800  0.53086200  1
  C  191  1  0.36124300  0.00941200  0.51307200  1
  C  192  1  0.33643100  0.96111400  0.50709300  1
  C  193  1  0.29711400  0.95987000  0.48986700  1
  C  194  1  0.28191600  0.00663200  0.47796100  1
  C  195  1  0.30766800  0.05473800  0.48379700  1
  C  196  1  0.34663200  0.05621500  0.50120000  1
  C  197  1  0.24038600  0.00554800  0.46120700  1
  C  198  1  0.24572200  0.03101000  0.43953800  1
  C  199  1  0.20402000  0.03041500  0.42331100  1
  C  200  1  0.15564700  0.00469700  0.42848600  1
  C  201  1  0.14993000  0.97975400  0.45010800  1
  C  202  1  0.19176200  0.97981600  0.46616400  1
  C  203  1  0.35735200  0.00914500  0.63328200  1
  C  204  1  0.34444800  0.96163800  0.64498200  1
  C  205  1  0.30520900  0.96127000  0.66221900  1
  C  206  1  0.27739800  0.00816400  0.66809300  1
  C  207  1  0.29059100  0.05558900  0.65623800  1
  C  208  1  0.33020500  0.05621400  0.63917700  1
  C  209  1  0.23633900  0.00742100  0.68504000  1
  C  210  1  0.24331300  0.98161500  0.70656000  1
  C  211  1  0.20225600  0.98035600  0.72302100  1
  C  212  1  0.15288100  0.00465200  0.71829800  1
  C  213  1  0.14553800  0.02999000  0.69683600  1
  C  214  1  0.18671900  0.03172500  0.68052600  1
  C  215  1  0.63439000  0.00853800  0.63501700  1
  C  216  1  0.65098400  0.05550900  0.64611900  1
  C  217  1  0.68890100  0.05348600  0.66395700  1
  C  218  1  0.71144900  0.00462300  0.67114700  1
  C  219  1  0.69424700  0.95776300  0.65991900  1
  C  220  1  0.65619700  0.95957800  0.64216700  1
  C  221  1  0.75122200  0.00263200  0.68876600  1
  C  222  1  0.79693500  0.97056400  0.68606600  1
  C  223  1  0.83665800  0.96882900  0.70308700  1
  C  224  1  0.83246500  0.99964400  0.72334300  1
  C  225  1  0.78648300  0.03073800  0.72642500  1
  C  226  1  0.74669000  0.03254300  0.70932000  1
  C  227  1  0.63829400  0.00984600  0.51476700  1
  C  228  1  0.66304800  0.05754800  0.50785100  1
  C  229  1  0.65260300  0.96212500  0.50368200  1
  C  230  1  0.69081300  0.96220800  0.48600700  1
  C  231  1  0.71605700  0.00980900  0.47895600  1
  C  232  1  0.70147100  0.05740600  0.49028100  1
  C  233  1  0.75544000  0.00980800  0.46120000  1
  C  234  1  0.80290300  0.03935300  0.46371600  1
  C  235  1  0.84202600  0.03921700  0.44646800  1
  C  236  1  0.83542300  0.00902300  0.42613800  1
  C  237  1  0.78773500  0.98046800  0.42325900  1
  C  238  1  0.74857800  0.98050300  0.44059200  1
  C  285  1  0.75193600  0.72108800  0.80849500  1
  C  287  1  0.74533000  0.81336000  0.80003000  1
  C  289  1  0.75457500  0.75108400  0.76964600  1
  C  291  1  0.76271100  0.74098400  0.74642900  1
  C  292  1  0.75332200  0.68359700  0.82588700  1
  C  293  1  0.74132100  0.86475500  0.80800600  1
  C  297  1  0.72144700  0.76581600  0.30880800  1
  C  299  1  0.81333600  0.77166400  0.29966300  1
  C  301  1  0.74949600  0.76214000  0.26979100  1
  C  303  1  0.73781100  0.75321700  0.24677500  1
  C  304  1  0.68465900  0.76494500  0.32639100  1
  C  305  1  0.86508600  0.77537600  0.30737800  1
  C  309  1  0.75025100  0.79379200  0.16698600  1
  C  311  1  0.74461500  0.70187700  0.17629000  1
  C  313  1  0.75367700  0.76573400  0.20606900  1
  C  315  1  0.76246200  0.77750300  0.22907400  1
  C  316  1  0.75109300  0.83062900  0.14935000  1
  C  317  1  0.74110800  0.65013700  0.16863700  1
  C  321  1  0.72029600  0.76178400  0.66720400  1
  C  323  1  0.81266300  0.75626800  0.67558400  1
  C  325  1  0.75004400  0.76141600  0.70604500  1
  C  327  1  0.73904500  0.76815000  0.72922400  1
  C  328  1  0.68256100  0.76381500  0.64997600  1
  C  329  1  0.86408300  0.75421200  0.66739500  1
  C  333  1  0.74368600  0.28777100  0.91561950  1
  C  334  1  0.74375500  0.23299900  0.91538750  1
  C  335  1  0.74328000  0.21491300  0.93817350  1
  C  337  1  0.74369100  0.30452200  0.93855250  1
  C  338  1  0.74397200  0.35847000  0.94579250  1
  C  339  1  0.74368900  0.37518300  0.96914050  1
  C  341  1  0.74362700  0.37372500  0.00776500  1
  C  342  1  0.74354700  0.42674800  0.00063100  1
  C  343  1  0.74384500  0.42764600  0.97684750  1
  C  344  1  0.74371700  0.35531500  0.03092700  1
  C  345  1  0.74367200  0.30096800  0.03771700  1
  C  347  1  0.74387600  0.21135900  0.03731700  1
  C  348  1  0.74427000  0.22806600  0.06025600  1
  C  349  1  0.74446200  0.28283800  0.06049700  1
  C  350  1  0.74390900  0.15742300  0.03007000  1
  C  351  1  0.74345700  0.14069400  0.00673100  1
  C  353  1  0.74330100  0.14215600  0.96812750  1
  C  354  1  0.74318800  0.08912500  0.97525250  1
  C  355  1  0.74354500  0.08822600  0.99902947  1
  C  356  1  0.74335200  0.16058200  0.94497450  1
  C  357  1  0.74465000  0.12153800  0.92726750  1
  C  358  1  0.79299200  0.09680300  0.92132350  1
  C  359  1  0.79427300  0.05748600  0.90418450  1
  C  360  1  0.74750300  0.04221800  0.89235600  1
  C  361  1  0.69936100  0.06790300  0.89815200  1
  C  362  1  0.69783800  0.10685700  0.91547650  1
  C  363  1  0.74864600  0.00075700  0.87567400  1
  C  364  1  0.72322700  0.00621200  0.85400600  1
  C  365  1  0.72392300  0.96461380  0.83782500  1
  C  366  1  0.74977600  0.91627980  0.84303000  1
  C  367  1  0.77464800  0.91043180  0.86466100  1
  C  368  1  0.77448500  0.95216680  0.88067900  1
  C  369  1  0.74435200  0.11724500  0.04745000  1
  C  370  1  0.79212700  0.10277700  0.05858300  1
  C  371  1  0.79215700  0.06417100  0.07617600  1
  C  372  1  0.74462200  0.03864400  0.08307300  1
  C  373  1  0.69697400  0.05338700  0.07170600  1
  C  374  1  0.69672000  0.09221100  0.05422300  1
  C  375  1  0.74473500  0.99886481  0.10073800  1
  C  376  1  0.77384500  0.00546500  0.12146000  1
  C  377  1  0.77388900  0.96599080  0.13873400  1
  C  378  1  0.74554500  0.91824280  0.13568500  1
  C  379  1  0.71559600  0.91186880  0.11522600  1
  C  380  1  0.71543600  0.95131380  0.09803600  1
  C  381  1  0.74508100  0.39432200  0.04867100  1
  C  382  1  0.69846700  0.40835400  0.06069000  1
  C  383  1  0.70011400  0.44688900  0.07819300  1
  C  384  1  0.74818600  0.47282100  0.08397200  1
  C  385  1  0.79475900  0.45822100  0.07190900  1
  C  386  1  0.79336500  0.41930100  0.05459300  1
  C  387  1  0.74938600  0.51397500  0.10081600  1
  C  388  1  0.77471400  0.56286100  0.09590700  1
  C  389  1  0.77474600  0.60439600  0.11202300  1
  C  390  1  0.75019800  0.59810500  0.13366300  1
  C  391  1  0.72494800  0.54944400  0.13880500  1
  C  392  1  0.72439100  0.50803300  0.12252100  1
  C  393  1  0.74446200  0.39861400  0.92838250  1
  C  394  1  0.69686500  0.42364200  0.92147850  1
  C  395  1  0.79219300  0.41275600  0.91720750  1
  C  396  1  0.79222500  0.45102900  0.89947200  1
  C  397  1  0.74472700  0.47655400  0.89243900  1
  C  398  1  0.69712300  0.46214000  0.90385350  1
  C  399  1  0.74484800  0.51602600  0.87462000  1
  C  400  1  0.71552300  0.56362000  0.87709700  1
  C  401  1  0.71578400  0.60282500  0.85979700  1
  C  402  1  0.74586100  0.59618800  0.83943700  1
  C  403  1  0.77418900  0.54837600  0.83659100  1
  C  404  1  0.77406300  0.50915300  0.85398400  1
  C  451  1  0.28934000  0.77270700  0.41564500  1
  C  452  1  0.23456900  0.77261800  0.41529800  1
  C  453  1  0.21647900  0.77283600  0.43804600  1
  C  455  1  0.30609000  0.77252700  0.43861500  1
  C  456  1  0.36003300  0.77206100  0.44597000  1
  C  457  1  0.37686600  0.77201400  0.46933400  1
  C  459  1  0.37557200  0.77179800  0.50794400  1
  C  460  1  0.42856500  0.77124100  0.50089900  1
  C  461  1  0.42936000  0.77121600  0.47711500  1
  C  462  1  0.35721800  0.77189100  0.53106700  1
  C  463  1  0.30288500  0.77225500  0.53775200  1
  C  465  1  0.21327900  0.77196100  0.53719700  1
  C  466  1  0.23004000  0.77275400  0.56016100  1
  C  467  1  0.28481100  0.77262500  0.56050200  1
  C  468  1  0.15933600  0.77153800  0.52984900  1
  C  469  1  0.14254100  0.77175600  0.50647500  1
  C  471  1  0.14383600  0.77218600  0.46786400  1
  C  472  1  0.09083800  0.77168300  0.47491500  1
  C  473  1  0.09004500  0.77108100  0.49869000  1
  C  474  1  0.16215000  0.77250600  0.44473200  1
  C  475  1  0.12306200  0.77123000  0.42694200  1
  C  476  1  0.09825000  0.72293200  0.42096300  1
  C  477  1  0.05893300  0.72168800  0.40373700  1
  C  478  1  0.04373500  0.76845000  0.39183100  1
  C  479  1  0.06948700  0.81655600  0.39766700  1
  C  480  1  0.10845100  0.81803300  0.41507000  1
  C  481  1  0.00220500  0.76736600  0.37507700  1
  C  482  1  0.00754100  0.79282800  0.35340800  1
  C  483  1  0.96583880  0.79223300  0.33718100  1
  C  484  1  0.91746580  0.76651500  0.34235600  1
  C  485  1  0.91174880  0.74157200  0.36397800  1
  C  486  1  0.95358080  0.74163400  0.38003400  1
  C  487  1  0.11917100  0.77096300  0.54715200  1
  C  488  1  0.10626700  0.72345600  0.55885200  1
  C  489  1  0.06702800  0.72308800  0.57608900  1
  C  490  1  0.03921700  0.76998200  0.58196300  1
  C  491  1  0.05241000  0.81740700  0.57010800  1
  C  492  1  0.09202400  0.81803200  0.55304700  1
  C  493  1  0.99815775  0.76923900  0.59891000  1
  C  494  1  0.00513200  0.74343300  0.62043000  1
  C  495  1  0.96407480  0.74217400  0.63689100  1
  C  496  1  0.91469980  0.76647000  0.63216800  1
  C  497  1  0.90735680  0.79180800  0.61070600  1
  C  498  1  0.94853780  0.79354300  0.59439600  1
  C  499  1  0.39620900  0.77035600  0.54888700  1
  C  500  1  0.41280300  0.81732700  0.55998900  1
  C  501  1  0.45072000  0.81530400  0.57782700  1
  C  502  1  0.47326800  0.76644100  0.58501700  1
  C  503  1  0.45606600  0.71958100  0.57378900  1
  C  504  1  0.41801600  0.72139600  0.55603700  1
  C  505  1  0.51304100  0.76445000  0.60263600  1
  C  506  1  0.55875400  0.73238200  0.59993600  1
  C  507  1  0.59847700  0.73064700  0.61695700  1
  C  508  1  0.59428400  0.76146200  0.63721300  1
  C  509  1  0.54830200  0.79255600  0.64029500  1
  C  510  1  0.50850900  0.79436100  0.62319000  1
  C  511  1  0.40011300  0.77166400  0.42863700  1
  C  512  1  0.42486700  0.81936600  0.42172100  1
  C  513  1  0.41442200  0.72394300  0.41755200  1
  C  514  1  0.45263200  0.72402600  0.39987700  1
  C  515  1  0.47787600  0.77162700  0.39282600  1
  C  516  1  0.46329000  0.81922400  0.40415100  1
  C  517  1  0.51725900  0.77162600  0.37507000  1
  C  518  1  0.56472200  0.80117100  0.37758600  1
  C  519  1  0.60384500  0.80103500  0.36033800  1
  C  520  1  0.59724200  0.77084100  0.34000800  1
  C  521  1  0.54955400  0.74228600  0.33712900  1
  C  522  1  0.51039700  0.74232100  0.35446200  1
  C  569  1  0.51375500  0.48290600  0.72236600  1
  C  571  1  0.50714900  0.57517800  0.71390100  1
  C  573  1  0.51639400  0.51290200  0.68351700  1
  C  575  1  0.52453000  0.50280200  0.66030000  1
  C  576  1  0.51514100  0.44541500  0.73975800  1
  C  577  1  0.50314000  0.62657300  0.72187700  1
  C  581  1  0.48326600  0.52763400  0.22267900  1
  C  583  1  0.57515500  0.53348200  0.21353400  1
  C  585  1  0.51131500  0.52395800  0.18366200  1
  C  587  1  0.49963000  0.51503500  0.16064600  1
  C  588  1  0.44647800  0.52676300  0.24026200  1
  C  589  1  0.62690500  0.53719400  0.22124900  1
  C  593  1  0.51207000  0.55561000  0.08085700  1
  C  595  1  0.50643400  0.46369500  0.09016100  1
  C  597  1  0.51549600  0.52755200  0.11994000  1
  C  599  1  0.52428100  0.53932100  0.14294500  1
  C  600  1  0.51291200  0.59244700  0.06322100  1
  C  601  1  0.50292700  0.41195500  0.08250800  1
  C  605  1  0.48211500  0.52360200  0.58107500  1
  C  607  1  0.57448200  0.51808600  0.58945500  1
  C  609  1  0.51186300  0.52323400  0.61991600  1
  C  611  1  0.50086400  0.52996800  0.64309500  1
  C  612  1  0.44438000  0.52563300  0.56384700  1
  C  613  1  0.62590200  0.51603000  0.58126600  1
  C  617  1  0.50550500  0.04958900  0.82949000  1
  C  618  1  0.50557400  0.99481661  0.82925800  1
  C  619  1  0.50509900  0.97673060  0.85204400  1
  C  621  1  0.50551000  0.06634000  0.85242300  1
  C  622  1  0.50579100  0.12028800  0.85966300  1
  C  623  1  0.50550800  0.13700100  0.88301100  1
  C  625  1  0.50544600  0.13554300  0.92163590  1
  C  626  1  0.50536600  0.18856600  0.91450190  1
  C  627  1  0.50566400  0.18946400  0.89071800  1
  C  628  1  0.50553600  0.11713300  0.94479790  1
  C  629  1  0.50549100  0.06278600  0.95158790  1
  C  631  1  0.50569500  0.97317660  0.95118790  1
  C  632  1  0.50608900  0.98988360  0.97412690  1
  C  633  1  0.50628100  0.04465600  0.97436790  1
  C  634  1  0.50572800  0.91924060  0.94394090  1
  C  635  1  0.50527600  0.90251160  0.92060190  1
  C  637  1  0.50512000  0.90397360  0.88199800  1
  C  638  1  0.50500700  0.85094300  0.88912300  1
  C  639  1  0.50536400  0.85004400  0.91289990  1
  C  640  1  0.50517100  0.92239960  0.85884500  1
  C  641  1  0.50646900  0.88335600  0.84113800  1
  C  642  1  0.55481100  0.85862100  0.83519400  1
  C  643  1  0.55609200  0.81930400  0.81805500  1
  C  644  1  0.50932200  0.80403600  0.80622700  1
  C  645  1  0.46118000  0.82972100  0.81202300  1
  C  646  1  0.45965700  0.86867500  0.82934700  1
  C  647  1  0.51046500  0.76257500  0.78954500  1
  C  648  1  0.48504600  0.76803000  0.76787700  1
  C  649  1  0.48574200  0.72643200  0.75169600  1
  C  650  1  0.51159500  0.67809800  0.75690100  1
  C  651  1  0.53646700  0.67225000  0.77853200  1
  C  652  1  0.53630400  0.71398500  0.79455000  1
  C  653  1  0.50617100  0.87906300  0.96132090  1
  C  654  1  0.55394600  0.86459500  0.97245390  1
  C  655  1  0.55397600  0.82598900  0.99004694  1
  C  656  1  0.50644100  0.80046200  0.99694394  1
  C  657  1  0.45879300  0.81520500  0.98557690  1
  C  658  1  0.45853900  0.85402900  0.96809390  1
  C  659  1  0.50655400  0.76068300  0.01460900  1
  C  660  1  0.53566400  0.76728300  0.03533100  1
  C  661  1  0.53570800  0.72780900  0.05260500  1
  C  662  1  0.50736400  0.68006100  0.04955600  1
  C  663  1  0.47741500  0.67368700  0.02909700  1
  C  664  1  0.47725500  0.71313200  0.01190700  1
  C  665  1  0.50690000  0.15614000  0.96254190  1
  C  666  1  0.46028600  0.17017200  0.97456090  1
  C  667  1  0.46193300  0.20870700  0.99206394  1
  C  668  1  0.51000500  0.23463900  0.99784294  1
  C  669  1  0.55657800  0.22003900  0.98577990  1
  C  670  1  0.55518400  0.18111900  0.96846390  1
  C  671  1  0.51120500  0.27579300  0.01468700  1
  C  672  1  0.53653300  0.32467900  0.00977800  1
  C  673  1  0.53656500  0.36621400  0.02589400  1
  C  674  1  0.51201700  0.35992300  0.04753400  1
  C  675  1  0.48676700  0.31126200  0.05267600  1
  C  676  1  0.48621000  0.26985100  0.03639200  1
  C  677  1  0.50628100  0.16043200  0.84225300  1
  C  678  1  0.45868400  0.18546000  0.83534900  1
  C  679  1  0.55401200  0.17457400  0.83107800  1
  C  680  1  0.55404400  0.21284700  0.81334300  1
  C  681  1  0.50654600  0.23837200  0.80631000  1
  C  682  1  0.45894200  0.22395800  0.81772400  1
  C  683  1  0.50666700  0.27784400  0.78849100  1
  C  684  1  0.47734200  0.32543800  0.79096800  1
  C  685  1  0.47760300  0.36464300  0.77366800  1
  C  686  1  0.50768000  0.35800600  0.75330800  1
  C  687  1  0.53600800  0.31019400  0.75046200  1
  C  688  1  0.53588200  0.27097100  0.76785500  1
  C  735  1  0.05115900  0.53452500  0.32951600  1
  C  736  1  0.99638750  0.53443600  0.32916900  1
  C  737  1  0.97829750  0.53465400  0.35191700  1
  C  739  1  0.06790900  0.53434500  0.35248600  1
  C  740  1  0.12185200  0.53387900  0.35984100  1
  C  741  1  0.13868500  0.53383200  0.38320500  1
  C  743  1  0.13739100  0.53361600  0.42181500  1
  C  744  1  0.19038400  0.53305900  0.41477000  1
  C  745  1  0.19117900  0.53303400  0.39098600  1
  C  746  1  0.11903700  0.53370900  0.44493800  1
  C  747  1  0.06470400  0.53407300  0.45162300  1
  C  749  1  0.97509750  0.53377900  0.45106800  1
  C  750  1  0.99185850  0.53457200  0.47403200  1
  C  751  1  0.04663000  0.53444300  0.47437300  1
  C  752  1  0.92115450  0.53335600  0.44372000  1
  C  753  1  0.90435950  0.53357400  0.42034600  1
  C  755  1  0.90565450  0.53400400  0.38173500  1
  C  756  1  0.85265700  0.53350100  0.38878600  1
  C  757  1  0.85186400  0.53289900  0.41256100  1
  C  758  1  0.92396850  0.53432400  0.35860300  1
  C  759  1  0.88488100  0.53304800  0.34081300  1
  C  760  1  0.86006900  0.48475000  0.33483400  1
  C  761  1  0.82075200  0.48350600  0.31760800  1
  C  762  1  0.80555400  0.53026800  0.30570200  1
  C  763  1  0.83130600  0.57837400  0.31153800  1
  C  764  1  0.87027000  0.57985100  0.32894100  1
  C  765  1  0.76402400  0.52918400  0.28894800  1
  C  766  1  0.76936000  0.55464600  0.26727900  1
  C  767  1  0.72765800  0.55405100  0.25105200  1
  C  768  1  0.67928500  0.52833300  0.25622700  1
  C  769  1  0.67356800  0.50339000  0.27784900  1
  C  770  1  0.71540000  0.50345200  0.29390500  1
  C  771  1  0.88099000  0.53278100  0.46102300  1
  C  772  1  0.86808600  0.48527400  0.47272300  1
  C  773  1  0.82884700  0.48490600  0.48996000  1
  C  774  1  0.80103600  0.53180000  0.49583400  1
  C  775  1  0.81422900  0.57922500  0.48397900  1
  C  776  1  0.85384300  0.57985000  0.46691800  1
  C  777  1  0.75997700  0.53105700  0.51278100  1
  C  778  1  0.76695100  0.50525100  0.53430100  1
  C  779  1  0.72589400  0.50399200  0.55076200  1
  C  780  1  0.67651900  0.52828800  0.54603900  1
  C  781  1  0.66917600  0.55362600  0.52457700  1
  C  782  1  0.71035700  0.55536100  0.50826700  1
  C  783  1  0.15802800  0.53217400  0.46275800  1
  C  784  1  0.17462200  0.57914500  0.47386000  1
  C  785  1  0.21253900  0.57712200  0.49169800  1
  C  786  1  0.23508700  0.52825900  0.49888800  1
  C  787  1  0.21788500  0.48139900  0.48766000  1
  C  788  1  0.17983500  0.48321400  0.46990800  1
  C  789  1  0.27486000  0.52626800  0.51650700  1
  C  790  1  0.32057300  0.49420000  0.51380700  1
  C  791  1  0.36029600  0.49246500  0.53082800  1
  C  792  1  0.35610300  0.52328000  0.55108400  1
  C  793  1  0.31012100  0.55437400  0.55416600  1
  C  794  1  0.27032800  0.55617900  0.53706100  1
  C  795  1  0.16193200  0.53348200  0.34250800  1
  C  796  1  0.18668600  0.58118400  0.33559200  1
  C  797  1  0.17624100  0.48576100  0.33142300  1
  C  798  1  0.21445100  0.48584400  0.31374800  1
  C  799  1  0.23969500  0.53344500  0.30669700  1
  C  800  1  0.22510900  0.58104200  0.31802200  1
  C  801  1  0.27907800  0.53344400  0.28894100  1
  C  802  1  0.32654100  0.56298900  0.29145700  1
  C  803  1  0.36566400  0.56285300  0.27420900  1
  C  804  1  0.35906100  0.53265900  0.25387900  1
  C  805  1  0.31137300  0.50410400  0.25100000  1
  C  806  1  0.27221600  0.50413900  0.26833300  1
  N  2  1  0.98486900  0.01050600  0.90130800  1
  N  4  1  0.98775900  0.04021300  0.86337500  1
  N  6  1  0.99457200  0.94911100  0.87164800  1
  N  14  1  0.01119400  0.00908500  0.40123400  1
  N  16  1  0.03906800  0.00516500  0.36309200  1
  N  18  1  0.94833500  0.99904000  0.37207900  1
  N  26  1  0.98354800  0.98040200  0.24690600  1
  N  28  1  0.98724600  0.95250900  0.28511700  1
  N  30  1  0.99316500  0.04326400  0.27596800  1
  N  38  1  0.00980100  0.99630300  0.74658300  1
  N  40  1  0.03937200  0.99638900  0.78458900  1
  N  42  1  0.94817000  0.00221500  0.77633400  1
  N  52  1  0.98138200  0.49750400  0.03744100  1
  N  56  1  0.98175900  0.58265200  0.07441200  1
  N  62  1  0.98148100  0.49475300  0.11070000  1
  N  68  1  0.98151400  0.40960900  0.07373000  1
  N  163  1  0.98811900  0.11231800  0.91556800  1
  N  164  1  0.98575800  0.87147900  0.90902800  1
  N  165  1  0.98809100  0.87839600  0.23340500  1
  N  166  1  0.98538800  0.11931400  0.23833600  1
  N  170  1  0.49907700  0.01106200  0.53740900  1
  N  174  1  0.58440700  0.01053400  0.57455900  1
  N  180  1  0.49664500  0.01011600  0.61065600  1
  N  186  1  0.41135900  0.01055300  0.57351000  1
  N  281  1  0.11333600  0.00481400  0.41490100  1
  N  282  1  0.87233700  0.00729100  0.40961500  1
  N  283  1  0.87030900  0.99988700  0.73952700  1
  N  284  1  0.11117000  0.00278100  0.73217500  1
  N  286  1  0.74668800  0.77232400  0.81517800  1
  N  288  1  0.74957800  0.80203100  0.77724500  1
  N  290  1  0.75639100  0.71092900  0.78551800  1
  N  298  1  0.77301300  0.77090300  0.31510400  1
  N  300  1  0.80088700  0.76698300  0.27696200  1
  N  302  1  0.71015400  0.76085800  0.28594900  1
  N  310  1  0.74536700  0.74222000  0.16077600  1
  N  312  1  0.74906500  0.71432700  0.19898700  1
  N  314  1  0.75498400  0.80508200  0.18983800  1
  N  322  1  0.77162000  0.75812100  0.66045300  1
  N  324  1  0.80119100  0.75820700  0.69845900  1
  N  326  1  0.70998900  0.76403300  0.69020400  1
  N  336  1  0.74320100  0.25932200  0.95131150  1
  N  340  1  0.74357800  0.34447000  0.98828250  1
  N  346  1  0.74330000  0.25657100  0.02457000  1
  N  352  1  0.74333300  0.17142700  0.98760050  1
  N  447  1  0.74993800  0.87413600  0.82943800  1
  N  448  1  0.74757700  0.63329700  0.82289800  1
  N  449  1  0.74991000  0.64021400  0.14727500  1
  N  450  1  0.74720700  0.88113200  0.15220600  1
  N  454  1  0.26089600  0.77288000  0.45127900  1
  N  458  1  0.34622600  0.77235200  0.48842900  1
  N  464  1  0.25846400  0.77193400  0.52452600  1
  N  470  1  0.17317800  0.77237100  0.48738000  1
  N  565  1  0.87515500  0.76663200  0.32877100  1
  N  566  1  0.63415600  0.76910900  0.32348500  1
  N  567  1  0.63212800  0.76170500  0.65339700  1
  N  568  1  0.87298900  0.76459900  0.64604500  1
  N  570  1  0.50850700  0.53414200  0.72904900  1
  N  572  1  0.51139700  0.56384900  0.69111600  1
  N  574  1  0.51821000  0.47274700  0.69938900  1
  N  582  1  0.53483200  0.53272100  0.22897500  1
  N  584  1  0.56270600  0.52880100  0.19083300  1
  N  586  1  0.47197300  0.52267600  0.19982000  1
  N  594  1  0.50718600  0.50403800  0.07464700  1
  N  596  1  0.51088400  0.47614500  0.11285800  1
  N  598  1  0.51680300  0.56690000  0.10370900  1
  N  606  1  0.53343900  0.51993900  0.57432400  1
  N  608  1  0.56301000  0.52002500  0.61233000  1
  N  610  1  0.47180800  0.52585100  0.60407500  1
  N  620  1  0.50502000  0.02114000  0.86518200  1
  N  624  1  0.50539700  0.10628800  0.90215290  1
  N  630  1  0.50511900  0.01838900  0.93844090  1
  N  636  1  0.50515200  0.93324460  0.90147090  1
  N  731  1  0.51175700  0.63595400  0.74330900  1
  N  732  1  0.50939600  0.39511500  0.73676900  1
  N  733  1  0.51172900  0.40203200  0.06114600  1
  N  734  1  0.50902600  0.64295000  0.06607700  1
  N  738  1  0.02271500  0.53469800  0.36515000  1
  N  742  1  0.10804500  0.53417000  0.40230000  1
  N  748  1  0.02028300  0.53375200  0.43839700  1
  N  754  1  0.93499650  0.53418900  0.40125100  1
  N  849  1  0.63697400  0.52845000  0.24264200  1
  N  850  1  0.39597500  0.53092700  0.23735600  1
  N  851  1  0.39394700  0.52352300  0.56726800  1
  N  852  1  0.63480800  0.52641700  0.55991600  1
