# generated using pymatgen
data_H15(C12N)2
_symmetry_space_group_name_H-M   'P 1'
_cell_length_a   35.34680000
_cell_length_b   42.79839690
_cell_length_c   42.79710000
_cell_angle_alpha   60.00100719
_cell_angle_beta   90.00000000
_cell_angle_gamma   90.44200003
_symmetry_Int_Tables_number   1
_chemical_formula_structural   H15(C12N)2
_chemical_formula_sum   'H360 C576 N48'
_cell_volume   56067.31452691
_cell_formula_units_Z   24
loop_
 _symmetry_equiv_pos_site_id
 _symmetry_equiv_pos_as_xyz
  1  'x, y, z'
loop_
 _atom_site_type_symbol
 _atom_site_label
 _atom_site_symmetry_multiplicity
 _atom_site_fract_x
 _atom_site_fract_y
 _atom_site_fract_z
 _atom_site_occupancy
  H  9  1  0.10744500  0.04776400  0.55236000  1
  H  17  1  0.88014200  0.92989800  0.61019800  1
  H  19  1  0.91979500  0.05274600  0.55049500  1
  H  20  1  0.97861400  0.08330900  0.53895800  1
  H  21  1  0.00859800  0.89428400  0.63021000  1
  H  22  1  0.06718600  0.92459800  0.61141700  1
  H  35  1  0.77760200  0.54896300  0.40158100  1
  H  43  1  0.54869400  0.60351200  0.45904400  1
  H  45  1  0.59010200  0.54283800  0.39791700  1
  H  46  1  0.64933200  0.53216600  0.37947600  1
  H  47  1  0.67662000  0.62686200  0.47459000  1
  H  48  1  0.73564500  0.60897700  0.46374400  1
  H  61  1  0.44503700  0.39466600  0.05222200  1
  H  69  1  0.21851500  0.45602300  0.93595300  1
  H  71  1  0.25742200  0.39414100  0.05854100  1
  H  72  1  0.31592500  0.37474000  0.08874600  1
  H  73  1  0.34712600  0.46985200  0.89945500  1
  H  74  1  0.40564300  0.45790600  0.92931500  1
  H  87  1  0.60723600  0.94618700  0.45080400  1
  H  95  1  0.38085900  0.06178700  0.39301700  1
  H  97  1  0.41957100  0.93933400  0.45310500  1
  H  98  1  0.47817500  0.90933800  0.46460700  1
  H  99  1  0.50958000  0.09869100  0.37265600  1
  H  100  1  0.56790100  0.06899100  0.39145200  1
  H  113  1  0.27675500  0.44531800  0.60286200  1
  H  121  1  0.04754800  0.39145100  0.54333900  1
  H  123  1  0.08928200  0.45185200  0.60502300  1
  H  124  1  0.14848900  0.46229700  0.62402700  1
  H  125  1  0.17527600  0.36818400  0.52849900  1
  H  126  1  0.23448000  0.38594600  0.53984600  1
  H  139  1  0.94364900  0.59731300  0.95019100  1
  H  147  1  0.71751700  0.53948200  0.06904100  1
  H  149  1  0.75600500  0.60061000  0.94604900  1
  H  150  1  0.81457500  0.61900600  0.91514400  1
  H  151  1  0.84636500  0.52446200  0.10407200  1
  H  152  1  0.90459500  0.53547000  0.07358900  1
  H  163  1  0.13802900  0.93871700  0.54819000  1
  H  170  1  0.29741900  0.98813900  0.53624700  1
  H  171  1  0.34219700  0.00724600  0.48948000  1
  H  172  1  0.28466200  0.94937400  0.44797500  1
  H  173  1  0.20656400  0.96025400  0.61595000  1
  H  176  1  0.23456200  0.89338700  0.51909200  1
  H  177  1  0.22475600  0.92076400  0.47266600  1
  H  178  1  0.16997400  0.91300000  0.51362100  1
  H  179  1  0.18224200  0.95875600  0.48393600  1
  H  182  1  0.33148600  0.00907000  0.41071200  1
  H  183  1  0.13207100  0.94985600  0.62363400  1
  H  184  1  0.26139200  0.95721500  0.58577400  1
  H  191  1  0.80706700  0.54460300  0.51430600  1
  H  198  1  0.96680000  0.53670300  0.47611100  1
  H  199  1  0.01137300  0.49018100  0.50257100  1
  H  200  1  0.95338700  0.44493600  0.60196700  1
  H  201  1  0.87556800  0.61518900  0.42589700  1
  H  204  1  0.90353200  0.51487800  0.58913100  1
  H  205  1  0.89372600  0.46849800  0.60688800  1
  H  206  1  0.83897800  0.50920900  0.57448500  1
  H  207  1  0.85125900  0.48072900  0.55715700  1
  H  210  1  0.99974600  0.40943300  0.57955500  1
  H  211  1  0.80096600  0.62127600  0.42857900  1
  H  212  1  0.93043900  0.58533200  0.45876200  1
  H  219  1  0.47836800  0.50704400  0.93883800  1
  H  226  1  0.63225800  0.46656000  0.00043500  1
  H  227  1  0.67583900  0.49491400  0.02000000  1
  H  228  1  0.62490700  0.59552000  0.95341900  1
  H  229  1  0.54416400  0.41437800  0.97005900  1
  H  232  1  0.57938800  0.57791200  0.89725100  1
  H  233  1  0.56726200  0.59951400  0.92179900  1
  H  234  1  0.51310800  0.56664900  0.91223400  1
  H  235  1  0.52101500  0.55258700  0.95824900  1
  H  238  1  0.66783800  0.57303300  0.01708700  1
  H  239  1  0.46973900  0.41952700  0.95452900  1
  H  240  1  0.59934800  0.44674400  0.96880800  1
  H  247  1  0.63880200  0.05465100  0.45565700  1
  H  254  1  0.79735000  0.00578600  0.46637400  1
  H  255  1  0.84177100  0.98577500  0.51324000  1
  H  256  1  0.78521700  0.04182300  0.55672000  1
  H  257  1  0.70695200  0.03504700  0.38655400  1
  H  260  1  0.73621300  0.09884300  0.48612600  1
  H  261  1  0.72584600  0.07068600  0.53243300  1
  H  262  1  0.67125000  0.07943000  0.49109900  1
  H  263  1  0.68257000  0.03350700  0.52008400  1
  H  266  1  0.83122700  0.98271400  0.59303800  1
  H  267  1  0.63245900  0.04517100  0.37930400  1
  H  268  1  0.76184800  0.03748300  0.41706200  1
  H  275  1  0.30706100  0.44775000  0.49010900  1
  H  282  1  0.46582900  0.45922700  0.52848000  1
  H  283  1  0.51081000  0.50606800  0.50108500  1
  H  284  1  0.45488200  0.54747400  0.40138900  1
  H  285  1  0.37405400  0.38010600  0.58003200  1
  H  288  1  0.40494900  0.47615200  0.41634100  1
  H  289  1  0.39534400  0.52261100  0.39704100  1
  H  290  1  0.34008100  0.48176600  0.42995200  1
  H  291  1  0.35191600  0.51160400  0.44590900  1
  H  294  1  0.50073600  0.58496000  0.42347600  1
  H  295  1  0.29938300  0.37302400  0.57696300  1
  H  296  1  0.42946500  0.40982300  0.54705600  1
  H  303  1  0.97545800  0.48588200  0.05839900  1
  H  310  1  0.13518900  0.52458500  0.01060300  1
  H  311  1  0.18023300  0.49750800  0.99146400  1
  H  312  1  0.12253900  0.39784300  0.04781500  1
  H  313  1  0.04362900  0.57530400  0.03836400  1
  H  316  1  0.07197000  0.41199300  0.10385500  1
  H  317  1  0.06250300  0.39329100  0.07603300  1
  H  318  1  0.00747500  0.42591700  0.08364500  1
  H  319  1  0.02007600  0.44250100  0.03793300  1
  H  322  1  0.16954100  0.42037600  0.98903900  1
  H  323  1  0.96933500  0.57228100  0.04802800  1
  H  324  1  0.09862400  0.54260500  0.04140100  1
  H  331  1  0.15924600  0.29341700  0.52658900  1
  H  338  1  0.02522000  0.20086600  0.54024200  1
  H  339  1  0.01915400  0.14612600  0.54005800  1
  H  340  1  0.12452800  0.16476100  0.48730300  1
  H  341  1  0.04304900  0.30398300  0.54084300  1
  H  344  1  0.13422100  0.25141500  0.45494500  1
  H  345  1  0.16432100  0.21399100  0.47817200  1
  H  346  1  0.17724200  0.26369200  0.49165800  1
  H  347  1  0.16660700  0.22208000  0.53094000  1
  H  350  1  0.08860000  0.11006700  0.50290200  1
  H  351  1  0.12607000  0.31385000  0.57204000  1
  H  352  1  0.02836900  0.25968100  0.52473800  1
  H  359  1  0.83261700  0.52436400  0.18264100  1
  H  366  1  0.69678100  0.53159200  0.26235800  1
  H  367  1  0.68994000  0.53166400  0.31707200  1
  H  368  1  0.79734600  0.48454100  0.35047700  1
  H  369  1  0.71622000  0.53241000  0.15889500  1
  H  372  1  0.80942200  0.45202800  0.29662200  1
  H  373  1  0.83811800  0.47695000  0.31032800  1
  H  374  1  0.85130700  0.49062800  0.24716000  1
  H  375  1  0.83876700  0.52949600  0.24929000  1
  H  378  1  0.75965800  0.49832600  0.38980100  1
  H  379  1  0.80036700  0.56648600  0.11736100  1
  H  380  1  0.70143800  0.51588100  0.21931600  1
  H  387  1  0.49599700  0.17679800  0.29526200  1
  H  394  1  0.36132600  0.25614500  0.20720000  1
  H  395  1  0.35526500  0.31098900  0.15250300  1
  H  396  1  0.46258100  0.34474600  0.16773200  1
  H  397  1  0.37938700  0.15235600  0.30959900  1
  H  400  1  0.47353800  0.29053200  0.25421000  1
  H  401  1  0.50267900  0.30465200  0.21585200  1
  H  402  1  0.51517900  0.24141300  0.26514800  1
  H  403  1  0.50304700  0.24379700  0.22387200  1
  H  406  1  0.42575000  0.38398300  0.11418800  1
  H  407  1  0.46288600  0.11140400  0.31724800  1
  H  408  1  0.36521000  0.21283500  0.26591600  1
  H  415  1  0.66088100  0.70290500  0.47603900  1
  H  422  1  0.52555100  0.79163300  0.46399700  1
  H  423  1  0.51871500  0.84617600  0.46434000  1
  H  424  1  0.62412600  0.83041100  0.51591200  1
  H  425  1  0.54492000  0.68906200  0.46310400  1
  H  428  1  0.63492800  0.74406300  0.54802000  1
  H  429  1  0.66458200  0.78234200  0.52453000  1
  H  430  1  0.67829800  0.73311500  0.51075800  1
  H  431  1  0.66722100  0.77446100  0.47164900  1
  H  434  1  0.58722800  0.88394600  0.50106400  1
  H  435  1  0.62906600  0.68107800  0.43155200  1
  H  436  1  0.52953400  0.73293700  0.47936800  1
  H  443  1  0.33135900  0.47343600  0.82067400  1
  H  450  1  0.19671300  0.45857900  0.74402200  1
  H  451  1  0.19019700  0.45855000  0.68930400  1
  H  452  1  0.29524600  0.51219600  0.65336400  1
  H  453  1  0.21537200  0.45818700  0.84734400  1
  H  456  1  0.30529600  0.54485700  0.70734200  1
  H  457  1  0.33533100  0.52185800  0.69272000  1
  H  458  1  0.34873800  0.50867100  0.75565900  1
  H  459  1  0.33825300  0.46922900  0.75358200  1
  H  462  1  0.25968000  0.49538500  0.61534800  1
  H  463  1  0.29883400  0.42777500  0.88711500  1
  H  464  1  0.20019900  0.47419200  0.78719300  1
  H  471  1  0.99493300  0.81721800  0.70884400  1
  H  478  1  0.85922000  0.73371600  0.79438800  1
  H  479  1  0.85281700  0.67885400  0.84927100  1
  H  480  1  0.96222400  0.64851600  0.83622800  1
  H  481  1  0.87818000  0.83788100  0.69205900  1
  H  484  1  0.97523900  0.70279400  0.74982100  1
  H  485  1  0.00296500  0.68970300  0.78870300  1
  H  486  1  0.01530900  0.75328000  0.73954900  1
  H  487  1  0.00109500  0.75061200  0.78049500  1
  H  490  1  0.92319900  0.60760500  0.88865500  1
  H  491  1  0.96101300  0.88134500  0.68578300  1
  H  492  1  0.86431500  0.77698800  0.73563400  1
  H  501  1  0.10744500  0.72064900  0.22522510  1
  H  509  1  0.88014200  0.60278300  0.28306300  1
  H  511  1  0.91979500  0.72563100  0.22336010  1
  H  512  1  0.97861400  0.75619400  0.21182310  1
  H  513  1  0.00859800  0.56716900  0.30307500  1
  H  514  1  0.06718600  0.59748300  0.28428200  1
  H  527  1  0.77760200  0.22184800  0.07444600  1
  H  535  1  0.54869400  0.27639700  0.13190900  1
  H  537  1  0.59010200  0.21572300  0.07078200  1
  H  538  1  0.64933200  0.20505100  0.05234100  1
  H  539  1  0.67662000  0.29974700  0.14745500  1
  H  540  1  0.73564500  0.28186200  0.13660900  1
  H  553  1  0.44503700  0.06755100  0.72508700  1
  H  561  1  0.21851500  0.12890800  0.60881800  1
  H  563  1  0.25742200  0.06702600  0.73140600  1
  H  564  1  0.31592500  0.04762500  0.76161100  1
  H  565  1  0.34712600  0.14273700  0.57232000  1
  H  566  1  0.40564300  0.13079100  0.60218000  1
  H  579  1  0.60723600  0.61907200  0.12366900  1
  H  587  1  0.38085900  0.73467200  0.06588200  1
  H  589  1  0.41957100  0.61221900  0.12597000  1
  H  590  1  0.47817500  0.58222300  0.13747200  1
  H  591  1  0.50958000  0.77157600  0.04552100  1
  H  592  1  0.56790100  0.74187600  0.06431700  1
  H  605  1  0.27675500  0.11820300  0.27572700  1
  H  613  1  0.04754800  0.06433600  0.21620400  1
  H  615  1  0.08928200  0.12473700  0.27788800  1
  H  616  1  0.14848900  0.13518200  0.29689200  1
  H  617  1  0.17527600  0.04106900  0.20136400  1
  H  618  1  0.23448000  0.05883100  0.21271100  1
  H  631  1  0.94364900  0.27019800  0.62305600  1
  H  639  1  0.71751700  0.21236700  0.74190610  1
  H  641  1  0.75600500  0.27349500  0.61891400  1
  H  642  1  0.81457500  0.29189100  0.58800900  1
  H  643  1  0.84636500  0.19734700  0.77693710  1
  H  644  1  0.90459500  0.20835500  0.74645410  1
  H  655  1  0.13802900  0.61160200  0.22105500  1
  H  662  1  0.29741900  0.66102400  0.20911200  1
  H  663  1  0.34219700  0.68013100  0.16234500  1
  H  664  1  0.28466200  0.62225900  0.12084000  1
  H  665  1  0.20656400  0.63313900  0.28881510  1
  H  668  1  0.23456200  0.56627200  0.19195700  1
  H  669  1  0.22475600  0.59364900  0.14553100  1
  H  670  1  0.16997400  0.58588500  0.18648600  1
  H  671  1  0.18224200  0.63164100  0.15680100  1
  H  674  1  0.33148600  0.68195500  0.08357700  1
  H  675  1  0.13207100  0.62274100  0.29649910  1
  H  676  1  0.26139200  0.63010000  0.25863900  1
  H  683  1  0.80706700  0.21748800  0.18717100  1
  H  690  1  0.96680000  0.20958800  0.14897600  1
  H  691  1  0.01137300  0.16306600  0.17543600  1
  H  692  1  0.95338700  0.11782100  0.27483200  1
  H  693  1  0.87556800  0.28807400  0.09876200  1
  H  696  1  0.90353200  0.18776300  0.26199600  1
  H  697  1  0.89372600  0.14138300  0.27975300  1
  H  698  1  0.83897800  0.18209400  0.24735000  1
  H  699  1  0.85125900  0.15361400  0.23002200  1
  H  702  1  0.99974600  0.08231800  0.25242000  1
  H  703  1  0.80096600  0.29416100  0.10144400  1
  H  704  1  0.93043900  0.25821700  0.13162700  1
  H  711  1  0.47836800  0.17992900  0.61170300  1
  H  718  1  0.63225800  0.13944500  0.67330000  1
  H  719  1  0.67583900  0.16779900  0.69286500  1
  H  720  1  0.62490700  0.26840500  0.62628400  1
  H  721  1  0.54416400  0.08726300  0.64292400  1
  H  724  1  0.57938800  0.25079700  0.57011600  1
  H  725  1  0.56726200  0.27239900  0.59466400  1
  H  726  1  0.51310800  0.23953400  0.58509900  1
  H  727  1  0.52101500  0.22547200  0.63111400  1
  H  730  1  0.66783800  0.24591800  0.68995210  1
  H  731  1  0.46973900  0.09241200  0.62739400  1
  H  732  1  0.59934800  0.11962900  0.64167300  1
  H  739  1  0.63880200  0.72753600  0.12852200  1
  H  746  1  0.79735000  0.67867100  0.13923900  1
  H  747  1  0.84177100  0.65866000  0.18610500  1
  H  748  1  0.78521700  0.71470800  0.22958510  1
  H  749  1  0.70695200  0.70793200  0.05941900  1
  H  752  1  0.73621300  0.77172800  0.15899110  1
  H  753  1  0.72584600  0.74357100  0.20529810  1
  H  754  1  0.67125000  0.75231500  0.16396410  1
  H  755  1  0.68257000  0.70639200  0.19294900  1
  H  758  1  0.83122700  0.65559900  0.26590310  1
  H  759  1  0.63245900  0.71805600  0.05216900  1
  H  760  1  0.76184800  0.71036800  0.08992700  1
  H  767  1  0.30706100  0.12063500  0.16297400  1
  H  774  1  0.46582900  0.13211200  0.20134500  1
  H  775  1  0.51081000  0.17895300  0.17395000  1
  H  776  1  0.45488200  0.22035900  0.07425400  1
  H  777  1  0.37405400  0.05299100  0.25289700  1
  H  780  1  0.40494900  0.14903700  0.08920600  1
  H  781  1  0.39534400  0.19549600  0.06990600  1
  H  782  1  0.34008100  0.15465100  0.10281700  1
  H  783  1  0.35191600  0.18448900  0.11877400  1
  H  786  1  0.50073600  0.25784500  0.09634100  1
  H  787  1  0.29938300  0.04590900  0.24982800  1
  H  788  1  0.42946500  0.08270800  0.21992100  1
  H  795  1  0.97545800  0.15876700  0.73126400  1
  H  802  1  0.13518900  0.19747000  0.68346800  1
  H  803  1  0.18023300  0.17039300  0.66432900  1
  H  804  1  0.12253900  0.07072800  0.72068000  1
  H  805  1  0.04362900  0.24818900  0.71122910  1
  H  808  1  0.07197000  0.08487800  0.77672000  1
  H  809  1  0.06250300  0.06617600  0.74889800  1
  H  810  1  0.00747500  0.09880200  0.75651000  1
  H  811  1  0.02007600  0.11538600  0.71079800  1
  H  814  1  0.16954100  0.09326100  0.66190400  1
  H  815  1  0.96933500  0.24516600  0.72089310  1
  H  816  1  0.09862400  0.21549000  0.71426610  1
  H  823  1  0.15924600  0.96630200  0.19945400  1
  H  830  1  0.02522000  0.87375100  0.21310700  1
  H  831  1  0.01915400  0.81901100  0.21292300  1
  H  832  1  0.12452800  0.83764600  0.16016806  1
  H  833  1  0.04304900  0.97686800  0.21370800  1
  H  836  1  0.13422100  0.92430000  0.12781000  1
  H  837  1  0.16432100  0.88687600  0.15103700  1
  H  838  1  0.17724200  0.93657700  0.16452300  1
  H  839  1  0.16660700  0.89496500  0.20380500  1
  H  842  1  0.08860000  0.78295200  0.17576710  1
  H  843  1  0.12607000  0.98673500  0.24490500  1
  H  844  1  0.02836900  0.93256600  0.19760300  1
  H  851  1  0.83261700  0.19724900  0.85550600  1
  H  858  1  0.69678100  0.20447700  0.93522300  1
  H  859  1  0.68994000  0.20454900  0.98993700  1
  H  860  1  0.79734600  0.15742600  0.02334200  1
  H  861  1  0.71622000  0.20529500  0.83176000  1
  H  864  1  0.80942200  0.12491300  0.96948700  1
  H  865  1  0.83811800  0.14983500  0.98319300  1
  H  866  1  0.85130700  0.16351300  0.92002500  1
  H  867  1  0.83876700  0.20238100  0.92215500  1
  H  870  1  0.75965800  0.17121100  0.06266600  1
  H  871  1  0.80036700  0.23937100  0.79022600  1
  H  872  1  0.70143800  0.18876600  0.89218100  1
  H  879  1  0.49599700  0.84968300  0.96812700  1
  H  886  1  0.36132600  0.92903000  0.88006500  1
  H  887  1  0.35526500  0.98387400  0.82536800  1
  H  888  1  0.46258100  0.01763100  0.84059700  1
  H  889  1  0.37938700  0.82524100  0.98246400  1
  H  892  1  0.47353800  0.96341700  0.92707500  1
  H  893  1  0.50267900  0.97753700  0.88871700  1
  H  894  1  0.51517900  0.91429800  0.93801300  1
  H  895  1  0.50304700  0.91668200  0.89673700  1
  H  898  1  0.42575000  0.05686800  0.78705300  1
  H  899  1  0.46288600  0.78428900  0.99011300  1
  H  900  1  0.36521000  0.88572000  0.93878100  1
  H  907  1  0.66088100  0.37579000  0.14890400  1
  H  914  1  0.52555100  0.46451800  0.13686200  1
  H  915  1  0.51871500  0.51906100  0.13720500  1
  H  916  1  0.62412600  0.50329600  0.18877700  1
  H  917  1  0.54492000  0.36194700  0.13596900  1
  H  920  1  0.63492800  0.41694800  0.22088500  1
  H  921  1  0.66458200  0.45522700  0.19739500  1
  H  922  1  0.67829800  0.40600000  0.18362300  1
  H  923  1  0.66722100  0.44734600  0.14451400  1
  H  926  1  0.58722800  0.55683100  0.17392900  1
  H  927  1  0.62906600  0.35396300  0.10441700  1
  H  928  1  0.52953400  0.40582200  0.15223300  1
  H  935  1  0.33135900  0.14632100  0.49353900  1
  H  942  1  0.19671300  0.13146400  0.41688700  1
  H  943  1  0.19019700  0.13143500  0.36216900  1
  H  944  1  0.29524600  0.18508100  0.32622900  1
  H  945  1  0.21537200  0.13107200  0.52020900  1
  H  948  1  0.30529600  0.21774200  0.38020700  1
  H  949  1  0.33533100  0.19474300  0.36558500  1
  H  950  1  0.34873800  0.18155600  0.42852400  1
  H  951  1  0.33825300  0.14211400  0.42644700  1
  H  954  1  0.25968000  0.16827000  0.28821300  1
  H  955  1  0.29883400  0.10066000  0.55998000  1
  H  956  1  0.20019900  0.14707700  0.46005800  1
  H  963  1  0.99493300  0.49010300  0.38170900  1
  H  970  1  0.85922000  0.40660100  0.46725300  1
  H  971  1  0.85281700  0.35173900  0.52213600  1
  H  972  1  0.96222400  0.32140100  0.50909300  1
  H  973  1  0.87818000  0.51076600  0.36492400  1
  H  976  1  0.97523900  0.37567900  0.42268600  1
  H  977  1  0.00296500  0.36258800  0.46156800  1
  H  978  1  0.01530900  0.42616500  0.41241400  1
  H  979  1  0.00109500  0.42349700  0.45336000  1
  H  982  1  0.92319900  0.28049000  0.56152000  1
  H  983  1  0.96101300  0.55423000  0.35864810  1
  H  984  1  0.86431500  0.44987300  0.40849900  1
  C  1  1  0.01161700  0.99800200  0.58020700  1
  C  2  1  0.01303700  0.03646900  0.56222800  1
  C  3  1  0.04848200  0.05474100  0.55325500  1
  C  4  1  0.08184400  0.03459000  0.55978000  1
  C  5  1  0.08084200  0.99673100  0.57639500  1
  C  6  1  0.04575100  0.97799100  0.58784700  1
  C  7  1  0.97869200  0.05570400  0.55251400  1
  C  8  1  0.04344800  0.93992500  0.60577300  1
  C  10  1  0.97598000  0.97952900  0.58959900  1
  C  11  1  0.94187000  0.99954300  0.57757800  1
  C  12  1  0.90674800  0.98112100  0.58404100  1
  C  13  1  0.90554300  0.94321900  0.60578000  1
  C  14  1  0.93871300  0.92310900  0.62015800  1
  C  15  1  0.97438700  0.94108500  0.60965800  1
  C  16  1  0.94386900  0.03762900  0.55881000  1
  C  18  1  0.00861500  0.92184100  0.61745700  1
  C  27  1  0.68111000  0.57541200  0.42240000  1
  C  28  1  0.68306800  0.55690200  0.40246300  1
  C  29  1  0.71875400  0.54844400  0.39355800  1
  C  30  1  0.75183000  0.55602900  0.40704300  1
  C  31  1  0.75034800  0.57325900  0.42769500  1
  C  32  1  0.71497300  0.58412000  0.43461400  1
  C  33  1  0.64900900  0.54613600  0.39311100  1
  C  34  1  0.71212400  0.60253400  0.45421500  1
  C  36  1  0.64521500  0.58426100  0.43109500  1
  C  37  1  0.61140600  0.57120200  0.42330200  1
  C  38  1  0.57603500  0.57717100  0.43489200  1
  C  39  1  0.57428700  0.59939600  0.45047300  1
  C  40  1  0.60713100  0.61481100  0.45593900  1
  C  41  1  0.64306500  0.60485300  0.44888200  1
  C  42  1  0.61394700  0.55195700  0.40451700  1
  C  44  1  0.67702400  0.61368600  0.46019600  1
  C  53  1  0.34944000  0.41732100  0.00317400  1
  C  54  1  0.35058900  0.39726600  0.04165200  1
  C  55  1  0.38590900  0.38772400  0.05967200  1
  C  56  1  0.41949200  0.40063500  0.03923200  1
  C  57  1  0.41879600  0.42143300  0.00134800  1
  C  58  1  0.38376100  0.42898700  0.98288500  1
  C  59  1  0.31615400  0.38838600  0.06113800  1
  C  60  1  0.38174100  0.44872200  0.94482400  1
  C  62  1  0.31392200  0.42664300  0.98495200  1
  C  63  1  0.27977000  0.41931900  0.00518500  1
  C  64  1  0.24486400  0.43144900  0.98693500  1
  C  65  1  0.24380300  0.44714500  0.94910100  1
  C  66  1  0.27693800  0.45220500  0.92882000  1
  C  67  1  0.31254100  0.44453500  0.94652700  1
  C  68  1  0.28154400  0.40043500  0.04326200  1
  C  70  1  0.34693900  0.45531100  0.92702200  1
  C  79  1  0.51182000  0.99499800  0.42292000  1
  C  80  1  0.51294400  0.95653500  0.44103600  1
  C  81  1  0.54824700  0.93862000  0.45002500  1
  C  82  1  0.58174200  0.95911900  0.44337500  1
  C  83  1  0.58103500  0.99697900  0.42663700  1
  C  84  1  0.54609900  0.01536400  0.41515900  1
  C  85  1  0.47845800  0.93694600  0.45087800  1
  C  86  1  0.54407100  0.05341000  0.39713600  1
  C  88  1  0.47632200  0.01311200  0.41353000  1
  C  89  1  0.44205200  0.99275800  0.42572400  1
  C  90  1  0.40706300  0.01083500  0.41930900  1
  C  91  1  0.40617200  0.04871500  0.39744500  1
  C  92  1  0.43949400  0.06914600  0.38285800  1
  C  93  1  0.47502900  0.05153900  0.39333200  1
  C  94  1  0.44376400  0.95468900  0.44461200  1
  C  96  1  0.50939300  0.07113500  0.38540400  1
  C  105  1  0.18003200  0.41938600  0.58096900  1
  C  106  1  0.18207700  0.43770900  0.60109700  1
  C  107  1  0.21781300  0.44595300  0.61042200  1
  C  108  1  0.25091200  0.43841800  0.59710400  1
  C  109  1  0.24932800  0.42147500  0.57618600  1
  C  110  1  0.21387500  0.41068700  0.56895200  1
  C  111  1  0.14809000  0.44846400  0.61025200  1
  C  112  1  0.21095200  0.39237300  0.54923300  1
  C  114  1  0.14409200  0.41065500  0.57193600  1
  C  115  1  0.11039900  0.42367800  0.57956600  1
  C  116  1  0.07505100  0.41774500  0.56772000  1
  C  117  1  0.07312100  0.39558100  0.55205700  1
  C  118  1  0.10581000  0.38023700  0.54671900  1
  C  119  1  0.14181800  0.39016400  0.55403700  1
  C  120  1  0.11305600  0.44281300  0.59847900  1
  C  122  1  0.17574800  0.38130600  0.54294900  1
  C  131  1  0.84838400  0.57649800  0.00033200  1
  C  132  1  0.84943700  0.59625600  0.96183400  1
  C  133  1  0.88468900  0.60508400  0.94339800  1
  C  134  1  0.91820100  0.59183800  0.96348700  1
  C  135  1  0.91759100  0.57142000  0.00141100  1
  C  136  1  0.88269100  0.56445200  0.02023600  1
  C  137  1  0.81491600  0.60549200  0.94274600  1
  C  138  1  0.88073800  0.54493400  0.05832600  1
  C  140  1  0.81293300  0.56779300  0.01895900  1
  C  141  1  0.77860700  0.57544400  0.99913300  1
  C  142  1  0.74362600  0.56375600  0.01774700  1
  C  143  1  0.74282700  0.54821500  0.05558300  1
  C  144  1  0.77622500  0.54287800  0.07547700  1
  C  145  1  0.81171600  0.55005700  0.05738900  1
  C  146  1  0.78023300  0.59411700  0.96103900  1
  C  148  1  0.84611100  0.53885300  0.07650400  1
  C  157  1  0.16716700  0.95020200  0.58452800  1
  C  158  1  0.20346100  0.95388600  0.59597900  1
  C  159  1  0.23584100  0.95275100  0.57750800  1
  C  160  1  0.23302000  0.94813700  0.54696200  1
  C  161  1  0.19668500  0.93989300  0.53838200  1
  C  162  1  0.16424500  0.94173200  0.55664100  1
  C  164  1  0.26415600  0.95492300  0.52249100  1
  C  165  1  0.29502600  0.97759000  0.51957800  1
  C  166  1  0.32148500  0.98947500  0.49140100  1
  C  167  1  0.31810100  0.97930100  0.46481000  1
  C  168  1  0.28777700  0.95653200  0.46737800  1
  C  169  1  0.26114600  0.94422900  0.49591700  1
  C  174  1  0.22868900  0.92101700  0.49788500  1
  C  175  1  0.19168500  0.93369200  0.50731700  1
  C  180  1  0.34214600  0.99430400  0.43532100  1
  C  181  1  0.13542400  0.95883600  0.59741500  1
  C  185  1  0.83617100  0.58234400  0.46693800  1
  C  186  1  0.87246800  0.59460700  0.45198100  1
  C  187  1  0.90488700  0.57639800  0.47139300  1
  C  188  1  0.90210900  0.54518900  0.50612000  1
  C  189  1  0.86573000  0.53560700  0.52284900  1
  C  190  1  0.83327600  0.55370400  0.50296600  1
  C  192  1  0.93327200  0.52094200  0.52327900  1
  C  193  1  0.96421400  0.51917900  0.50315400  1
  C  194  1  0.99058200  0.49118000  0.51872400  1
  C  195  1  0.98701500  0.46357100  0.55510500  1
  C  196  1  0.95665800  0.46505000  0.57568900  1
  C  197  1  0.93014100  0.49341300  0.56020600  1
  C  202  1  0.89767600  0.49419500  0.58186100  1
  C  203  1  0.86070100  0.50376000  0.55967100  1
  C  208  1  0.01075400  0.43415200  0.56880700  1
  C  209  1  0.80444100  0.59503000  0.44540500  1
  C  213  1  0.50614200  0.45774000  0.95474600  1
  C  214  1  0.54186400  0.44124900  0.96181600  1
  C  215  1  0.57438300  0.46038400  0.96177900  1
  C  216  1  0.57219300  0.49635300  0.95500200  1
  C  217  1  0.53685900  0.51431900  0.94330100  1
  C  218  1  0.50419600  0.49472600  0.94406400  1
  C  220  1  0.60267800  0.51394100  0.96287200  1
  C  221  1  0.63112600  0.49399700  0.98833600  1
  C  222  1  0.65675000  0.51069900  0.00052600  1
  C  223  1  0.65486900  0.54808000  0.98784500  1
  C  224  1  0.62684500  0.56844900  0.96248200  1
  C  225  1  0.60103400  0.55175000  0.94994000  1
  C  230  1  0.57096000  0.57320300  0.92386000  1
  C  231  1  0.53274000  0.55244400  0.93467800  1
  C  236  1  0.67862300  0.56332000  0.00224200  1
  C  237  1  0.47366800  0.43689200  0.96327700  1
  C  241  1  0.66773000  0.04418900  0.41860500  1
  C  242  1  0.70395900  0.04080600  0.40695100  1
  C  243  1  0.73637500  0.04166700  0.42554600  1
  C  244  1  0.73364000  0.04551800  0.45654600  1
  C  245  1  0.69743400  0.05337700  0.46547600  1
  C  246  1  0.66496300  0.05191100  0.44700600  1
  C  248  1  0.76463000  0.03815900  0.48117800  1
  C  249  1  0.79504800  0.01566800  0.48360100  1
  C  250  1  0.82128700  0.00325100  0.51181700  1
  C  251  1  0.81810000  0.01265900  0.53896700  1
  C  252  1  0.78818500  0.03519700  0.53693000  1
  C  253  1  0.76177900  0.04803700  0.50835600  1
  C  258  1  0.72978600  0.07104600  0.50691000  1
  C  259  1  0.69254000  0.05879900  0.49702900  1
  C  264  1  0.84200800  0.99730500  0.56833700  1
  C  265  1  0.63585900  0.03566500  0.40559100  1
  C  269  1  0.33537900  0.41148400  0.53819900  1
  C  270  1  0.37140900  0.39990600  0.55359600  1
  C  271  1  0.40413700  0.41812000  0.53412600  1
  C  272  1  0.40193100  0.44854200  0.49886100  1
  C  273  1  0.36587200  0.45718500  0.48179200  1
  C  274  1  0.33308200  0.43917600  0.50174000  1
  C  276  1  0.43334400  0.47293200  0.48133300  1
  C  277  1  0.46384800  0.47587500  0.50124900  1
  C  278  1  0.49043400  0.50409800  0.48510900  1
  C  279  1  0.48754300  0.53072100  0.44834000  1
  C  280  1  0.45764400  0.52806400  0.42796200  1
  C  281  1  0.43090800  0.49947300  0.44403500  1
  C  286  1  0.39887800  0.49745000  0.42260100  1
  C  287  1  0.36148400  0.48814500  0.44442500  1
  C  292  1  0.51153200  0.56036300  0.43398700  1
  C  293  1  0.30330400  0.39915200  0.55959300  1
  C  297  1  0.00438000  0.53375100  0.04762500  1
  C  298  1  0.04062200  0.54907500  0.04428000  1
  C  299  1  0.07311300  0.52975600  0.04550900  1
  C  300  1  0.07047000  0.49472200  0.04974700  1
  C  301  1  0.03414900  0.47771600  0.05746800  1
  C  302  1  0.00162100  0.49751200  0.05563100  1
  C  304  1  0.10176700  0.47739200  0.04300100  1
  C  305  1  0.13273900  0.49742300  0.02074300  1
  C  306  1  0.15937600  0.48148000  0.00886400  1
  C  307  1  0.15605400  0.44480800  0.01860800  1
  C  308  1  0.12562600  0.42433600  0.04097800  1
  C  309  1  0.09882500  0.44020700  0.05328700  1
  C  314  1  0.06630000  0.41864700  0.07608900  1
  C  315  1  0.02929400  0.44057700  0.06322200  1
  C  320  1  0.18015600  0.43063300  0.00354200  1
  C  321  1  0.97254500  0.55500900  0.03910100  1
  C  325  1  0.10255400  0.30287500  0.53493900  1
  C  326  1  0.06467600  0.29307200  0.53358600  1
  C  327  1  0.05618000  0.26634900  0.52463300  1
  C  328  1  0.08513100  0.24849500  0.51677600  1
  C  329  1  0.12315300  0.26063200  0.51531400  1
  C  330  1  0.13158100  0.28666600  0.52549600  1
  C  332  1  0.07799900  0.21768300  0.51226500  1
  C  333  1  0.04572000  0.19505800  0.52716800  1
  C  334  1  0.04233100  0.16207100  0.52763700  1
  C  335  1  0.07125100  0.15000900  0.51347500  1
  C  336  1  0.10296400  0.17294100  0.49748300  1
  C  337  1  0.10662500  0.20615700  0.49693000  1
  C  342  1  0.14120400  0.22886800  0.48159300  1
  C  343  1  0.15476100  0.24387400  0.50599600  1
  C  348  1  0.07075600  0.11564300  0.51741300  1
  C  349  1  0.11144000  0.32467100  0.54913500  1
  C  353  1  0.77586500  0.52972300  0.16529100  1
  C  354  1  0.73792600  0.52643500  0.17681700  1
  C  355  1  0.72932600  0.51720800  0.21251700  1
  C  356  1  0.75823100  0.51100800  0.23792800  1
  C  357  1  0.79645000  0.51150300  0.22693500  1
  C  358  1  0.80491300  0.52192900  0.19069000  1
  C  360  1  0.75076200  0.50639900  0.27320400  1
  C  361  1  0.71767700  0.51979600  0.28104000  1
  C  362  1  0.71378200  0.52040800  0.31342200  1
  C  363  1  0.74297200  0.50790500  0.33938100  1
  C  364  1  0.77554900  0.49341100  0.33234200  1
  C  365  1  0.77972600  0.49274500  0.29980200  1
  C  370  1  0.81514000  0.47907000  0.29227500  1
  C  371  1  0.82808300  0.50392300  0.25271400  1
  C  376  1  0.74191500  0.51228900  0.36951600  1
  C  377  1  0.78464900  0.54405300  0.12923200  1
  C  381  1  0.43907600  0.15912000  0.30655700  1
  C  382  1  0.40124900  0.17045400  0.29805700  1
  C  383  1  0.39302100  0.20617500  0.27166400  1
  C  384  1  0.42219100  0.23180300  0.25288900  1
  C  385  1  0.46026600  0.22098900  0.26376400  1
  C  386  1  0.46837200  0.18471900  0.28944000  1
  C  388  1  0.41514900  0.26714900  0.22231000  1
  C  389  1  0.38229300  0.27495500  0.20071100  1
  C  390  1  0.37887500  0.30741500  0.16775400  1
  C  391  1  0.40833300  0.33347400  0.15472000  1
  C  392  1  0.44062900  0.32650500  0.17666400  1
  C  393  1  0.44431500  0.29390100  0.20983700  1
  C  398  1  0.47948200  0.28642200  0.23144900  1
  C  399  1  0.49216000  0.24697200  0.24602700  1
  C  404  1  0.40779000  0.36368400  0.12024200  1
  C  405  1  0.44753800  0.12307700  0.32804800  1
  C  409  1  0.60438100  0.69184100  0.46830900  1
  C  410  1  0.56636500  0.70061300  0.47006300  1
  C  411  1  0.55743900  0.72707000  0.47914000  1
  C  412  1  0.58608800  0.74571800  0.48670000  1
  C  413  1  0.62427600  0.73469000  0.48768300  1
  C  414  1  0.63312100  0.70889900  0.47740200  1
  C  416  1  0.57847100  0.77629500  0.49133800  1
  C  417  1  0.54596100  0.79804000  0.47678100  1
  C  418  1  0.54209000  0.83088900  0.47642500  1
  C  419  1  0.57074200  0.84368100  0.49036300  1
  C  420  1  0.60271200  0.82163800  0.50597800  1
  C  421  1  0.60686500  0.78858000  0.50639400  1
  C  426  1  0.64170200  0.76684100  0.52131900  1
  C  427  1  0.65559000  0.75230000  0.49670000  1
  C  432  1  0.56984500  0.87802500  0.48641800  1
  C  433  1  0.61365800  0.67019300  0.45411700  1
  C  437  1  0.27482200  0.46459500  0.83939900  1
  C  438  1  0.23685100  0.46567000  0.82883100  1
  C  439  1  0.22806400  0.47454200  0.79329900  1
  C  440  1  0.25680000  0.48263700  0.76712900  1
  C  441  1  0.29490400  0.48443400  0.77718700  1
  C  442  1  0.30363500  0.47429600  0.81327400  1
  C  444  1  0.24937000  0.48702800  0.73194800  1
  C  445  1  0.21704100  0.47180900  0.72479900  1
  C  446  1  0.21338600  0.47122300  0.69238400  1
  C  447  1  0.24208200  0.48556300  0.66568500  1
  C  448  1  0.27383800  0.50187000  0.67206700  1
  C  449  1  0.27775900  0.50255900  0.70462000  1
  C  454  1  0.31236300  0.51825500  0.71138500  1
  C  455  1  0.32628300  0.49405700  0.75058400  1
  C  460  1  0.24137500  0.48144300  0.63535500  1
  C  461  1  0.28395200  0.45046500  0.87526800  1
  C  465  1  0.93792100  0.83306400  0.69634800  1
  C  466  1  0.90018200  0.82051900  0.70414900  1
  C  467  1  0.89210600  0.78454900  0.73043100  1
  C  468  1  0.92135200  0.75989000  0.74985500  1
  C  469  1  0.95949100  0.77193100  0.73975200  1
  C  470  1  0.96737300  0.80842300  0.71413900  1
  C  472  1  0.91423900  0.72438300  0.78040800  1
  C  473  1  0.88068700  0.71562400  0.80142600  1
  C  474  1  0.87701800  0.68318700  0.83445200  1
  C  475  1  0.90689500  0.65812300  0.84809200  1
  C  476  1  0.93994500  0.66599600  0.82675900  1
  C  477  1  0.94390200  0.69861100  0.79354800  1
  C  482  1  0.97982400  0.70715800  0.77262900  1
  C  483  1  0.99154200  0.74701700  0.75818600  1
  C  488  1  0.90599200  0.62814100  0.88266600  1
  C  489  1  0.94605500  0.86934900  0.67493500  1
  C  493  1  0.01161700  0.67088700  0.25307210  1
  C  494  1  0.01303700  0.70935400  0.23509310  1
  C  495  1  0.04848200  0.72762600  0.22612010  1
  C  496  1  0.08184400  0.70747500  0.23264510  1
  C  497  1  0.08084200  0.66961600  0.24926010  1
  C  498  1  0.04575100  0.65087600  0.26071210  1
  C  499  1  0.97869200  0.72858900  0.22537910  1
  C  500  1  0.04344800  0.61281000  0.27863800  1
  C  502  1  0.97598000  0.65241400  0.26246410  1
  C  503  1  0.94187000  0.67242800  0.25044310  1
  C  504  1  0.90674800  0.65400600  0.25690610  1
  C  505  1  0.90554300  0.61610400  0.27864500  1
  C  506  1  0.93871300  0.59599400  0.29302300  1
  C  507  1  0.97438700  0.61397000  0.28252300  1
  C  508  1  0.94386900  0.71051400  0.23167510  1
  C  510  1  0.00861500  0.59472600  0.29032200  1
  C  519  1  0.68111000  0.24829700  0.09526500  1
  C  520  1  0.68306800  0.22978700  0.07532800  1
  C  521  1  0.71875400  0.22132900  0.06642300  1
  C  522  1  0.75183000  0.22891400  0.07990800  1
  C  523  1  0.75034800  0.24614400  0.10056000  1
  C  524  1  0.71497300  0.25700500  0.10747900  1
  C  525  1  0.64900900  0.21902100  0.06597600  1
  C  526  1  0.71212400  0.27541900  0.12708000  1
  C  528  1  0.64521500  0.25714600  0.10396000  1
  C  529  1  0.61140600  0.24408700  0.09616700  1
  C  530  1  0.57603500  0.25005600  0.10775700  1
  C  531  1  0.57428700  0.27228100  0.12333800  1
  C  532  1  0.60713100  0.28769600  0.12880400  1
  C  533  1  0.64306500  0.27773800  0.12174700  1
  C  534  1  0.61394700  0.22484200  0.07738200  1
  C  536  1  0.67702400  0.28657100  0.13306100  1
  C  545  1  0.34944000  0.09020600  0.67603900  1
  C  546  1  0.35058900  0.07015100  0.71451700  1
  C  547  1  0.38590900  0.06060900  0.73253700  1
  C  548  1  0.41949200  0.07352000  0.71209700  1
  C  549  1  0.41879600  0.09431800  0.67421300  1
  C  550  1  0.38376100  0.10187200  0.65575000  1
  C  551  1  0.31615400  0.06127100  0.73400300  1
  C  552  1  0.38174100  0.12160700  0.61768900  1
  C  554  1  0.31392200  0.09952800  0.65781700  1
  C  555  1  0.27977000  0.09220400  0.67805000  1
  C  556  1  0.24486400  0.10433400  0.65980000  1
  C  557  1  0.24380300  0.12003000  0.62196600  1
  C  558  1  0.27693800  0.12509000  0.60168500  1
  C  559  1  0.31254100  0.11742000  0.61939200  1
  C  560  1  0.28154400  0.07332000  0.71612700  1
  C  562  1  0.34693900  0.12819600  0.59988700  1
  C  571  1  0.51182000  0.66788300  0.09578500  1
  C  572  1  0.51294400  0.62942000  0.11390100  1
  C  573  1  0.54824700  0.61150500  0.12289000  1
  C  574  1  0.58174200  0.63200400  0.11624000  1
  C  575  1  0.58103500  0.66986400  0.09950200  1
  C  576  1  0.54609900  0.68824900  0.08802400  1
  C  577  1  0.47845800  0.60983100  0.12374300  1
  C  578  1  0.54407100  0.72629500  0.07000100  1
  C  580  1  0.47632200  0.68599700  0.08639500  1
  C  581  1  0.44205200  0.66564300  0.09858900  1
  C  582  1  0.40706300  0.68372000  0.09217400  1
  C  583  1  0.40617200  0.72160000  0.07031000  1
  C  584  1  0.43949400  0.74203100  0.05572300  1
  C  585  1  0.47502900  0.72442400  0.06619700  1
  C  586  1  0.44376400  0.62757400  0.11747700  1
  C  588  1  0.50939300  0.74402000  0.05826900  1
  C  597  1  0.18003200  0.09227100  0.25383400  1
  C  598  1  0.18207700  0.11059400  0.27396200  1
  C  599  1  0.21781300  0.11883800  0.28328700  1
  C  600  1  0.25091200  0.11130300  0.26996900  1
  C  601  1  0.24932800  0.09436000  0.24905100  1
  C  602  1  0.21387500  0.08357200  0.24181700  1
  C  603  1  0.14809000  0.12134900  0.28311700  1
  C  604  1  0.21095200  0.06525800  0.22209800  1
  C  606  1  0.14409200  0.08354000  0.24480100  1
  C  607  1  0.11039900  0.09656300  0.25243100  1
  C  608  1  0.07505100  0.09063000  0.24058500  1
  C  609  1  0.07312100  0.06846600  0.22492200  1
  C  610  1  0.10581000  0.05312200  0.21958400  1
  C  611  1  0.14181800  0.06304900  0.22690200  1
  C  612  1  0.11305600  0.11569800  0.27134400  1
  C  614  1  0.17574800  0.05419100  0.21581400  1
  C  623  1  0.84838400  0.24938300  0.67319710  1
  C  624  1  0.84943700  0.26914100  0.63469910  1
  C  625  1  0.88468900  0.27796900  0.61626300  1
  C  626  1  0.91820100  0.26472300  0.63635210  1
  C  627  1  0.91759100  0.24430500  0.67427610  1
  C  628  1  0.88269100  0.23733700  0.69310110  1
  C  629  1  0.81491600  0.27837700  0.61561100  1
  C  630  1  0.88073800  0.21781900  0.73119110  1
  C  632  1  0.81293300  0.24067800  0.69182410  1
  C  633  1  0.77860700  0.24832900  0.67199810  1
  C  634  1  0.74362600  0.23664100  0.69061210  1
  C  635  1  0.74282700  0.22110000  0.72844810  1
  C  636  1  0.77622500  0.21576300  0.74834210  1
  C  637  1  0.81171600  0.22294200  0.73025410  1
  C  638  1  0.78023300  0.26700200  0.63390410  1
  C  640  1  0.84611100  0.21173800  0.74936910  1
  C  649  1  0.16716700  0.62308700  0.25739300  1
  C  650  1  0.20346100  0.62677100  0.26884400  1
  C  651  1  0.23584100  0.62563600  0.25037300  1
  C  652  1  0.23302000  0.62102200  0.21982700  1
  C  653  1  0.19668500  0.61277800  0.21124700  1
  C  654  1  0.16424500  0.61461700  0.22950600  1
  C  656  1  0.26415600  0.62780800  0.19535600  1
  C  657  1  0.29502600  0.65047500  0.19244300  1
  C  658  1  0.32148500  0.66236000  0.16426600  1
  C  659  1  0.31810100  0.65218600  0.13767500  1
  C  660  1  0.28777700  0.62941700  0.14024300  1
  C  661  1  0.26114600  0.61711400  0.16878200  1
  C  666  1  0.22868900  0.59390200  0.17075000  1
  C  667  1  0.19168500  0.60657700  0.18018200  1
  C  672  1  0.34214600  0.66718900  0.10818600  1
  C  673  1  0.13542400  0.63172100  0.27028010  1
  C  677  1  0.83617100  0.25522900  0.13980300  1
  C  678  1  0.87246800  0.26749200  0.12484600  1
  C  679  1  0.90488700  0.24928300  0.14425800  1
  C  680  1  0.90210900  0.21807400  0.17898500  1
  C  681  1  0.86573000  0.20849200  0.19571400  1
  C  682  1  0.83327600  0.22658900  0.17583100  1
  C  684  1  0.93327200  0.19382700  0.19614400  1
  C  685  1  0.96421400  0.19206400  0.17601900  1
  C  686  1  0.99058200  0.16406500  0.19158900  1
  C  687  1  0.98701500  0.13645600  0.22797000  1
  C  688  1  0.95665800  0.13793500  0.24855400  1
  C  689  1  0.93014100  0.16629800  0.23307100  1
  C  694  1  0.89767600  0.16708000  0.25472600  1
  C  695  1  0.86070100  0.17664500  0.23253600  1
  C  700  1  0.01075400  0.10703700  0.24167200  1
  C  701  1  0.80444100  0.26791500  0.11827000  1
  C  705  1  0.50614200  0.13062500  0.62761100  1
  C  706  1  0.54186400  0.11413400  0.63468100  1
  C  707  1  0.57438300  0.13326900  0.63464400  1
  C  708  1  0.57219300  0.16923800  0.62786700  1
  C  709  1  0.53685900  0.18720400  0.61616600  1
  C  710  1  0.50419600  0.16761100  0.61692900  1
  C  712  1  0.60267800  0.18682600  0.63573700  1
  C  713  1  0.63112600  0.16688200  0.66120100  1
  C  714  1  0.65675000  0.18358400  0.67339100  1
  C  715  1  0.65486900  0.22096500  0.66071000  1
  C  716  1  0.62684500  0.24133400  0.63534700  1
  C  717  1  0.60103400  0.22463500  0.62280500  1
  C  722  1  0.57096000  0.24608800  0.59672500  1
  C  723  1  0.53274000  0.22532900  0.60754300  1
  C  728  1  0.67862300  0.23620500  0.67510710  1
  C  729  1  0.47366800  0.10977700  0.63614200  1
  C  733  1  0.66773000  0.71707400  0.09147000  1
  C  734  1  0.70395900  0.71369100  0.07981600  1
  C  735  1  0.73637500  0.71455200  0.09841100  1
  C  736  1  0.73364000  0.71840300  0.12941100  1
  C  737  1  0.69743400  0.72626200  0.13834100  1
  C  738  1  0.66496300  0.72479600  0.11987100  1
  C  740  1  0.76463000  0.71104400  0.15404300  1
  C  741  1  0.79504800  0.68855300  0.15646600  1
  C  742  1  0.82128700  0.67613600  0.18468200  1
  C  743  1  0.81810000  0.68554400  0.21183200  1
  C  744  1  0.78818500  0.70808200  0.20979510  1
  C  745  1  0.76177900  0.72092200  0.18122110  1
  C  750  1  0.72978600  0.74393100  0.17977510  1
  C  751  1  0.69254000  0.73168400  0.16989410  1
  C  756  1  0.84200800  0.67019000  0.24120210  1
  C  757  1  0.63585900  0.70855000  0.07845600  1
  C  761  1  0.33537900  0.08436900  0.21106400  1
  C  762  1  0.37140900  0.07279100  0.22646100  1
  C  763  1  0.40413700  0.09100500  0.20699100  1
  C  764  1  0.40193100  0.12142700  0.17172600  1
  C  765  1  0.36587200  0.13007000  0.15465700  1
  C  766  1  0.33308200  0.11206100  0.17460500  1
  C  768  1  0.43334400  0.14581700  0.15419800  1
  C  769  1  0.46384800  0.14876000  0.17411400  1
  C  770  1  0.49043400  0.17698300  0.15797400  1
  C  771  1  0.48754300  0.20360600  0.12120500  1
  C  772  1  0.45764400  0.20094900  0.10082700  1
  C  773  1  0.43090800  0.17235800  0.11690000  1
  C  778  1  0.39887800  0.17033500  0.09546600  1
  C  779  1  0.36148400  0.16103000  0.11729000  1
  C  784  1  0.51153200  0.23324800  0.10685200  1
  C  785  1  0.30330400  0.07203700  0.23245800  1
  C  789  1  0.00438000  0.20663600  0.72049010  1
  C  790  1  0.04062200  0.22196000  0.71714510  1
  C  791  1  0.07311300  0.20264100  0.71837410  1
  C  792  1  0.07047000  0.16760700  0.72261200  1
  C  793  1  0.03414900  0.15060100  0.73033300  1
  C  794  1  0.00162100  0.17039700  0.72849600  1
  C  796  1  0.10176700  0.15027700  0.71586600  1
  C  797  1  0.13273900  0.17030800  0.69360800  1
  C  798  1  0.15937600  0.15436500  0.68172900  1
  C  799  1  0.15605400  0.11769300  0.69147300  1
  C  800  1  0.12562600  0.09722100  0.71384300  1
  C  801  1  0.09882500  0.11309200  0.72615200  1
  C  806  1  0.06630000  0.09153200  0.74895400  1
  C  807  1  0.02929400  0.11346200  0.73608700  1
  C  812  1  0.18015600  0.10351800  0.67640700  1
  C  813  1  0.97254500  0.22789400  0.71196610  1
  C  817  1  0.10255400  0.97576000  0.20780400  1
  C  818  1  0.06467600  0.96595700  0.20645100  1
  C  819  1  0.05618000  0.93923400  0.19749800  1
  C  820  1  0.08513100  0.92138000  0.18964100  1
  C  821  1  0.12315300  0.93351700  0.18817900  1
  C  822  1  0.13158100  0.95955100  0.19836100  1
  C  824  1  0.07799900  0.89056800  0.18513000  1
  C  825  1  0.04572000  0.86794300  0.20003300  1
  C  826  1  0.04233100  0.83495600  0.20050200  1
  C  827  1  0.07125100  0.82289400  0.18634000  1
  C  828  1  0.10296400  0.84582600  0.17034800  1
  C  829  1  0.10662500  0.87904200  0.16979500  1
  C  834  1  0.14120400  0.90175300  0.15445800  1
  C  835  1  0.15476100  0.91675900  0.17886100  1
  C  840  1  0.07075600  0.78852800  0.19027810  1
  C  841  1  0.11144000  0.99755597  0.22200003  1
  C  845  1  0.77586500  0.20260800  0.83815600  1
  C  846  1  0.73792600  0.19932000  0.84968200  1
  C  847  1  0.72932600  0.19009300  0.88538200  1
  C  848  1  0.75823100  0.18389300  0.91079300  1
  C  849  1  0.79645000  0.18438800  0.89980000  1
  C  850  1  0.80491300  0.19481400  0.86355500  1
  C  852  1  0.75076200  0.17928400  0.94606900  1
  C  853  1  0.71767700  0.19268100  0.95390500  1
  C  854  1  0.71378200  0.19329300  0.98628700  1
  C  855  1  0.74297200  0.18079000  0.01224600  1
  C  856  1  0.77554900  0.16629600  0.00520700  1
  C  857  1  0.77972600  0.16563000  0.97266700  1
  C  862  1  0.81514000  0.15195500  0.96514000  1
  C  863  1  0.82808300  0.17680800  0.92557900  1
  C  868  1  0.74191500  0.18517400  0.04238100  1
  C  869  1  0.78464900  0.21693800  0.80209700  1
  C  873  1  0.43907600  0.83200500  0.97942200  1
  C  874  1  0.40124900  0.84333900  0.97092200  1
  C  875  1  0.39302100  0.87906000  0.94452900  1
  C  876  1  0.42219100  0.90468800  0.92575400  1
  C  877  1  0.46026600  0.89387400  0.93662900  1
  C  878  1  0.46837200  0.85760400  0.96230500  1
  C  880  1  0.41514900  0.94003400  0.89517500  1
  C  881  1  0.38229300  0.94784000  0.87357600  1
  C  882  1  0.37887500  0.98030000  0.84061900  1
  C  883  1  0.40833300  0.00635900  0.82758500  1
  C  884  1  0.44062900  0.99938997  0.84952903  1
  C  885  1  0.44431500  0.96678600  0.88270200  1
  C  890  1  0.47948200  0.95930700  0.90431400  1
  C  891  1  0.49216000  0.91985700  0.91889200  1
  C  896  1  0.40779000  0.03656900  0.79310700  1
  C  897  1  0.44753800  0.79596200  0.00091300  1
  C  901  1  0.60438100  0.36472600  0.14117400  1
  C  902  1  0.56636500  0.37349800  0.14292800  1
  C  903  1  0.55743900  0.39995500  0.15200500  1
  C  904  1  0.58608800  0.41860300  0.15956500  1
  C  905  1  0.62427600  0.40757500  0.16054800  1
  C  906  1  0.63312100  0.38178400  0.15026700  1
  C  908  1  0.57847100  0.44918000  0.16420300  1
  C  909  1  0.54596100  0.47092500  0.14964600  1
  C  910  1  0.54209000  0.50377400  0.14929000  1
  C  911  1  0.57074200  0.51656600  0.16322800  1
  C  912  1  0.60271200  0.49452300  0.17884300  1
  C  913  1  0.60686500  0.46146500  0.17925900  1
  C  918  1  0.64170200  0.43972600  0.19418400  1
  C  919  1  0.65559000  0.42518500  0.16956500  1
  C  924  1  0.56984500  0.55091000  0.15928300  1
  C  925  1  0.61365800  0.34307800  0.12698200  1
  C  929  1  0.27482200  0.13748000  0.51226400  1
  C  930  1  0.23685100  0.13855500  0.50169600  1
  C  931  1  0.22806400  0.14742700  0.46616400  1
  C  932  1  0.25680000  0.15552200  0.43999400  1
  C  933  1  0.29490400  0.15731900  0.45005200  1
  C  934  1  0.30363500  0.14718100  0.48613900  1
  C  936  1  0.24937000  0.15991300  0.40481300  1
  C  937  1  0.21704100  0.14469400  0.39766400  1
  C  938  1  0.21338600  0.14410800  0.36524900  1
  C  939  1  0.24208200  0.15844800  0.33855000  1
  C  940  1  0.27383800  0.17475500  0.34493200  1
  C  941  1  0.27775900  0.17544400  0.37748500  1
  C  946  1  0.31236300  0.19114000  0.38425000  1
  C  947  1  0.32628300  0.16694200  0.42344900  1
  C  952  1  0.24137500  0.15432800  0.30822000  1
  C  953  1  0.28395200  0.12335000  0.54813300  1
  C  957  1  0.93792100  0.50594900  0.36921300  1
  C  958  1  0.90018200  0.49340400  0.37701400  1
  C  959  1  0.89210600  0.45743400  0.40329600  1
  C  960  1  0.92135200  0.43277500  0.42272000  1
  C  961  1  0.95949100  0.44481600  0.41261700  1
  C  962  1  0.96737300  0.48130800  0.38700400  1
  C  964  1  0.91423900  0.39726800  0.45327300  1
  C  965  1  0.88068700  0.38850900  0.47429100  1
  C  966  1  0.87701800  0.35607200  0.50731700  1
  C  967  1  0.90689500  0.33100800  0.52095700  1
  C  968  1  0.93994500  0.33888100  0.49962400  1
  C  969  1  0.94390200  0.37149600  0.46641300  1
  C  974  1  0.97982400  0.38004300  0.44549400  1
  C  975  1  0.99154200  0.41990200  0.43105100  1
  C  980  1  0.90599200  0.30102600  0.55553100  1
  C  981  1  0.94605500  0.54223400  0.34780000  1
  N  23  1  0.11243000  0.98161700  0.57413400  1
  N  24  1  0.05073100  0.08989100  0.54207300  1
  N  25  1  0.93378600  0.88781000  0.64242400  1
  N  26  1  0.87766600  0.99758800  0.56267900  1
  N  49  1  0.78176500  0.57159100  0.44521500  1
  N  50  1  0.72151700  0.53679600  0.37001300  1
  N  51  1  0.60154400  0.63747200  0.46832000  1
  N  52  1  0.54713800  0.55520700  0.43987300  1
  N  75  1  0.45086800  0.43812600  0.98593000  1
  N  76  1  0.38784700  0.36410300  0.09489400  1
  N  77  1  0.27186800  0.46462400  0.89369200  1
  N  78  1  0.21582200  0.43638000  0.00355700  1
  N  101  1  0.61277000  0.01233900  0.42878900  1
  N  102  1  0.55036000  0.90346700  0.46134300  1
  N  103  1  0.43472400  0.10435200  0.36045300  1
  N  104  1  0.37782000  0.99417400  0.44083100  1
  N  127  1  0.28091600  0.42290100  0.55895500  1
  N  128  1  0.22048700  0.45727500  0.63424400  1
  N  129  1  0.10015400  0.35750400  0.53436500  1
  N  130  1  0.04642200  0.43954100  0.56283000  1
  N  153  1  0.94928200  0.55428800  0.01646800  1
  N  154  1  0.88676900  0.62835000  0.90807700  1
  N  155  1  0.77147200  0.53033000  0.11068900  1
  N  156  1  0.71428500  0.55837300  0.00168100  1
  N  515  1  0.11243000  0.65450200  0.24699910  1
  N  516  1  0.05073100  0.76277600  0.21493810  1
  N  517  1  0.93378600  0.56069500  0.31528900  1
  N  518  1  0.87766600  0.67047300  0.23554410  1
  N  541  1  0.78176500  0.24447600  0.11808000  1
  N  542  1  0.72151700  0.20968100  0.04287800  1
  N  543  1  0.60154400  0.31035700  0.14118500  1
  N  544  1  0.54713800  0.22809200  0.11273800  1
  N  567  1  0.45086800  0.11101100  0.65879500  1
  N  568  1  0.38784700  0.03698800  0.76775900  1
  N  569  1  0.27186800  0.13750900  0.56655700  1
  N  570  1  0.21582200  0.10926500  0.67642200  1
  N  593  1  0.61277000  0.68522400  0.10165400  1
  N  594  1  0.55036000  0.57635200  0.13420800  1
  N  595  1  0.43472400  0.77723700  0.03331800  1
  N  596  1  0.37782000  0.66705900  0.11369600  1
  N  619  1  0.28091600  0.09578600  0.23182000  1
  N  620  1  0.22048700  0.13016000  0.30710900  1
  N  621  1  0.10015400  0.03038900  0.20723000  1
  N  622  1  0.04642200  0.11242600  0.23569500  1
  N  645  1  0.94928200  0.22717300  0.68933310  1
  N  646  1  0.88676900  0.30123500  0.58094200  1
  N  647  1  0.77147200  0.20321500  0.78355410  1
  N  648  1  0.71428500  0.23125800  0.67454610  1
