# generated using pymatgen
data_H36C53N8
_symmetry_space_group_name_H-M   'P 1'
_cell_length_a   74.60640000
_cell_length_b   74.78110000
_cell_length_c   100.83200000
_cell_angle_alpha   90.00000000
_cell_angle_beta   90.00000000
_cell_angle_gamma   90.00000000
_symmetry_Int_Tables_number   1
_chemical_formula_structural   H36C53N8
_chemical_formula_sum   'H1152 C1696 N256'
_cell_volume   562556.71758832
_cell_formula_units_Z   32
loop_
 _symmetry_equiv_pos_site_id
 _symmetry_equiv_pos_as_xyz
  1  'x, y, z'
loop_
 _atom_site_type_symbol
 _atom_site_label
 _atom_site_symmetry_multiplicity
 _atom_site_fract_x
 _atom_site_fract_y
 _atom_site_fract_z
 _atom_site_occupancy
  H  25  1  0.37934600  0.86529600  0.91353500  1
  H  26  1  0.37125200  0.84430100  0.93034200  1
  H  27  1  0.36457900  0.82695600  0.95126400  1
  H  28  1  0.36002400  0.81628500  0.97337100  1
  H  29  1  0.39435500  0.85686700  0.98845400  1
  H  30  1  0.40690600  0.89684100  0.94205900  1
  H  31  1  0.42654700  0.85067600  0.95731100  1
  H  32  1  0.46671600  0.87995100  0.97762100  1
  H  33  1  0.44430200  0.90173400  0.98418100  1
  H  34  1  0.36484500  0.89062600  0.96682900  1
  H  35  1  0.41452500  0.92079000  0.98879100  1
  H  36  1  0.38481400  0.93306700  0.99040400  1
  H  42  1  0.41025300  0.90213300  0.91743100  1
  H  43  1  0.38134400  0.83417300  0.00343600  1
  H  44  1  0.34476100  0.90915300  0.98004400  1
  H  45  1  0.45481900  0.83820600  0.95896100  1
  H  70  1  0.20578500  0.13083600  0.41353500  1
  H  71  1  0.21391500  0.15181400  0.43033900  1
  H  72  1  0.22060000  0.16915500  0.45127000  1
  H  73  1  0.22512100  0.17984100  0.47337700  1
  H  74  1  0.19079900  0.13924100  0.48844800  1
  H  75  1  0.17822500  0.09928700  0.44205600  1
  H  76  1  0.15862300  0.14544200  0.45731300  1
  H  77  1  0.11845100  0.11616600  0.47762200  1
  H  78  1  0.14086600  0.09438300  0.48418200  1
  H  79  1  0.22032000  0.10549100  0.46681900  1
  H  80  1  0.17064900  0.07532900  0.48879700  1
  H  81  1  0.20036000  0.06304900  0.49040300  1
  H  87  1  0.17489500  0.09399200  0.41736000  1
  H  88  1  0.20389900  0.16191800  0.50346100  1
  H  89  1  0.24040800  0.08695700  0.48004600  1
  H  90  1  0.13034800  0.15791200  0.45895900  1
  H  115  1  0.42567300  0.08465100  0.16353200  1
  H  116  1  0.44669500  0.07654000  0.18034100  1
  H  117  1  0.46408000  0.06988500  0.20127600  1
  H  118  1  0.47479400  0.06540700  0.22338700  1
  H  119  1  0.43407700  0.09963600  0.23843900  1
  H  120  1  0.39404400  0.11215100  0.19204900  1
  H  121  1  0.44030900  0.13170700  0.20731200  1
  H  122  1  0.41096800  0.17178100  0.22762700  1
  H  123  1  0.38913400  0.14942000  0.23418700  1
  H  124  1  0.40025900  0.07015600  0.21682000  1
  H  125  1  0.37003500  0.11971300  0.23880000  1
  H  126  1  0.35772700  0.09007600  0.24040600  1
  H  132  1  0.38872800  0.11547600  0.16734400  1
  H  133  1  0.45674900  0.08641800  0.25345800  1
  H  134  1  0.38166400  0.05010100  0.22999400  1
  H  135  1  0.45280800  0.15992800  0.20896000  1
  H  160  1  0.15951200  0.91149700  0.66353800  1
  H  161  1  0.13846700  0.91957000  0.68034200  1
  H  162  1  0.12108800  0.92624200  0.70126900  1
  H  163  1  0.11038000  0.93076200  0.72337800  1
  H  164  1  0.15107300  0.89652000  0.73845100  1
  H  165  1  0.19113100  0.88399600  0.69205800  1
  H  166  1  0.14485600  0.86440900  0.70731300  1
  H  167  1  0.17419800  0.82433500  0.72762500  1
  H  168  1  0.19603300  0.84669600  0.73418500  1
  H  169  1  0.18490800  0.92596800  0.71682100  1
  H  170  1  0.21513600  0.87640600  0.73879600  1
  H  171  1  0.22745500  0.90604700  0.74039600  1
  H  177  1  0.19642200  0.88066600  0.66744300  1
  H  178  1  0.12834500  0.90958200  0.75345600  1
  H  179  1  0.20347900  0.94599800  0.73005100  1
  H  180  1  0.13235100  0.83619900  0.70897100  1
  H  205  1  0.20484300  0.86598300  0.55212800  1
  H  206  1  0.21400700  0.84464400  0.53529900  1
  H  207  1  0.22065900  0.82681600  0.51392600  1
  H  208  1  0.22520300  0.81623900  0.49178700  1
  H  209  1  0.19085800  0.85683900  0.47675900  1
  H  210  1  0.17790400  0.89614100  0.52250700  1
  H  211  1  0.15866300  0.85066000  0.50783600  1
  H  212  1  0.11851800  0.88000100  0.48757000  1
  H  213  1  0.14095000  0.90178000  0.48103000  1
  H  214  1  0.22039500  0.89046800  0.49837200  1
  H  215  1  0.17088200  0.92088500  0.47643300  1
  H  216  1  0.20070300  0.93300400  0.47476800  1
  H  222  1  0.17807100  0.90689200  0.54388500  1
  H  223  1  0.20394800  0.83415700  0.46175600  1
  H  224  1  0.24079400  0.90920000  0.48594200  1
  H  225  1  0.13036900  0.83824000  0.50623200  1
  H  250  1  0.38032900  0.13013800  0.05211900  1
  H  251  1  0.37116000  0.15148200  0.03529700  1
  H  252  1  0.36450200  0.16933600  0.01391900  1
  H  253  1  0.35996900  0.17991300  0.99177200  1
  H  254  1  0.39429700  0.13928900  0.97676100  1
  H  255  1  0.40726300  0.09998400  0.02249500  1
  H  256  1  0.42650800  0.14546500  0.00783700  1
  H  257  1  0.46665000  0.11611800  0.98756900  1
  H  258  1  0.44421700  0.09434300  0.98102800  1
  H  259  1  0.36477600  0.10565900  0.99836900  1
  H  260  1  0.41429300  0.07524200  0.97643100  1
  H  261  1  0.38447600  0.06311800  0.97477000  1
  H  267  1  0.40709000  0.08922800  0.04389700  1
  H  268  1  0.38130200  0.16190000  0.96174200  1
  H  269  1  0.34436900  0.08688800  0.98601900  1
  H  270  1  0.45479800  0.15788300  0.00622600  1
  H  295  1  0.16019700  0.08560700  0.30212900  1
  H  296  1  0.13881000  0.07645000  0.28530200  1
  H  297  1  0.12092200  0.06980100  0.26391500  1
  H  298  1  0.11030000  0.06532000  0.24176500  1
  H  299  1  0.15104200  0.09955200  0.22677100  1
  H  300  1  0.19042100  0.11247600  0.27250500  1
  H  301  1  0.14483500  0.13166200  0.25783800  1
  H  302  1  0.17425200  0.17171200  0.23757200  1
  H  303  1  0.19608000  0.14933400  0.23103400  1
  H  304  1  0.18474600  0.07007400  0.24836800  1
  H  305  1  0.21522700  0.11948000  0.22643300  1
  H  306  1  0.22738000  0.08973100  0.22476700  1
  H  312  1  0.20121200  0.11228600  0.29388400  1
  H  313  1  0.12836000  0.08644600  0.21172600  1
  H  314  1  0.20351700  0.04973000  0.23594600  1
  H  315  1  0.13238800  0.15991200  0.25623200  1
  H  340  1  0.42496900  0.91052500  0.80212600  1
  H  341  1  0.44636700  0.91966700  0.78530200  1
  H  342  1  0.46426300  0.92630900  0.76392200  1
  H  343  1  0.47485500  0.93085000  0.74177700  1
  H  344  1  0.43415200  0.89659700  0.72676100  1
  H  345  1  0.39475300  0.88365300  0.77249900  1
  H  346  1  0.44033800  0.86444700  0.75783500  1
  H  347  1  0.41091800  0.82439900  0.73757100  1
  H  348  1  0.38909100  0.84678200  0.73103300  1
  H  349  1  0.40043800  0.92603700  0.74836900  1
  H  350  1  0.36995100  0.87663400  0.72643300  1
  H  351  1  0.35779800  0.90638200  0.72477200  1
  H  357  1  0.38396200  0.88383100  0.79387300  1
  H  358  1  0.45688700  0.90949800  0.71173600  1
  H  359  1  0.38162000  0.94639700  0.73602000  1
  H  360  1  0.45278700  0.83621600  0.75622200  1
  H  385  1  0.70464900  0.13083100  0.05171700  1
  H  386  1  0.71279000  0.15184600  0.03492900  1
  H  387  1  0.71947700  0.16926200  0.01393000  1
  H  388  1  0.72395300  0.17989700  0.99181100  1
  H  389  1  0.68970200  0.13920800  0.97678500  1
  H  390  1  0.67715800  0.09931500  0.02314200  1
  H  391  1  0.65651500  0.14551900  0.00765700  1
  H  392  1  0.61866000  0.11391900  0.98647500  1
  H  393  1  0.64147600  0.09324000  0.98062100  1
  H  394  1  0.71959500  0.10540500  0.99841600  1
  H  395  1  0.66984300  0.07533300  0.97642600  1
  H  396  1  0.69947500  0.06298200  0.97478200  1
  H  402  1  0.67375300  0.09398000  0.04777100  1
  H  403  1  0.70282900  0.16193100  0.96174200  1
  H  404  1  0.73951700  0.08688300  0.98510700  1
  H  405  1  0.62418900  0.15472900  0.00673900  1
  H  430  1  0.88055600  0.86527500  0.55171300  1
  H  431  1  0.87238500  0.84426900  0.53493000  1
  H  432  1  0.86568200  0.82685200  0.51393600  1
  H  433  1  0.86118500  0.81620500  0.49180900  1
  H  434  1  0.89543800  0.85688500  0.47678600  1
  H  435  1  0.90804400  0.89678800  0.52313700  1
  H  436  1  0.92865600  0.85059300  0.50765100  1
  H  437  1  0.96650700  0.88219900  0.48647100  1
  H  438  1  0.94369000  0.90287900  0.48062200  1
  H  439  1  0.86557500  0.89070600  0.49842200  1
  H  440  1  0.91531800  0.92078200  0.47642800  1
  H  441  1  0.88569000  0.93313700  0.47478900  1
  H  447  1  0.91143500  0.90213000  0.54783600  1
  H  448  1  0.88244300  0.83420100  0.46174800  1
  H  449  1  0.84564900  0.90924400  0.48510900  1
  H  450  1  0.96098900  0.84141200  0.50676600  1
  H  475  1  0.66038000  0.91155500  0.80139000  1
  H  476  1  0.63927800  0.91974700  0.78462600  1
  H  477  1  0.62099100  0.92620000  0.76286300  1
  H  478  1  0.60939400  0.92897400  0.74062000  1
  H  479  1  0.65160100  0.89619300  0.72649400  1
  H  480  1  0.69178100  0.88417500  0.77280100  1
  H  481  1  0.64585600  0.86445200  0.75782800  1
  H  482  1  0.67540100  0.82441400  0.73762700  1
  H  483  1  0.69717500  0.84683400  0.73107700  1
  H  484  1  0.68589200  0.92608000  0.74828300  1
  H  485  1  0.71620300  0.87641100  0.72650900  1
  H  486  1  0.72855800  0.90602100  0.72487800  1
  H  492  1  0.69739200  0.88079300  0.79756700  1
  H  493  1  0.63296500  0.91182400  0.71123900  1
  H  494  1  0.70459500  0.94605400  0.73521800  1
  H  495  1  0.63351000  0.83619100  0.75625900  1
  H  520  1  0.92477500  0.08453700  0.30138400  1
  H  521  1  0.94589500  0.07637600  0.28462300  1
  H  522  1  0.96418000  0.06991800  0.26285900  1
  H  523  1  0.97577400  0.06713500  0.24061600  1
  H  524  1  0.93356900  0.09991900  0.22648600  1
  H  525  1  0.89337900  0.11191800  0.27279400  1
  H  526  1  0.93931600  0.13166300  0.25782600  1
  H  527  1  0.90977100  0.17170200  0.23763000  1
  H  528  1  0.88799400  0.14928500  0.23108000  1
  H  529  1  0.89927200  0.07003200  0.24828200  1
  H  530  1  0.86896000  0.11970700  0.22651000  1
  H  531  1  0.85659400  0.09009200  0.22488500  1
  H  537  1  0.88779800  0.11530600  0.29747500  1
  H  538  1  0.95220500  0.08429500  0.21123000  1
  H  539  1  0.88059800  0.05008300  0.23515900  1
  H  540  1  0.95166300  0.15993300  0.25625800  1
  H  565  1  0.88126900  0.13024000  0.41315400  1
  H  566  1  0.87227500  0.15163300  0.42994000  1
  H  567  1  0.86562800  0.16944100  0.45128700  1
  H  568  1  0.86107400  0.17997100  0.47344100  1
  H  569  1  0.89535900  0.13929700  0.48843900  1
  H  570  1  0.90828000  0.09995500  0.44268300  1
  H  571  1  0.92861600  0.14554300  0.45759800  1
  H  572  1  0.96645600  0.11386900  0.47871400  1
  H  573  1  0.94361900  0.09319100  0.48455100  1
  H  574  1  0.86550600  0.10558800  0.46678800  1
  H  575  1  0.91509500  0.07523200  0.48872700  1
  H  576  1  0.88534500  0.06304500  0.49042700  1
  H  582  1  0.90836100  0.08950800  0.42092900  1
  H  583  1  0.88249300  0.16199700  0.50344500  1
  H  584  1  0.84526100  0.08683400  0.47928100  1
  H  585  1  0.96096300  0.15467700  0.45843600  1
  H  610  1  0.70389800  0.86587900  0.91315500  1
  H  611  1  0.71289600  0.84448400  0.92993800  1
  H  612  1  0.71954700  0.82665800  0.95128600  1
  H  613  1  0.72409500  0.81612800  0.97344700  1
  H  614  1  0.68982200  0.85681400  0.98843100  1
  H  615  1  0.67689000  0.89616200  0.94268700  1
  H  616  1  0.65655100  0.85057800  0.95759000  1
  H  617  1  0.61871200  0.88224900  0.97870700  1
  H  618  1  0.64155100  0.90292300  0.98455000  1
  H  619  1  0.71965800  0.89052700  0.96678600  1
  H  620  1  0.67006600  0.92088100  0.98872500  1
  H  621  1  0.69981300  0.93307200  0.99042200  1
  H  627  1  0.67681500  0.90661500  0.92091900  1
  H  628  1  0.70263400  0.83414800  0.00350800  1
  H  629  1  0.73991400  0.90931500  0.97920100  1
  H  630  1  0.62421500  0.84142100  0.95846200  1
  H  655  1  0.92515900  0.91159900  0.66404800  1
  H  656  1  0.94592300  0.92020500  0.68089000  1
  H  657  1  0.96425000  0.92618200  0.70240500  1
  H  658  1  0.97580900  0.92903500  0.72465500  1
  H  659  1  0.93363200  0.89617900  0.73880300  1
  H  660  1  0.89394100  0.88347000  0.69244400  1
  H  661  1  0.93935500  0.86437200  0.70741600  1
  H  662  1  0.90974800  0.82434300  0.72757500  1
  H  663  1  0.88795300  0.84677000  0.73411300  1
  H  664  1  0.89999800  0.92585500  0.71675600  1
  H  665  1  0.86885900  0.87676100  0.73864900  1
  H  666  1  0.85711400  0.90665400  0.74037200  1
  H  672  1  0.88323800  0.88833900  0.66818900  1
  H  673  1  0.95223500  0.91184600  0.75402600  1
  H  674  1  0.88196100  0.94639900  0.72910300  1
  H  675  1  0.95166500  0.83612800  0.70893300  1
  H  700  1  0.66001200  0.08448600  0.16405200  1
  H  701  1  0.63923800  0.07591000  0.18089300  1
  H  702  1  0.62091600  0.06993600  0.20241200  1
  H  703  1  0.60936200  0.06708700  0.22466100  1
  H  704  1  0.65153700  0.09994500  0.23880200  1
  H  705  1  0.69124900  0.11261700  0.19243500  1
  H  706  1  0.64581200  0.13175300  0.20741600  1
  H  707  1  0.67541800  0.17178100  0.22757700  1
  H  708  1  0.69721200  0.14935300  0.23411300  1
  H  709  1  0.68516700  0.07027300  0.21675400  1
  H  710  1  0.71630500  0.11936200  0.23865000  1
  H  711  1  0.72804600  0.08947100  0.24037400  1
  H  717  1  0.70194100  0.10770400  0.16811400  1
  H  718  1  0.63294300  0.08426000  0.25402900  1
  H  719  1  0.70323900  0.04971100  0.22903000  1
  H  720  1  0.63349700  0.15997900  0.20894300  1
  H  745  1  0.88043500  0.36500800  0.41380700  1
  H  746  1  0.87225500  0.34393800  0.43057000  1
  H  747  1  0.86578600  0.32569600  0.45233300  1
  H  748  1  0.86299600  0.31412700  0.47457600  1
  H  749  1  0.89585600  0.35623300  0.48870700  1
  H  750  1  0.90787700  0.39633300  0.44240200  1
  H  751  1  0.92767100  0.35050200  0.45736700  1
  H  752  1  0.96780500  0.37997800  0.47756200  1
  H  753  1  0.94533600  0.40170600  0.48411200  1
  H  754  1  0.86588800  0.39046900  0.46692600  1
  H  755  1  0.91569400  0.42069000  0.48868400  1
  H  756  1  0.88601500  0.43303200  0.49031700  1
  H  762  1  0.91129100  0.40190100  0.41771700  1
  H  763  1  0.88020200  0.33763900  0.50396300  1
  H  764  1  0.84589300  0.40916300  0.48003900  1
  H  765  1  0.95600900  0.33818400  0.45893700  1
  H  790  1  0.70470100  0.63112000  0.91380500  1
  H  791  1  0.71291400  0.65217700  0.93056500  1
  H  792  1  0.71938500  0.67042200  0.95233000  1
  H  793  1  0.72216900  0.68198900  0.97457400  1
  H  794  1  0.68931100  0.63987800  0.98869900  1
  H  795  1  0.67725800  0.59979600  0.94239700  1
  H  796  1  0.65749600  0.64561600  0.95736400  1
  H  797  1  0.61736100  0.61613800  0.97755800  1
  H  798  1  0.63983300  0.59441200  0.98410800  1
  H  799  1  0.71927800  0.60565000  0.96691200  1
  H  800  1  0.66948000  0.57543000  0.98868400  1
  H  801  1  0.69915700  0.56308500  0.99031200  1
  H  807  1  0.67385900  0.59422500  0.91764500  1
  H  808  1  0.70497000  0.65847900  0.00396100  1
  H  809  1  0.73927600  0.58694800  0.98003700  1
  H  810  1  0.62915800  0.65793300  0.95893200  1
  H  835  1  0.92451300  0.58699200  0.66348500  1
  H  836  1  0.94556400  0.57883500  0.68026700  1
  H  837  1  0.96302500  0.57216300  0.70126500  1
  H  838  1  0.97370000  0.56771000  0.72339400  1
  H  839  1  0.93289700  0.60186700  0.73839800  1
  H  840  1  0.89292000  0.61441600  0.69206600  1
  H  841  1  0.93921600  0.63498100  0.70753100  1
  H  842  1  0.90754200  0.67274900  0.72871100  1
  H  843  1  0.88682100  0.64998400  0.73457400  1
  H  844  1  0.89903200  0.57206100  0.71676400  1
  H  845  1  0.86887100  0.62167800  0.73876500  1
  H  846  1  0.85650400  0.59211600  0.74040600  1
  H  852  1  0.88758400  0.61782200  0.66736100  1
  H  853  1  0.95557200  0.58877400  0.75346900  1
  H  854  1  0.88050000  0.55215900  0.73002100  1
  H  855  1  0.94847000  0.66723100  0.70848000  1
  H  880  1  0.66067100  0.40915500  0.16349300  1
  H  881  1  0.63960100  0.41727600  0.18027200  1
  H  882  1  0.62215200  0.42396400  0.20126400  1
  H  883  1  0.61147400  0.42843200  0.22339200  1
  H  884  1  0.65226600  0.39426800  0.23840900  1
  H  885  1  0.69225800  0.38172900  0.19207600  1
  H  886  1  0.64594900  0.36113700  0.20754000  1
  H  887  1  0.67762700  0.32337000  0.22871700  1
  H  888  1  0.69835300  0.34613400  0.23457200  1
  H  889  1  0.68614000  0.42406300  0.21676700  1
  H  890  1  0.71630300  0.37444300  0.23876600  1
  H  891  1  0.72867900  0.40400800  0.24040300  1
  H  897  1  0.69756500  0.37831900  0.16746200  1
  H  898  1  0.62954800  0.40730700  0.25347600  1
  H  899  1  0.70464300  0.44394000  0.23008100  1
  H  900  1  0.63671900  0.32888800  0.20845600  1
  H  925  1  0.70429900  0.36471800  0.05120500  1
  H  926  1  0.71322000  0.34391600  0.03438200  1
  H  927  1  0.71938600  0.32558100  0.01274000  1
  H  928  1  0.72222600  0.31403800  0.99048700  1
  H  929  1  0.68934400  0.35615100  0.97632200  1
  H  930  1  0.67670200  0.39575100  0.02241800  1
  H  931  1  0.65754700  0.35051200  0.00772900  1
  H  932  1  0.61738000  0.38004400  0.98763100  1
  H  933  1  0.63983500  0.40178700  0.98108100  1
  H  934  1  0.71931000  0.39030600  0.99822800  1
  H  935  1  0.66970500  0.42087500  0.97651200  1
  H  936  1  0.69951300  0.43302800  0.97484600  1
  H  942  1  0.67669300  0.40531900  0.04580200  1
  H  943  1  0.70501500  0.33758400  0.96111000  1
  H  944  1  0.73965700  0.40922000  0.98595100  1
  H  945  1  0.62916700  0.33823600  0.00626100  1
  H  970  1  0.88086800  0.63142500  0.55119500  1
  H  971  1  0.87194500  0.65220900  0.53437000  1
  H  972  1  0.86577800  0.67053700  0.51273400  1
  H  973  1  0.86294200  0.68208500  0.49048600  1
  H  974  1  0.89582900  0.63998000  0.47631900  1
  H  975  1  0.90848000  0.60037700  0.52242300  1
  H  976  1  0.92762800  0.64560700  0.50772500  1
  H  977  1  0.96779400  0.61607800  0.48763000  1
  H  978  1  0.94533700  0.59433600  0.48108000  1
  H  979  1  0.86586700  0.60582000  0.49822300  1
  H  980  1  0.91547000  0.57525200  0.47650900  1
  H  981  1  0.88566700  0.56309700  0.47484900  1
  H  987  1  0.90842100  0.59078900  0.54583400  1
  H  988  1  0.88014500  0.65854200  0.46110600  1
  H  989  1  0.84550800  0.58687100  0.48603200  1
  H  990  1  0.95598500  0.65789100  0.50624200  1
  H  1015  1  0.66041400  0.58737300  0.80152900  1
  H  1016  1  0.63958600  0.57851500  0.78470300  1
  H  1017  1  0.62202000  0.57211600  0.76380500  1
  H  1018  1  0.61140100  0.56757400  0.74166900  1
  H  1019  1  0.65212800  0.60184600  0.72662700  1
  H  1020  1  0.69161200  0.61503800  0.77274300  1
  H  1021  1  0.64588400  0.63505900  0.75757200  1
  H  1022  1  0.67766200  0.67282800  0.73647700  1
  H  1023  1  0.69840000  0.65004200  0.73062200  1
  H  1024  1  0.68538400  0.57228200  0.74854100  1
  H  1025  1  0.71641700  0.62134300  0.72646900  1
  H  1026  1  0.72816700  0.59149200  0.72472800  1
  H  1032  1  0.70111800  0.61494300  0.79603500  1
  H  1033  1  0.62946200  0.58876600  0.71162700  1
  H  1034  1  0.70328600  0.55180900  0.73604500  1
  H  1035  1  0.63672200  0.66726900  0.75673400  1
  H  1060  1  0.92475200  0.40875300  0.30152600  1
  H  1061  1  0.94558800  0.41760400  0.28470300  1
  H  1062  1  0.96316400  0.42399500  0.26381400  1
  H  1063  1  0.97375400  0.42859500  0.24168200  1
  H  1064  1  0.93306600  0.39430300  0.22661800  1
  H  1065  1  0.89355900  0.38109100  0.27273800  1
  H  1066  1  0.93929400  0.36105500  0.25757000  1
  H  1067  1  0.90750800  0.32329100  0.23647300  1
  H  1068  1  0.88676700  0.34607500  0.23062800  1
  H  1069  1  0.89979400  0.42383000  0.24854000  1
  H  1070  1  0.86875500  0.37477200  0.22647500  1
  H  1071  1  0.85700800  0.40462200  0.22473200  1
  H  1077  1  0.88406200  0.38115900  0.29602900  1
  H  1078  1  0.95578400  0.40718400  0.21164600  1
  H  1079  1  0.88185100  0.44432100  0.23612200  1
  H  1080  1  0.94842800  0.32884000  0.25676500  1
  H  1105  1  0.20590100  0.63112300  0.55143500  1
  H  1106  1  0.21412600  0.65221800  0.53469900  1
  H  1107  1  0.22061000  0.67054100  0.51287000  1
  H  1108  1  0.22336000  0.68206800  0.49060800  1
  H  1109  1  0.19057800  0.63987700  0.47653200  1
  H  1110  1  0.17854000  0.59983100  0.52278200  1
  H  1111  1  0.15772500  0.64569800  0.50759500  1
  H  1112  1  0.11991400  0.61388900  0.48654200  1
  H  1113  1  0.14278400  0.59327800  0.48069600  1
  H  1114  1  0.22089800  0.60556700  0.49832000  1
  H  1115  1  0.17102200  0.57543400  0.47654100  1
  H  1116  1  0.20061700  0.56301800  0.47487700  1
  H  1122  1  0.17506700  0.59422300  0.54748300  1
  H  1123  1  0.20615400  0.65847900  0.46124500  1
  H  1124  1  0.24073100  0.58687300  0.48511600  1
  H  1125  1  0.12535100  0.65474100  0.50675300  1
  H  1150  1  0.37930000  0.36498400  0.05143300  1
  H  1151  1  0.37104300  0.34390200  0.03470000  1
  H  1152  1  0.36455700  0.32557700  0.01287000  1
  H  1153  1  0.36179600  0.31405400  0.99060600  1
  H  1154  1  0.39458200  0.35623800  0.97652500  1
  H  1155  1  0.40666400  0.39627400  0.02278300  1
  H  1156  1  0.42744600  0.35041900  0.00759300  1
  H  1157  1  0.46525400  0.38223100  0.98653500  1
  H  1158  1  0.44238300  0.40284400  0.98069400  1
  H  1159  1  0.36427300  0.39054900  0.99833100  1
  H  1160  1  0.41414100  0.42068400  0.97653600  1
  H  1161  1  0.38454800  0.43310100  0.97487800  1
  H  1167  1  0.41012000  0.40188900  0.04755100  1
  H  1168  1  0.37902900  0.33762500  0.96123500  1
  H  1169  1  0.34443700  0.40925400  0.98511500  1
  H  1170  1  0.45982700  0.34139900  0.00678300  1
  H  1195  1  0.15920100  0.40921600  0.30144700  1
  H  1196  1  0.13807100  0.41744600  0.28470700  1
  H  1197  1  0.11970200  0.42391400  0.26287700  1
  H  1198  1  0.10814800  0.42666200  0.24061600  1
  H  1199  1  0.15043500  0.39396200  0.22653600  1
  H  1200  1  0.19056800  0.38191500  0.27280000  1
  H  1201  1  0.14460600  0.36117800  0.25760500  1
  H  1202  1  0.17648600  0.32345500  0.23654800  1
  H  1203  1  0.19714000  0.34627500  0.23069300  1
  H  1204  1  0.18482600  0.42420100  0.24832900  1
  H  1205  1  0.21502400  0.37444300  0.22654100  1
  H  1206  1  0.22747400  0.40396400  0.22488300  1
  H  1212  1  0.19622600  0.37846600  0.29757500  1
  H  1213  1  0.13178300  0.40948200  0.21125000  1
  H  1214  1  0.20359800  0.44400400  0.23517000  1
  H  1215  1  0.13551700  0.32888000  0.25673000  1
  H  1240  1  0.42595500  0.58687700  0.80143900  1
  H  1241  1  0.44710100  0.57867500  0.78470000  1
  H  1242  1  0.46546800  0.57220300  0.76286800  1
  H  1243  1  0.47701900  0.56944600  0.74060800  1
  H  1244  1  0.43473500  0.60215200  0.72652600  1
  H  1245  1  0.39459200  0.61417900  0.77279200  1
  H  1246  1  0.44056700  0.63494100  0.75759500  1
  H  1247  1  0.40868100  0.67266400  0.73654300  1
  H  1248  1  0.38802400  0.64984600  0.73069400  1
  H  1249  1  0.40033800  0.57191300  0.74832500  1
  H  1250  1  0.37014000  0.62167400  0.72653800  1
  H  1251  1  0.35768000  0.59214900  0.72488500  1
  H  1257  1  0.38896300  0.61763000  0.79748200  1
  H  1258  1  0.45338600  0.58663900  0.71123800  1
  H  1259  1  0.38159600  0.55213500  0.73510800  1
  H  1260  1  0.44963200  0.66723900  0.75675300  1
  H  1285  1  0.37924400  0.63151600  0.91400900  1
  H  1286  1  0.37060500  0.65225400  0.93083000  1
  H  1287  1  0.36461800  0.67060200  0.95239300  1
  H  1288  1  0.36178300  0.68210000  0.97465700  1
  H  1289  1  0.39455900  0.63989300  0.98877600  1
  H  1290  1  0.40728800  0.60032000  0.94245500  1
  H  1291  1  0.42740700  0.64566600  0.95766600  1
  H  1292  1  0.46524300  0.61384100  0.97866200  1
  H  1293  1  0.44237800  0.59320300  0.98450200  1
  H  1294  1  0.36425600  0.60571700  0.96687300  1
  H  1295  1  0.41392000  0.57527400  0.98865300  1
  H  1296  1  0.38419000  0.56305400  0.99035800  1
  H  1302  1  0.40250000  0.58967700  0.91810700  1
  H  1303  1  0.37900600  0.65851900  0.00402500  1
  H  1304  1  0.34406000  0.58682500  0.97927000  1
  H  1305  1  0.45979400  0.65468100  0.95842300  1
  H  1330  1  0.20589400  0.36458900  0.41401400  1
  H  1331  1  0.21456900  0.34386800  0.43084000  1
  H  1332  1  0.22055600  0.32551400  0.45240200  1
  H  1333  1  0.22339100  0.31401400  0.47466300  1
  H  1334  1  0.19061000  0.35621400  0.48878900  1
  H  1335  1  0.17784900  0.39576700  0.44247000  1
  H  1336  1  0.15776300  0.35045600  0.45766600  1
  H  1337  1  0.11992200  0.38227800  0.47865800  1
  H  1338  1  0.14278700  0.40291300  0.48450600  1
  H  1339  1  0.22090700  0.39039700  0.46687800  1
  H  1340  1  0.17124100  0.42084400  0.48865600  1
  H  1341  1  0.20097100  0.43306700  0.49035700  1
  H  1347  1  0.18255900  0.40641500  0.41820200  1
  H  1348  1  0.20616900  0.33759700  0.50403300  1
  H  1349  1  0.24111500  0.40932400  0.47919300  1
  H  1350  1  0.12538300  0.34141600  0.45845000  1
  H  1375  1  0.42541500  0.40850500  0.16344000  1
  H  1376  1  0.44689500  0.41756100  0.18017700  1
  H  1377  1  0.46565300  0.42397900  0.20236400  1
  H  1378  1  0.47710900  0.42674100  0.22465500  1
  H  1379  1  0.43479500  0.39403400  0.23868300  1
  H  1380  1  0.39521600  0.38168100  0.19299900  1
  H  1381  1  0.44058700  0.36121800  0.20765700  1
  H  1382  1  0.40863500  0.32350900  0.22865000  1
  H  1383  1  0.38797600  0.34634700  0.23447900  1
  H  1384  1  0.40051800  0.42427200  0.21688500  1
  H  1385  1  0.37003900  0.37466800  0.23861900  1
  H  1386  1  0.35775400  0.40431100  0.24034200  1
  H  1392  1  0.38460100  0.38148500  0.17115700  1
  H  1393  1  0.45342100  0.40948300  0.25399600  1
  H  1394  1  0.38155600  0.44437400  0.22926900  1
  H  1395  1  0.44957900  0.32889900  0.20842200  1
  H  1420  1  0.15975700  0.58760800  0.66343500  1
  H  1421  1  0.13827500  0.57855600  0.68017200  1
  H  1422  1  0.11951600  0.57213900  0.70236200  1
  H  1423  1  0.10806000  0.56939000  0.72465400  1
  H  1424  1  0.15038000  0.60209300  0.73867500  1
  H  1425  1  0.18995600  0.61443700  0.69299500  1
  H  1426  1  0.14458100  0.63490400  0.70765400  1
  H  1427  1  0.17653000  0.67261100  0.72865000  1
  H  1428  1  0.19719100  0.64977500  0.73447800  1
  H  1429  1  0.18464800  0.57185700  0.71687800  1
  H  1430  1  0.21512400  0.62145200  0.73862100  1
  H  1431  1  0.22740900  0.59181200  0.74033700  1
  H  1437  1  0.20056200  0.61464700  0.67115400  1
  H  1438  1  0.13176300  0.58661600  0.75398600  1
  H  1439  1  0.20364600  0.55173500  0.72919200  1
  H  1440  1  0.13558800  0.66722200  0.70841900  1
  H  1447  1  0.38677100  0.70057100  0.98202200  1
  H  1454  1  0.37679600  0.79465000  0.01734600  1
  H  1455  1  0.37214500  0.78800500  0.97600100  1
  H  1456  1  0.36086200  0.70654100  0.01869600  1
  H  1458  1  0.38318800  0.74761600  0.02559800  1
  H  1459  1  0.36855300  0.76490800  0.03070400  1
  H  1460  1  0.39182200  0.76891600  0.02873300  1
  H  1462  1  0.39533500  0.74760000  0.97542000  1
  H  1463  1  0.38386500  0.73050300  0.96682200  1
  H  1464  1  0.40475500  0.72635000  0.97457800  1
  H  1473  1  0.19838100  0.29554200  0.48201200  1
  H  1480  1  0.20836300  0.20148400  0.51734700  1
  H  1481  1  0.21299900  0.20812700  0.47600600  1
  H  1482  1  0.22428400  0.28960900  0.51868400  1
  H  1484  1  0.20197900  0.24851100  0.52560100  1
  H  1485  1  0.21661300  0.23122100  0.53071100  1
  H  1486  1  0.19334700  0.22720700  0.52873000  1
  H  1488  1  0.18983100  0.24850900  0.47542400  1
  H  1489  1  0.20130300  0.26560300  0.46682500  1
  H  1490  1  0.18040800  0.26975800  0.47457100  1
  H  1499  1  0.59078100  0.09202700  0.23200800  1
  H  1506  1  0.49649500  0.08207300  0.26734500  1
  H  1507  1  0.50317700  0.07743700  0.22600500  1
  H  1508  1  0.58483300  0.06619300  0.26868300  1
  H  1510  1  0.54362800  0.08845900  0.27560800  1
  H  1511  1  0.52630100  0.07385900  0.28072200  1
  H  1512  1  0.52227000  0.09706700  0.27872700  1
  H  1514  1  0.54362900  0.10057400  0.22542900  1
  H  1515  1  0.56075900  0.08913000  0.21682500  1
  H  1516  1  0.56492800  0.10997300  0.22457500  1
  H  1525  1  0.99438800  0.90409700  0.73202400  1
  H  1532  1  0.08868300  0.91404600  0.76734800  1
  H  1533  1  0.08203300  0.91868000  0.72600300  1
  H  1534  1  0.00036800  0.92995100  0.76869000  1
  H  1536  1  0.04154700  0.90766500  0.77560000  1
  H  1537  1  0.05887800  0.92226900  0.78070400  1
  H  1538  1  0.06289900  0.89905600  0.77873100  1
  H  1540  1  0.04153700  0.89555100  0.72542500  1
  H  1541  1  0.02440000  0.90699400  0.71682600  1
  H  1542  1  0.02023800  0.88615100  0.72457900  1
  H  1551  1  0.19840500  0.70056600  0.48318100  1
  H  1558  1  0.20836600  0.79465200  0.44785200  1
  H  1559  1  0.21304600  0.78792600  0.48918900  1
  H  1560  1  0.22430500  0.70650200  0.44650500  1
  H  1562  1  0.20197700  0.74760600  0.43957900  1
  H  1563  1  0.21661100  0.76489800  0.43446800  1
  H  1564  1  0.19334300  0.76890900  0.43644600  1
  H  1566  1  0.18983400  0.74759600  0.48976700  1
  H  1567  1  0.20130600  0.73050300  0.49836400  1
  H  1568  1  0.18041400  0.72634800  0.49061400  1
  H  1577  1  0.38677900  0.29554800  0.98319200  1
  H  1584  1  0.37680300  0.20149600  0.94783800  1
  H  1585  1  0.37217500  0.20813400  0.98918100  1
  H  1586  1  0.36089300  0.28962900  0.94651400  1
  H  1588  1  0.38319000  0.24851900  0.93958900  1
  H  1589  1  0.36855600  0.23122700  0.93448100  1
  H  1590  1  0.39182300  0.22721500  0.93646200  1
  H  1592  1  0.39534000  0.24851300  0.98976800  1
  H  1593  1  0.38386700  0.26560600  0.99837200  1
  H  1594  1  0.40476200  0.26976200  0.99062300  1
  H  1603  1  0.99438700  0.09202000  0.23320000  1
  H  1610  1  0.08866100  0.08207600  0.19783800  1
  H  1611  1  0.08199600  0.07745100  0.23918000  1
  H  1612  1  0.00031500  0.06620300  0.19651900  1
  H  1614  1  0.04153300  0.08845700  0.18958400  1
  H  1615  1  0.05886400  0.07385800  0.18447300  1
  H  1616  1  0.06289000  0.09706900  0.18646300  1
  H  1618  1  0.04154100  0.10057400  0.23976600  1
  H  1619  1  0.02441200  0.08913000  0.24837100  1
  H  1620  1  0.02024300  0.10997300  0.24062200  1
  H  1629  1  0.59078100  0.90410500  0.73318000  1
  H  1636  1  0.49648400  0.91403900  0.69783500  1
  H  1637  1  0.50313300  0.91867000  0.73918100  1
  H  1638  1  0.58481900  0.92994500  0.69651000  1
  H  1640  1  0.54362500  0.90766800  0.68959300  1
  H  1641  1  0.52629000  0.92227000  0.68449200  1
  H  1642  1  0.52227600  0.89905400  0.68645700  1
  H  1644  1  0.54363300  0.89555000  0.73976900  1
  H  1645  1  0.56076800  0.90699200  0.74836800  1
  H  1646  1  0.56493200  0.88615100  0.74061400  1
  H  1655  1  0.69721800  0.29555700  0.98315500  1
  H  1662  1  0.70721400  0.20147200  0.94783600  1
  H  1663  1  0.71186400  0.20816800  0.98916900  1
  H  1664  1  0.72314600  0.28957200  0.94648800  1
  H  1666  1  0.70079900  0.24852300  0.93958300  1
  H  1667  1  0.71543600  0.23123700  0.93446700  1
  H  1668  1  0.69217300  0.22721600  0.93645800  1
  H  1670  1  0.68866400  0.24852400  0.98976500  1
  H  1671  1  0.70013300  0.26562100  0.99836700  1
  H  1672  1  0.67924100  0.26977300  0.99061300  1
  H  1681  1  0.88796400  0.70057500  0.48316800  1
  H  1688  1  0.87797600  0.79463100  0.44784300  1
  H  1689  1  0.87334800  0.78798500  0.48918700  1
  H  1690  1  0.86204600  0.70653300  0.44650200  1
  H  1692  1  0.88436400  0.74760700  0.43959000  1
  H  1693  1  0.86972700  0.76489500  0.43448200  1
  H  1694  1  0.89299300  0.76891100  0.43646200  1
  H  1696  1  0.89651000  0.74760800  0.48977100  1
  H  1697  1  0.88503600  0.73051300  0.49836700  1
  H  1698  1  0.90593200  0.72636000  0.49062200  1
  H  1707  1  0.88793500  0.29555600  0.48199500  1
  H  1714  1  0.87798800  0.20147700  0.51734500  1
  H  1715  1  0.87332600  0.20817700  0.47600400  1
  H  1716  1  0.86205900  0.28964100  0.51867600  1
  H  1718  1  0.88436300  0.24851300  0.52561100  1
  H  1719  1  0.86972900  0.23122000  0.53071700  1
  H  1720  1  0.89299900  0.22721100  0.52874300  1
  H  1722  1  0.89651300  0.24851700  0.47542500  1
  H  1723  1  0.88504100  0.26560600  0.46682300  1
  H  1724  1  0.90593200  0.26976600  0.47457400  1
  H  1733  1  0.69723700  0.70055900  0.98200800  1
  H  1740  1  0.70720000  0.79461900  0.01736400  1
  H  1741  1  0.71182800  0.78799400  0.97601100  1
  H  1742  1  0.72313600  0.70650400  0.01868200  1
  H  1744  1  0.70080900  0.74759900  0.02560500  1
  H  1745  1  0.71544500  0.76489500  0.03070400  1
  H  1746  1  0.69217500  0.76890000  0.02873900  1
  H  1748  1  0.68866100  0.74759800  0.97542300  1
  H  1749  1  0.70013000  0.73050400  0.96682200  1
  H  1750  1  0.67924100  0.72634900  0.97457600  1
  H  1759  1  0.08960600  0.59437300  0.73203000  1
  H  1766  1  0.99533000  0.58439100  0.76735400  1
  H  1767  1  0.00200200  0.57976900  0.72601200  1
  H  1768  1  0.08362500  0.56851000  0.76869900  1
  H  1770  1  0.04246200  0.59079700  0.77560700  1
  H  1771  1  0.02513500  0.57619500  0.78072100  1
  H  1772  1  0.02110400  0.59940400  0.77872800  1
  H  1774  1  0.04246400  0.60290700  0.72542600  1
  H  1775  1  0.05960100  0.59146300  0.71682700  1
  H  1776  1  0.06376300  0.61230800  0.72457800  1
  H  1785  1  0.49557200  0.40173100  0.23202100  1
  H  1792  1  0.58984100  0.41170400  0.26735300  1
  H  1793  1  0.58316700  0.41632200  0.22601300  1
  H  1794  1  0.50152100  0.42758300  0.26869100  1
  H  1796  1  0.54271000  0.40532200  0.27561000  1
  H  1797  1  0.56003700  0.41992400  0.28072300  1
  H  1798  1  0.56406600  0.39671500  0.27873200  1
  H  1800  1  0.54271500  0.39320900  0.22542700  1
  H  1801  1  0.52558100  0.40465700  0.21683000  1
  H  1802  1  0.52141800  0.38380700  0.22457100  1
  H  1811  1  0.49555900  0.59436500  0.73319300  1
  H  1818  1  0.58980500  0.58441000  0.69782200  1
  H  1819  1  0.58315700  0.57979500  0.73917200  1
  H  1820  1  0.50148800  0.56853900  0.69651400  1
  H  1822  1  0.54269200  0.59079700  0.68957400  1
  H  1823  1  0.56002600  0.57619900  0.68446600  1
  H  1824  1  0.56405100  0.59940900  0.68645700  1
  H  1826  1  0.54271100  0.60291400  0.73976600  1
  H  1827  1  0.52558200  0.59146900  0.74837000  1
  H  1828  1  0.52141200  0.61231200  0.74062000  1
  H  1837  1  0.08960900  0.40175900  0.23317700  1
  H  1844  1  0.99534100  0.41170700  0.19782200  1
  H  1845  1  0.00197000  0.41632600  0.23917600  1
  H  1846  1  0.08364400  0.42760800  0.19650900  1
  H  1848  1  0.04246700  0.40532700  0.18958600  1
  H  1849  1  0.02512900  0.41993100  0.18448900  1
  H  1850  1  0.02111500  0.39671400  0.18645300  1
  H  1852  1  0.04246300  0.39321000  0.23977100  1
  H  1853  1  0.05959700  0.40465400  0.24836900  1
  H  1854  1  0.06376200  0.38381200  0.24061700  1
  H  1863  1  0.58957000  0.82970800  0.95574500  1
  H  1870  1  0.49425800  0.87751800  0.96234500  1
  H  1871  1  0.50079500  0.82201000  0.96619000  1
  H  1872  1  0.58253600  0.87987400  0.97387800  1
  H  1874  1  0.54155800  0.88871800  0.95731700  1
  H  1875  1  0.52447900  0.89571900  0.96827900  1
  H  1876  1  0.52017800  0.89293700  0.95111900  1
  H  1878  1  0.54211600  0.82130900  0.94841200  1
  H  1879  1  0.55938200  0.80984300  0.95689100  1
  H  1880  1  0.56342100  0.82014500  0.94134200  1
  H  1889  1  0.99559700  0.16641100  0.45574400  1
  H  1896  1  0.09091100  0.11860200  0.46233500  1
  H  1897  1  0.08437300  0.17410900  0.46617900  1
  H  1898  1  0.00263000  0.11624600  0.47388000  1
  H  1900  1  0.04361100  0.10740200  0.45731700  1
  H  1901  1  0.06068700  0.10039800  0.46827900  1
  H  1902  1  0.06499200  0.10318500  0.45112000  1
  H  1904  1  0.04305300  0.17480900  0.44841400  1
  H  1905  1  0.02578600  0.18627000  0.45689500  1
  H  1906  1  0.02174900  0.17597900  0.44134200  1
  H  1915  1  0.46132800  0.29436000  0.20574700  1
  H  1922  1  0.41341900  0.19926300  0.21233600  1
  H  1923  1  0.46905900  0.20579100  0.21618800  1
  H  1924  1  0.41104800  0.28734300  0.22388300  1
  H  1926  1  0.40218300  0.24644700  0.20731900  1
  H  1927  1  0.39516900  0.22940700  0.21828200  1
  H  1928  1  0.39795900  0.22511600  0.20112100  1
  H  1930  1  0.46974400  0.24701300  0.19841400  1
  H  1931  1  0.48123800  0.26423600  0.20689400  1
  H  1932  1  0.47091700  0.26826800  0.19134500  1
  H  1941  1  0.12384200  0.70176300  0.70574300  1
  H  1948  1  0.17176800  0.79685300  0.71234400  1
  H  1949  1  0.11611900  0.79034100  0.71619000  1
  H  1950  1  0.17412300  0.70877600  0.72387800  1
  H  1952  1  0.18298600  0.74966500  0.70731900  1
  H  1953  1  0.19000100  0.76670400  0.71828200  1
  H  1954  1  0.18721900  0.77099400  0.70112100  1
  H  1956  1  0.11542500  0.74910900  0.69841500  1
  H  1957  1  0.10393100  0.73188400  0.70689300  1
  H  1958  1  0.11425500  0.72785600  0.69134300  1
  H  1967  1  0.99560900  0.82970000  0.50944700  1
  H  1974  1  0.09091300  0.87752500  0.50284400  1
  H  1975  1  0.08438800  0.82201500  0.49900200  1
  H  1976  1  0.00263300  0.87986900  0.49131400  1
  H  1978  1  0.04361200  0.88871800  0.50787500  1
  H  1979  1  0.06069000  0.89572100  0.49691200  1
  H  1980  1  0.06499100  0.89293700  0.51407300  1
  H  1982  1  0.04305900  0.82130600  0.51677900  1
  H  1983  1  0.02579000  0.80984300  0.50830200  1
  H  1984  1  0.02175500  0.82014300  0.52385100  1
  H  1993  1  0.58955900  0.16641400  0.00945500  1
  H  2000  1  0.49425400  0.11859700  0.00285800  1
  H  2001  1  0.50078000  0.17410500  0.99901700  1
  H  2002  1  0.58253200  0.11624900  0.99131300  1
  H  2004  1  0.54155600  0.10740400  0.00787800  1
  H  2005  1  0.52448100  0.10039900  0.99690900  1
  H  2006  1  0.52017500  0.10318400  0.01407500  1
  H  2008  1  0.54210900  0.17481300  0.01678200  1
  H  2009  1  0.55937700  0.18627400  0.00830200  1
  H  2010  1  0.56341400  0.17597900  0.02385300  1
  H  2019  1  0.12383800  0.29434800  0.25945300  1
  H  2026  1  0.17176400  0.19926700  0.25285400  1
  H  2027  1  0.11611900  0.20576700  0.24901200  1
  H  2028  1  0.17411900  0.28733500  0.24131500  1
  H  2030  1  0.18298300  0.24645100  0.25787600  1
  H  2031  1  0.19000000  0.22941200  0.24691400  1
  H  2032  1  0.18721100  0.22512100  0.26407400  1
  H  2034  1  0.11542000  0.24700800  0.26678100  1
  H  2035  1  0.10392400  0.26423100  0.25830300  1
  H  2036  1  0.11425300  0.26826300  0.27384900  1
  H  2045  1  0.46132900  0.70177300  0.75945200  1
  H  2052  1  0.41339400  0.79685600  0.75284600  1
  H  2053  1  0.46904600  0.79035700  0.74900300  1
  H  2054  1  0.41104800  0.70878400  0.74131600  1
  H  2056  1  0.40218500  0.74966600  0.75787300  1
  H  2057  1  0.39516900  0.76670600  0.74690900  1
  H  2058  1  0.39795000  0.77099400  0.76407000  1
  H  2060  1  0.46974800  0.74911600  0.76677700  1
  H  2061  1  0.48124200  0.73188900  0.75830100  1
  H  2062  1  0.47091300  0.72786100  0.77384800  1
  H  2071  1  0.62500300  0.70178900  0.75944800  1
  H  2078  1  0.67293300  0.79686700  0.75284700  1
  H  2079  1  0.61729300  0.79034700  0.74899900  1
  H  2080  1  0.67529100  0.70880500  0.74131300  1
  H  2082  1  0.68415700  0.74967600  0.75787500  1
  H  2083  1  0.69117500  0.76671200  0.74691200  1
  H  2084  1  0.68838700  0.77100500  0.76407200  1
  H  2086  1  0.61658400  0.74912400  0.76678100  1
  H  2087  1  0.60509600  0.73189300  0.75830200  1
  H  2088  1  0.61542300  0.72786700  0.77385100  1
  H  2097  1  0.96016600  0.29433100  0.25945200  1
  H  2104  1  0.91223200  0.19925900  0.25285700  1
  H  2105  1  0.96787200  0.20576900  0.24901700  1
  H  2106  1  0.90987900  0.28731800  0.24131500  1
  H  2108  1  0.90101100  0.24644900  0.25787900  1
  H  2109  1  0.89399100  0.22941400  0.24691400  1
  H  2110  1  0.89678200  0.22511700  0.26407400  1
  H  2112  1  0.96858500  0.24699700  0.26678300  1
  H  2113  1  0.98006900  0.26422600  0.25830200  1
  H  2114  1  0.96975200  0.26825200  0.27385300  1
  H  2123  1  0.96016300  0.70177600  0.70574200  1
  H  2130  1  0.91223800  0.79684800  0.71233700  1
  H  2131  1  0.96788500  0.79033400  0.71618300  1
  H  2132  1  0.90987900  0.70879000  0.72388000  1
  H  2134  1  0.90100900  0.74966600  0.70731600  1
  H  2135  1  0.89399500  0.76670600  0.71827900  1
  H  2136  1  0.89678500  0.77099800  0.70111900  1
  H  2138  1  0.96858100  0.74911400  0.69840900  1
  H  2139  1  0.98007400  0.73189100  0.70689000  1
  H  2140  1  0.96974700  0.72785700  0.69134200  1
  H  2149  1  0.62500700  0.29434000  0.20574300  1
  H  2156  1  0.67294100  0.19926700  0.21234500  1
  H  2157  1  0.61728900  0.20577900  0.21619100  1
  H  2158  1  0.67529100  0.28733100  0.22387900  1
  H  2160  1  0.68416000  0.24645400  0.20731900  1
  H  2161  1  0.69117400  0.22941500  0.21828400  1
  H  2162  1  0.68839100  0.22512500  0.20112200  1
  H  2164  1  0.61658900  0.24700100  0.19841400  1
  H  2165  1  0.60509700  0.26422800  0.20689100  1
  H  2166  1  0.61542500  0.26825600  0.19134400  1
  H  2175  1  0.09074500  0.32971000  0.45574600  1
  H  2182  1  0.99543200  0.37752400  0.46234900  1
  H  2183  1  0.00195500  0.32201400  0.46619100  1
  H  2184  1  0.08371100  0.37987500  0.47388000  1
  H  2186  1  0.04273100  0.38871700  0.45732000  1
  H  2187  1  0.02565200  0.39571900  0.46828100  1
  H  2188  1  0.02135200  0.39293600  0.45112100  1
  H  2190  1  0.04329000  0.32131100  0.44841600  1
  H  2191  1  0.06055600  0.30984400  0.45689300  1
  H  2192  1  0.06459400  0.32014600  0.44134500  1
  H  2201  1  0.49442300  0.66640700  0.95574100  1
  H  2208  1  0.58973600  0.61859600  0.96233500  1
  H  2209  1  0.58321300  0.67410500  0.96617600  1
  H  2210  1  0.50145400  0.61624500  0.97387700  1
  H  2212  1  0.54243700  0.60740300  0.95731600  1
  H  2213  1  0.55951400  0.60039900  0.96827800  1
  H  2214  1  0.56381900  0.60318600  0.95111900  1
  H  2216  1  0.54188000  0.67480800  0.94841400  1
  H  2217  1  0.52461200  0.68626900  0.95689400  1
  H  2218  1  0.52057600  0.67597800  0.94134200  1
  H  2227  1  0.49442800  0.32970400  0.00945100  1
  H  2234  1  0.58973100  0.37752600  0.00285400  1
  H  2235  1  0.58322500  0.32201000  0.99901400  1
  H  2236  1  0.50145600  0.37986900  0.99131000  1
  H  2238  1  0.54243900  0.38871600  0.00787700  1
  H  2239  1  0.55951800  0.39571600  0.99690900  1
  H  2240  1  0.56382000  0.39293200  0.01407500  1
  H  2242  1  0.54188100  0.32131000  0.01678200  1
  H  2243  1  0.52461600  0.30984400  0.00830200  1
  H  2244  1  0.52057700  0.32014200  0.02385200  1
  H  2253  1  0.09073500  0.66641000  0.50945200  1
  H  2260  1  0.99543200  0.61858300  0.50284700  1
  H  2261  1  0.00193700  0.67410500  0.49900600  1
  H  2262  1  0.08370900  0.61624600  0.49131600  1
  H  2264  1  0.04273100  0.60740500  0.50787300  1
  H  2265  1  0.02565300  0.60040400  0.49691000  1
  H  2266  1  0.02135400  0.60317900  0.51407200  1
  H  2268  1  0.04328300  0.67480800  0.51677700  1
  H  2269  1  0.06055000  0.68627600  0.50830200  1
  H  2270  1  0.06458700  0.67597100  0.52384900  1
  H  2279  1  0.40902700  0.87175600  0.89280000  1
  H  2286  1  0.40087100  0.91884400  0.82221300  1
  H  2287  1  0.39500500  0.86357100  0.82770800  1
  H  2288  1  0.38358500  0.92143000  0.88835500  1
  H  2290  1  0.40711800  0.93068800  0.85729900  1
  H  2291  1  0.39232000  0.93703200  0.84444600  1
  H  2292  1  0.41569000  0.93514600  0.84157800  1
  H  2294  1  0.41929000  0.86330100  0.85810500  1
  H  2295  1  0.40744600  0.85230100  0.87089900  1
  H  2296  1  0.42869800  0.86208800  0.87386200  1
  H  2305  1  0.17615700  0.12435700  0.39281000  1
  H  2312  1  0.18430200  0.07727600  0.32222300  1
  H  2313  1  0.19018100  0.13254900  0.32771400  1
  H  2314  1  0.20158100  0.07464900  0.38835900  1
  H  2316  1  0.17804600  0.06542300  0.35730200  1
  H  2317  1  0.19284900  0.05908700  0.34445100  1
  H  2318  1  0.16947900  0.06097700  0.34158100  1
  H  2320  1  0.16587700  0.13281500  0.35811600  1
  H  2321  1  0.17772300  0.14381000  0.37091000  1
  H  2322  1  0.15646500  0.13403500  0.37387100  1
  H  2331  1  0.41918700  0.11422200  0.14281000  1
  H  2338  1  0.37199200  0.10610100  0.07222500  1
  H  2339  1  0.42740800  0.10023700  0.07772000  1
  H  2340  1  0.36936400  0.08885200  0.13837100  1
  H  2342  1  0.36010700  0.11232800  0.10730400  1
  H  2343  1  0.35375400  0.09756300  0.09445100  1
  H  2344  1  0.35565700  0.12087700  0.09158000  1
  H  2346  1  0.42765600  0.12447600  0.10811600  1
  H  2347  1  0.43867800  0.11265400  0.12090800  1
  H  2348  1  0.42888200  0.13386300  0.12387200  1
  H  2357  1  0.16599800  0.88189400  0.64280200  1
  H  2364  1  0.21319200  0.89001700  0.57221000  1
  H  2365  1  0.15776900  0.89587400  0.57769900  1
  H  2366  1  0.21579100  0.90726500  0.63834700  1
  H  2368  1  0.22505400  0.88379100  0.60729900  1
  H  2369  1  0.23141000  0.89855700  0.59444700  1
  H  2370  1  0.22952700  0.87524100  0.59157900  1
  H  2372  1  0.15750900  0.87165000  0.60810800  1
  H  2373  1  0.14648500  0.88346900  0.62090100  1
  H  2374  1  0.15629500  0.86226600  0.62386400  1
  H  2383  1  0.67489900  0.12435000  0.07243900  1
  H  2390  1  0.68375900  0.07746000  0.14266100  1
  H  2391  1  0.68804800  0.13305600  0.13784400  1
  H  2392  1  0.70038100  0.07469700  0.07690000  1
  H  2394  1  0.67686000  0.06578900  0.10804600  1
  H  2395  1  0.69168600  0.05895400  0.12072800  1
  H  2396  1  0.66852200  0.06193800  0.12393000  1
  H  2398  1  0.66479700  0.13278600  0.10717200  1
  H  2399  1  0.67656100  0.14386100  0.09435300  1
  H  2400  1  0.65531400  0.13403600  0.09142600  1
  H  2409  1  0.91025600  0.87177100  0.57242300  1
  H  2416  1  0.90142400  0.91869800  0.64263100  1
  H  2417  1  0.89714200  0.86310100  0.63785700  1
  H  2418  1  0.88478900  0.92145800  0.57689300  1
  H  2420  1  0.90831800  0.93034300  0.60801900  1
  H  2421  1  0.89348800  0.93717400  0.62069900  1
  H  2422  1  0.91665200  0.93418900  0.62390200  1
  H  2424  1  0.92037000  0.86333400  0.60715900  1
  H  2425  1  0.90861000  0.85226100  0.59433900  1
  H  2426  1  0.92986300  0.86207400  0.59141500  1
  H  2435  1  0.66710800  0.88188600  0.82236100  1
  H  2442  1  0.71415900  0.89005300  0.89300500  1
  H  2443  1  0.65873000  0.89592300  0.88726000  1
  H  2444  1  0.71693100  0.90726800  0.82671300  1
  H  2446  1  0.72622100  0.88379000  0.85792200  1
  H  2447  1  0.73262400  0.89854800  0.87076200  1
  H  2448  1  0.73058800  0.87525300  0.87367000  1
  H  2450  1  0.65872200  0.87162500  0.85705700  1
  H  2451  1  0.64768500  0.88346600  0.84428000  1
  H  2452  1  0.65746000  0.86225400  0.84130200  1
  H  2461  1  0.91804500  0.11423600  0.32236700  1
  H  2468  1  0.87099900  0.10606800  0.39301500  1
  H  2469  1  0.92643100  0.10019800  0.38727400  1
  H  2470  1  0.86825000  0.08885200  0.32673400  1
  H  2472  1  0.85895500  0.11232800  0.35792200  1
  H  2473  1  0.85254800  0.09757100  0.37076300  1
  H  2474  1  0.85457000  0.12086600  0.37366800  1
  H  2476  1  0.92644900  0.12448500  0.35706300  1
  H  2477  1  0.93748800  0.11264800  0.34428600  1
  H  2478  1  0.92770200  0.13385600  0.34130800  1
  H  2487  1  0.91027200  0.37167800  0.39288100  1
  H  2494  1  0.90173000  0.41900400  0.32272500  1
  H  2495  1  0.89616700  0.36346200  0.32753800  1
  H  2496  1  0.88476900  0.42134600  0.38848200  1
  H  2498  1  0.90836200  0.43057800  0.35750900  1
  H  2499  1  0.89358300  0.43724100  0.34474000  1
  H  2500  1  0.91683300  0.43463800  0.34168400  1
  H  2502  1  0.92039600  0.36335600  0.35811300  1
  H  2503  1  0.90863400  0.35223200  0.37090200  1
  H  2504  1  0.92988400  0.36203300  0.37385200  1
  H  2513  1  0.67491000  0.62443700  0.89288600  1
  H  2520  1  0.68343200  0.57712000  0.82272600  1
  H  2521  1  0.68898500  0.63266100  0.82754100  1
  H  2522  1  0.70039700  0.57473500  0.88848100  1
  H  2524  1  0.67680000  0.56553400  0.85750400  1
  H  2525  1  0.69158600  0.55888000  0.84473900  1
  H  2526  1  0.66833700  0.56148400  0.84167900  1
  H  2528  1  0.66477000  0.63276100  0.85811900  1
  H  2529  1  0.67653500  0.64387900  0.87091000  1
  H  2530  1  0.65527600  0.63409000  0.87385600  1
  H  2539  1  0.91804100  0.61662200  0.64286400  1
  H  2546  1  0.87063700  0.60814400  0.57269300  1
  H  2547  1  0.92630400  0.60264100  0.57744800  1
  H  2548  1  0.86822300  0.59120300  0.63839600  1
  H  2550  1  0.85906900  0.61475000  0.60747900  1
  H  2551  1  0.85238000  0.59999200  0.59472600  1
  H  2552  1  0.85499800  0.62318300  0.59165700  1
  H  2554  1  0.92644800  0.62673400  0.60809900  1
  H  2555  1  0.93757800  0.61500500  0.62090200  1
  H  2556  1  0.92776000  0.63621300  0.62384100  1
  H  2565  1  0.66714500  0.37949300  0.14286200  1
  H  2572  1  0.71453700  0.38796400  0.07268500  1
  H  2573  1  0.65886600  0.39351800  0.07745200  1
  H  2574  1  0.71693600  0.40491100  0.13838300  1
  H  2576  1  0.72610000  0.38137600  0.10748200  1
  H  2577  1  0.73278300  0.39613200  0.09472600  1
  H  2578  1  0.73019000  0.37293800  0.09166400  1
  H  2580  1  0.65872200  0.36939300  0.10809600  1
  H  2581  1  0.64758800  0.38111800  0.12090000  1
  H  2582  1  0.65741700  0.35991600  0.12383700  1
  H  2591  1  0.17613100  0.62440400  0.57237700  1
  H  2598  1  0.18428700  0.57744400  0.64303000  1
  H  2599  1  0.19019000  0.63273300  0.63734000  1
  H  2600  1  0.20158500  0.57473200  0.57673800  1
  H  2602  1  0.17805300  0.56546200  0.60793200  1
  H  2603  1  0.19284100  0.55905200  0.62076800  1
  H  2604  1  0.16949400  0.56108100  0.62367500  1
  H  2606  1  0.16587600  0.63277700  0.60707400  1
  H  2607  1  0.17772700  0.64379600  0.59429100  1
  H  2608  1  0.15647100  0.63402800  0.59131900  1
  H  2617  1  0.40902500  0.37171900  0.07237100  1
  H  2624  1  0.40087600  0.41867100  0.14302800  1
  H  2625  1  0.39497400  0.36338300  0.13733900  1
  H  2626  1  0.38358900  0.42142600  0.07673700  1
  H  2628  1  0.40712100  0.43066200  0.10793600  1
  H  2629  1  0.39232700  0.43706500  0.12077000  1
  H  2630  1  0.41567500  0.43503500  0.12368000  1
  H  2632  1  0.41929500  0.36334300  0.10706800  1
  H  2633  1  0.40744200  0.35233200  0.09428300  1
  H  2634  1  0.42870500  0.36208700  0.09131400  1
  H  2643  1  0.16594000  0.37947300  0.32241400  1
  H  2650  1  0.21302700  0.38831100  0.39262900  1
  H  2651  1  0.15731200  0.39258000  0.38784100  1
  H  2652  1  0.21573600  0.40489500  0.32680300  1
  H  2654  1  0.22469900  0.38143900  0.35801200  1
  H  2655  1  0.23154900  0.39622000  0.37070000  1
  H  2656  1  0.22856100  0.37310800  0.37389400  1
  H  2658  1  0.15755800  0.36939800  0.35715200  1
  H  2659  1  0.14644200  0.38113400  0.34434100  1
  H  2660  1  0.15627900  0.35993000  0.34141100  1
  H  2669  1  0.41920900  0.61664900  0.82242600  1
  H  2676  1  0.37216000  0.60780800  0.89265700  1
  H  2677  1  0.42790700  0.60351500  0.88784300  1
  H  2678  1  0.36944200  0.59122900  0.82682400  1
  H  2680  1  0.36048100  0.61467100  0.85803600  1
  H  2681  1  0.35362500  0.59988700  0.87072100  1
  H  2682  1  0.35660900  0.62299900  0.87391800  1
  H  2684  1  0.42760800  0.62670900  0.85716100  1
  H  2685  1  0.43872400  0.61498000  0.84434800  1
  H  2686  1  0.42887800  0.63617800  0.84142100  1
  H  2695  1  0.36431200  0.04548100  0.99932500  1
  H  2702  1  0.35582100  0.95085500  0.96374700  1
  H  2703  1  0.34936000  0.95659400  0.00482200  1
  H  2704  1  0.33935600  0.03934200  0.96236700  1
  H  2706  1  0.36237800  0.99770200  0.95546200  1
  H  2707  1  0.34753900  0.98038900  0.95079400  1
  H  2708  1  0.37090000  0.97649100  0.95215700  1
  H  2710  1  0.37444000  0.99846800  0.00543500  1
  H  2711  1  0.36274200  0.01577800  0.01365100  1
  H  2712  1  0.38403500  0.01966000  0.00640000  1
  H  2721  1  0.22083200  0.95065000  0.49934000  1
  H  2728  1  0.22936100  0.04525900  0.46374600  1
  H  2729  1  0.23582200  0.03951900  0.50481900  1
  H  2730  1  0.24580700  0.95674300  0.46238500  1
  H  2732  1  0.22279900  0.99841400  0.45546400  1
  H  2733  1  0.23763200  0.01573000  0.45079400  1
  H  2734  1  0.21427100  0.01962300  0.45215900  1
  H  2736  1  0.21072600  0.99766900  0.50543600  1
  H  2737  1  0.22242200  0.98035300  0.51364800  1
  H  2738  1  0.20112100  0.97648200  0.50640700  1
  H  2747  1  0.24506200  0.06964200  0.24934000  1
  H  2754  1  0.33990500  0.06112500  0.21375700  1
  H  2755  1  0.33412800  0.05469700  0.25483100  1
  H  2756  1  0.25117000  0.04472700  0.21238700  1
  H  2758  1  0.29295100  0.06768000  0.20546700  1
  H  2759  1  0.31030300  0.05287900  0.20079300  1
  H  2760  1  0.31421200  0.07618400  0.20216900  1
  H  2762  1  0.29219300  0.07972700  0.25543600  1
  H  2763  1  0.27483800  0.06805800  0.26364900  1
  H  2764  1  0.27095500  0.08930900  0.25640800  1
  H  2773  1  0.34011400  0.92650100  0.74932100  1
  H  2780  1  0.24526300  0.93497100  0.71373600  1
  H  2781  1  0.25100300  0.94140200  0.75482800  1
  H  2782  1  0.33396600  0.95138400  0.71236300  1
  H  2784  1  0.29222700  0.92842900  0.70546500  1
  H  2785  1  0.27487500  0.94323400  0.70079400  1
  H  2786  1  0.27096900  0.91992600  0.70215500  1
  H  2788  1  0.29299100  0.91639600  0.75543300  1
  H  2789  1  0.31034300  0.92806700  0.76364800  1
  H  2790  1  0.31423300  0.90682200  0.75639700  1
  H  2799  1  0.71972300  0.95063400  0.96587500  1
  H  2806  1  0.72820200  0.04526400  0.00143800  1
  H  2807  1  0.73466000  0.03949300  0.96036100  1
  H  2808  1  0.74466400  0.95681900  0.00283900  1
  H  2810  1  0.72161100  0.99842000  0.00973700  1
  H  2811  1  0.73645600  0.01573100  0.01439900  1
  H  2812  1  0.71309400  0.01963400  0.01303700  1
  H  2814  1  0.70954900  0.99764600  0.95975600  1
  H  2815  1  0.72125500  0.98033800  0.95154400  1
  H  2816  1  0.69996200  0.97645100  0.95879400  1
  H  2825  1  0.86547000  0.04547200  0.46586000  1
  H  2832  1  0.85695300  0.95086000  0.50143900  1
  H  2833  1  0.85049600  0.95663000  0.46036500  1
  H  2834  1  0.84051000  0.03933500  0.50282000  1
  H  2836  1  0.86355100  0.99770200  0.50973600  1
  H  2837  1  0.84871000  0.98038900  0.51439900  1
  H  2838  1  0.87207100  0.97649000  0.51303400  1
  H  2840  1  0.87562200  0.99845600  0.45975500  1
  H  2841  1  0.86391900  0.01576800  0.45154700  1
  H  2842  1  0.88522000  0.01964600  0.45878700  1
  H  2851  1  0.84095500  0.92678600  0.71598200  1
  H  2858  1  0.74626700  0.93499100  0.75144700  1
  H  2859  1  0.75203500  0.94142900  0.71035200  1
  H  2860  1  0.83450900  0.95157300  0.75300600  1
  H  2862  1  0.79322000  0.92830900  0.75975100  1
  H  2863  1  0.77595200  0.94321800  0.76440900  1
  H  2864  1  0.77194100  0.91992700  0.76306400  1
  H  2866  1  0.79399200  0.91636600  0.70970500  1
  H  2867  1  0.81139000  0.92806700  0.70156400  1
  H  2868  1  0.81528300  0.90685200  0.70885500  1
  H  2877  1  0.74420300  0.06930700  0.21600200  1
  H  2884  1  0.83890100  0.06115000  0.25146800  1
  H  2885  1  0.83316900  0.05471100  0.21035500  1
  H  2886  1  0.75069200  0.04455100  0.25303000  1
  H  2888  1  0.79194000  0.06782000  0.25975600  1
  H  2889  1  0.80920800  0.05290900  0.26440800  1
  H  2890  1  0.81321700  0.07620000  0.26307700  1
  H  2892  1  0.79115700  0.07975100  0.20970600  1
  H  2893  1  0.77376200  0.06804700  0.20156600  1
  H  2894  1  0.76986200  0.08925600  0.20886500  1
  H  2903  1  0.86548800  0.54547700  0.49932400  1
  H  2910  1  0.85699800  0.45085700  0.46374600  1
  H  2911  1  0.85053400  0.45658800  0.50481800  1
  H  2912  1  0.84052700  0.53934500  0.46237100  1
  H  2914  1  0.86354800  0.49770300  0.45546400  1
  H  2915  1  0.84871000  0.48038900  0.45079600  1
  H  2916  1  0.87207100  0.47649300  0.45215800  1
  H  2918  1  0.87561000  0.49846500  0.50543300  1
  H  2919  1  0.86391400  0.51577700  0.51364900  1
  H  2920  1  0.88520700  0.51965800  0.50639900  1
  H  2929  1  0.71965700  0.45065400  0.99934300  1
  H  2936  1  0.72818300  0.54525700  0.96374300  1
  H  2937  1  0.73464600  0.53952500  0.00481700  1
  H  2938  1  0.74463500  0.45674000  0.96238600  1
  H  2940  1  0.72162700  0.49841300  0.95546200  1
  H  2941  1  0.73646100  0.51572900  0.95079200  1
  H  2942  1  0.71309800  0.51962200  0.95215700  1
  H  2944  1  0.70955500  0.49767000  0.00543800  1
  H  2945  1  0.72124900  0.48035500  0.01365000  1
  H  2946  1  0.69994800  0.47648400  0.00641000  1
  H  2955  1  0.74421200  0.57162000  0.74920300  1
  H  2962  1  0.83890400  0.56343400  0.71375600  1
  H  2963  1  0.83309800  0.55700300  0.75485400  1
  H  2964  1  0.75071200  0.54685500  0.71216800  1
  H  2966  1  0.79195400  0.57015900  0.70543400  1
  H  2967  1  0.80921900  0.55524300  0.70078400  1
  H  2968  1  0.81323700  0.57853100  0.70212800  1
  H  2970  1  0.79117000  0.58210100  0.75549000  1
  H  2971  1  0.77377600  0.57039100  0.76362600  1
  H  2972  1  0.76987500  0.59160500  0.75633500  1
  H  2981  1  0.84096600  0.42452400  0.24918700  1
  H  2988  1  0.74626500  0.43266300  0.21373800  1
  H  2989  1  0.75203600  0.43909600  0.25485400  1
  H  2990  1  0.83442500  0.44925800  0.21214800  1
  H  2992  1  0.79322300  0.42595000  0.20543300  1
  H  2993  1  0.77595900  0.44086900  0.20078700  1
  H  2994  1  0.77194200  0.41757900  0.20211800  1
  H  2996  1  0.79401600  0.41402000  0.25549100  1
  H  2997  1  0.81140900  0.42573300  0.26362700  1
  H  2998  1  0.81531600  0.40452600  0.25632700  1
  H  3007  1  0.22088900  0.45063600  0.46587500  1
  H  3014  1  0.22936800  0.54526200  0.50144000  1
  H  3015  1  0.23582800  0.53950000  0.46036500  1
  H  3016  1  0.24583400  0.45681300  0.50283500  1
  H  3018  1  0.22278500  0.49841900  0.50973600  1
  H  3019  1  0.23762800  0.51573000  0.51439700  1
  H  3020  1  0.21426700  0.51963200  0.51303600  1
  H  3022  1  0.21072200  0.49764800  0.45975800  1
  H  3023  1  0.22242600  0.48033900  0.45154600  1
  H  3024  1  0.20113300  0.47645200  0.45879500  1
  H  3033  1  0.36430400  0.54547100  0.96585600  1
  H  3040  1  0.35578900  0.45086200  0.00144300  1
  H  3041  1  0.34932700  0.45662500  0.96036600  1
  H  3042  1  0.33934100  0.53934100  0.00282000  1
  H  3044  1  0.36237800  0.49770300  0.00973700  1
  H  3045  1  0.34753900  0.48039000  0.01440100  1
  H  3046  1  0.37090000  0.47649200  0.01303700  1
  H  3048  1  0.37444900  0.49845500  0.95975400  1
  H  3049  1  0.36274800  0.51576800  0.95154400  1
  H  3050  1  0.38404900  0.51964500  0.95878500  1
  H  3059  1  0.34010900  0.42416900  0.21586000  1
  H  3066  1  0.24526600  0.43267500  0.25143300  1
  H  3067  1  0.25106600  0.43910400  0.21035800  1
  H  3068  1  0.33396300  0.44907300  0.25281800  1
  H  3070  1  0.29221600  0.42609400  0.25973300  1
  H  3071  1  0.27486500  0.44090000  0.26440200  1
  H  3072  1  0.27095400  0.41759600  0.26302800  1
  H  3074  1  0.29297900  0.41404700  0.20975700  1
  H  3075  1  0.31033100  0.42572200  0.20154700  1
  H  3076  1  0.31422000  0.40447100  0.20878800  1
  H  3085  1  0.24505100  0.57192500  0.71587500  1
  H  3092  1  0.33990300  0.56346700  0.75145000  1
  H  3093  1  0.33414000  0.55703500  0.71035600  1
  H  3094  1  0.25123900  0.54705200  0.75283800  1
  H  3096  1  0.29294400  0.57003400  0.75973200  1
  H  3097  1  0.31029500  0.55522600  0.76439800  1
  H  3098  1  0.31420400  0.57853200  0.76303800  1
  H  3100  1  0.29217300  0.58206800  0.70975600  1
  H  3101  1  0.27482400  0.57039100  0.70154400  1
  H  3102  1  0.27093000  0.59163500  0.70879500  1
  C  1  1  0.39262900  0.89033000  0.97045100  1
  C  2  1  0.40704700  0.89876600  0.97681300  1
  C  3  1  0.42267300  0.88872700  0.97455000  1
  C  4  1  0.41792800  0.87402000  0.96674100  1
  C  5  1  0.43079000  0.86134400  0.96286800  1
  C  6  1  0.44900200  0.86310700  0.96667800  1
  C  7  1  0.45377800  0.87825400  0.97451700  1
  C  8  1  0.44071200  0.89101600  0.97846500  1
  C  9  1  0.40414500  0.91468400  0.98395900  1
  C  10  1  0.38665600  0.92193600  0.98468600  1
  C  11  1  0.37182200  0.91357300  0.97833400  1
  C  12  1  0.37514500  0.89749500  0.97121600  1
  C  13  1  0.39448200  0.87348200  0.94920600  1
  C  14  1  0.38423500  0.85846800  0.94584900  1
  C  15  1  0.38100500  0.84873300  0.95723500  1
  C  16  1  0.38922100  0.85748000  0.96790700  1
  C  17  1  0.37068300  0.83325400  0.95905500  1
  C  18  1  0.36821900  0.82707800  0.97204900  1
  C  19  1  0.37707600  0.83534300  0.98298200  1
  C  20  1  0.38775900  0.85064100  0.98082600  1
  C  21  1  0.39922300  0.88606500  0.93942400  1
  C  22  1  0.39306000  0.88389400  0.92622000  1
  C  23  1  0.38326100  0.86799800  0.92305500  1
  C  24  1  0.37858800  0.85538400  0.93278300  1
  C  37  1  0.39858100  0.87386600  0.96357400  1
  C  38  1  0.37688700  0.82785900  0.99541100  1
  C  39  1  0.39839100  0.89617400  0.91652300  1
  C  40  1  0.35401300  0.91866100  0.98078000  1
  C  41  1  0.46035500  0.84905700  0.96292000  1
  C  46  1  0.19253700  0.10578300  0.47044700  1
  C  47  1  0.17812300  0.09735400  0.47681900  1
  C  48  1  0.16249500  0.10738900  0.47455100  1
  C  49  1  0.16724000  0.12209700  0.46674100  1
  C  50  1  0.15438000  0.13477500  0.46287000  1
  C  51  1  0.13616900  0.13301600  0.46668600  1
  C  52  1  0.13139200  0.11786600  0.47452000  1
  C  53  1  0.14445800  0.10510500  0.47847000  1
  C  54  1  0.18102900  0.08143400  0.48396200  1
  C  55  1  0.19851700  0.07417400  0.48467800  1
  C  56  1  0.21334800  0.08256000  0.47834200  1
  C  57  1  0.21002400  0.09862400  0.47121100  1
  C  58  1  0.19068300  0.12263100  0.44920500  1
  C  59  1  0.20094800  0.13763600  0.44585000  1
  C  60  1  0.20417600  0.14737400  0.45723500  1
  C  61  1  0.19595500  0.13862500  0.46790500  1
  C  62  1  0.21448600  0.16286100  0.45905700  1
  C  63  1  0.21695100  0.16903100  0.47205300  1
  C  64  1  0.20807700  0.16076700  0.48298300  1
  C  65  1  0.19741100  0.14545900  0.48082300  1
  C  66  1  0.18592600  0.11005300  0.43942700  1
  C  67  1  0.19211400  0.11221500  0.42623300  1
  C  68  1  0.20189200  0.12812300  0.42305800  1
  C  69  1  0.20657900  0.14073200  0.43278400  1
  C  82  1  0.18658600  0.12224600  0.46357300  1
  C  83  1  0.20818600  0.16828700  0.49541900  1
  C  84  1  0.18673200  0.10003900  0.41650500  1
  C  85  1  0.23115400  0.07745200  0.48077700  1
  C  86  1  0.12481400  0.14706100  0.46291900  1
  C  91  1  0.40055000  0.09787400  0.22044500  1
  C  92  1  0.39210600  0.11225600  0.22681700  1
  C  93  1  0.40216800  0.12784500  0.22455000  1
  C  94  1  0.41690700  0.12311100  0.21673700  1
  C  95  1  0.42961300  0.13594100  0.21286500  1
  C  96  1  0.42784300  0.15411000  0.21667400  1
  C  97  1  0.41266800  0.15887300  0.22452100  1
  C  98  1  0.39987700  0.14583900  0.22847000  1
  C  99  1  0.37615900  0.10935700  0.23397000  1
  C  100  1  0.36888700  0.09191000  0.23469000  1
  C  101  1  0.37726500  0.07711300  0.22833400  1
  C  102  1  0.39337700  0.08042900  0.22121200  1
  C  103  1  0.41743900  0.09971900  0.19920000  1
  C  104  1  0.43248400  0.08948900  0.19584600  1
  C  105  1  0.44222200  0.08624400  0.20723600  1
  C  106  1  0.43344700  0.09444400  0.21790300  1
  C  107  1  0.45773000  0.07594000  0.20906700  1
  C  108  1  0.46393500  0.07352400  0.22206100  1
  C  109  1  0.45564200  0.08237800  0.23298600  1
  C  110  1  0.44029100  0.09300300  0.23082200  1
  C  111  1  0.40483900  0.10447200  0.18942000  1
  C  112  1  0.40701100  0.09830100  0.17622400  1
  C  113  1  0.42295600  0.08854300  0.17305300  1
  C  114  1  0.43558900  0.08386400  0.18278200  1
  C  127  1  0.41704700  0.10381000  0.21356700  1
  C  128  1  0.46326500  0.08242400  0.24539200  1
  C  129  1  0.39475800  0.10365200  0.16652200  1
  C  130  1  0.37214900  0.05934200  0.23075300  1
  C  131  1  0.44193300  0.16543600  0.21292900  1
  C  136  1  0.18460800  0.89824900  0.72045100  1
  C  137  1  0.19305700  0.88386600  0.72681900  1
  C  138  1  0.18299800  0.86827400  0.72455200  1
  C  139  1  0.16825600  0.87300800  0.71674200  1
  C  140  1  0.15555000  0.86017700  0.71287000  1
  C  141  1  0.15731600  0.84200700  0.71668100  1
  C  142  1  0.17250100  0.83724200  0.72451500  1
  C  143  1  0.18529000  0.85027900  0.72846700  1
  C  144  1  0.20901400  0.88676300  0.73396400  1
  C  145  1  0.21629400  0.90420700  0.73468300  1
  C  146  1  0.20790000  0.91900100  0.72833700  1
  C  147  1  0.19179100  0.91569200  0.72121000  1
  C  148  1  0.16772000  0.89640000  0.69920700  1
  C  149  1  0.15267500  0.90663000  0.69585000  1
  C  150  1  0.14289900  0.90982900  0.70723200  1
  C  151  1  0.15168500  0.90165300  0.71790600  1
  C  152  1  0.12740600  0.92015700  0.70905900  1
  C  153  1  0.12120800  0.92260200  0.72205300  1
  C  154  1  0.12949700  0.91375700  0.73298300  1
  C  155  1  0.14483700  0.90311200  0.73082500  1
  C  156  1  0.18033400  0.89167200  0.68942800  1
  C  157  1  0.17815500  0.89782000  0.67622500  1
  C  158  1  0.16222300  0.90759900  0.67305700  1
  C  159  1  0.14957800  0.91225600  0.68278400  1
  C  172  1  0.16810600  0.89230900  0.71357400  1
  C  173  1  0.12195800  0.91386200  0.74541300  1
  C  174  1  0.19041800  0.89248700  0.66650600  1
  C  175  1  0.21301000  0.93677000  0.73077500  1
  C  176  1  0.14323200  0.83068000  0.71292500  1
  C  181  1  0.19265100  0.89025400  0.49470600  1
  C  182  1  0.17825300  0.89877500  0.48837000  1
  C  183  1  0.16259300  0.88874600  0.49063500  1
  C  184  1  0.16733600  0.87396700  0.49838700  1
  C  185  1  0.15443700  0.86133400  0.50228000  1
  C  186  1  0.13621600  0.86312400  0.49849300  1
  C  187  1  0.13145800  0.87829000  0.49067100  1
  C  188  1  0.14454300  0.89104600  0.48673100  1
  C  189  1  0.18125100  0.91469100  0.48121900  1
  C  190  1  0.19880200  0.92183400  0.48043700  1
  C  191  1  0.21360800  0.91336600  0.48676000  1
  C  192  1  0.21015800  0.89734400  0.49391400  1
  C  193  1  0.19080100  0.87311200  0.51590700  1
  C  194  1  0.20101800  0.85822700  0.51950500  1
  C  195  1  0.20430600  0.84863300  0.50802000  1
  C  196  1  0.19609000  0.85738200  0.49730600  1
  C  197  1  0.21461300  0.83317800  0.50614100  1
  C  198  1  0.21707100  0.82707200  0.49312200  1
  C  199  1  0.20818300  0.83534000  0.48219900  1
  C  200  1  0.19751100  0.85062100  0.48436800  1
  C  201  1  0.18553100  0.88549400  0.52553000  1
  C  202  1  0.19044200  0.88318500  0.53900500  1
  C  203  1  0.20101500  0.86802800  0.54250600  1
  C  204  1  0.20639400  0.85549800  0.53275800  1
  C  217  1  0.18670900  0.87373400  0.50155500  1
  C  218  1  0.20817800  0.82775000  0.46980900  1
  C  219  1  0.18392500  0.89611500  0.54770400  1
  C  220  1  0.23151900  0.91862000  0.48483100  1
  C  221  1  0.12484000  0.84908900  0.50226600  1
  C  226  1  0.39251600  0.10588400  0.99468700  1
  C  227  1  0.40691700  0.09735500  0.98836400  1
  C  228  1  0.42257500  0.10738100  0.99063100  1
  C  229  1  0.41783000  0.12216300  0.99838300  1
  C  230  1  0.43073400  0.13478500  0.00228600  1
  C  231  1  0.44895900  0.13298400  0.99851000  1
  C  232  1  0.45371000  0.11783200  0.99066800  1
  C  233  1  0.44062700  0.10507500  0.98673100  1
  C  234  1  0.40392400  0.08143400  0.98121800  1
  C  235  1  0.38637000  0.07430200  0.98042500  1
  C  236  1  0.37156900  0.08274900  0.98676600  1
  C  237  1  0.37501300  0.09878700  0.99390400  1
  C  238  1  0.39435900  0.12301700  0.01589900  1
  C  239  1  0.38415200  0.13791000  0.01950000  1
  C  240  1  0.38086000  0.14751700  0.00801800  1
  C  241  1  0.38907700  0.13876500  0.99730600  1
  C  242  1  0.37056700  0.16298500  0.00613600  1
  C  243  1  0.36814100  0.16911400  0.99311100  1
  C  244  1  0.37701200  0.16082400  0.98219100  1
  C  245  1  0.38766900  0.14553400  0.98437000  1
  C  246  1  0.39962700  0.11062500  0.02551600  1
  C  247  1  0.39471400  0.11293100  0.03898900  1
  C  248  1  0.38414900  0.12809200  0.04249500  1
  C  249  1  0.37876500  0.14062400  0.03275200  1
  C  262  1  0.39845500  0.12240400  0.00154800  1
  C  263  1  0.37692600  0.16830200  0.96974800  1
  C  264  1  0.40124600  0.10002300  0.04769600  1
  C  265  1  0.35365600  0.07749300  0.98485300  1
  C  266  1  0.46033100  0.14703000  0.00226800  1
  C  271  1  0.18452600  0.09775400  0.24470400  1
  C  272  1  0.19306800  0.11212100  0.23837200  1
  C  273  1  0.18301200  0.12774000  0.24063600  1
  C  274  1  0.16819700  0.12300600  0.24838600  1
  C  275  1  0.15553500  0.13587500  0.25228000  1
  C  276  1  0.15733100  0.15405100  0.24849200  1
  C  277  1  0.17253200  0.15880100  0.24066900  1
  C  278  1  0.18531900  0.14574900  0.23673100  1
  C  279  1  0.20902200  0.10913400  0.23122000  1
  C  280  1  0.21618300  0.09162500  0.23043500  1
  C  281  1  0.20770200  0.07685500  0.23676200  1
  C  282  1  0.19164200  0.08029000  0.24391800  1
  C  283  1  0.16734400  0.09959400  0.26590700  1
  C  284  1  0.15242500  0.08939600  0.26950500  1
  C  285  1  0.14280000  0.08611300  0.25802000  1
  C  286  1  0.15157700  0.09431300  0.24731100  1
  C  287  1  0.12729400  0.07585000  0.25613300  1
  C  288  1  0.12115500  0.07343300  0.24311300  1
  C  289  1  0.12946400  0.08229900  0.23219800  1
  C  290  1  0.14480000  0.09291200  0.23437500  1
  C  291  1  0.17975500  0.10485900  0.27552700  1
  C  292  1  0.17743800  0.09996900  0.28900300  1
  C  293  1  0.16224800  0.08941900  0.29250500  1
  C  294  1  0.14969200  0.08404100  0.28275900  1
  C  307  1  0.16796700  0.10367700  0.25155600  1
  C  308  1  0.12189400  0.08234800  0.21979400  1
  C  309  1  0.19039400  0.10647700  0.29770400  1
  C  310  1  0.21295600  0.05898300  0.23482600  1
  C  311  1  0.14326900  0.16540900  0.25226300  1
  C  316  1  0.40066700  0.89836200  0.74469300  1
  C  317  1  0.39211500  0.88399400  0.73836700  1
  C  318  1  0.40216500  0.86837400  0.74063300  1
  C  319  1  0.41698000  0.87310500  0.74838500  1
  C  320  1  0.42963500  0.86023200  0.75228200  1
  C  321  1  0.42783900  0.84205600  0.74849300  1
  C  322  1  0.41263800  0.83731000  0.74067000  1
  C  323  1  0.39985200  0.85036400  0.73673300  1
  C  324  1  0.37615800  0.88698100  0.73122000  1
  C  325  1  0.36900700  0.90449200  0.73042700  1
  C  326  1  0.37747400  0.91926000  0.73676800  1
  C  327  1  0.39354900  0.91582300  0.74390600  1
  C  328  1  0.41783800  0.89652200  0.76590200  1
  C  329  1  0.43275900  0.90671400  0.76950200  1
  C  330  1  0.44239900  0.90998200  0.75802100  1
  C  331  1  0.43362900  0.90178600  0.74730800  1
  C  332  1  0.45790500  0.92025000  0.75613900  1
  C  333  1  0.46404100  0.92268100  0.74312100  1
  C  334  1  0.45573400  0.91384200  0.73219200  1
  C  335  1  0.44042100  0.90319200  0.73437300  1
  C  336  1  0.40542400  0.89126200  0.77552400  1
  C  337  1  0.40773200  0.89615800  0.78900100  1
  C  338  1  0.42292200  0.90670600  0.79250300  1
  C  339  1  0.43548600  0.91207400  0.78275800  1
  C  352  1  0.41722400  0.89243600  0.75154900  1
  C  353  1  0.46320700  0.91398500  0.71975300  1
  C  354  1  0.39476500  0.88966000  0.79770000  1
  C  355  1  0.37220400  0.93713000  0.73485500  1
  C  356  1  0.44190700  0.83070400  0.75226200  1
  C  361  1  0.69184700  0.10578300  0.99485600  1
  C  362  1  0.67760300  0.09727000  0.98844800  1
  C  363  1  0.66219900  0.10729100  0.99055700  1
  C  364  1  0.66643100  0.12221700  0.99834800  1
  C  365  1  0.65313700  0.13473700  0.00190700  1
  C  366  1  0.63527400  0.13197800  0.99764300  1
  C  367  1  0.63137500  0.11658600  0.98972600  1
  C  368  1  0.64465300  0.10423000  0.98618200  1
  C  369  1  0.68026100  0.08136100  0.98127700  1
  C  370  1  0.69768000  0.07408800  0.98053300  1
  C  371  1  0.71249300  0.08247400  0.98689400  1
  C  372  1  0.70926800  0.09855300  0.99405300  1
  C  373  1  0.68962300  0.12268800  0.01604300  1
  C  374  1  0.69986900  0.13769400  0.01940000  1
  C  375  1  0.70315600  0.14740400  0.00799900  1
  C  376  1  0.69500800  0.13862600  0.99731600  1
  C  377  1  0.71341700  0.16290500  0.00614700  1
  C  378  1  0.71582700  0.16905700  0.99314000  1
  C  379  1  0.70696600  0.16075800  0.98221200  1
  C  380  1  0.69636500  0.14542800  0.98438700  1
  C  381  1  0.68483000  0.11009100  0.02580000  1
  C  382  1  0.69095300  0.11224700  0.03901500  1
  C  383  1  0.70075200  0.12814200  0.04219300  1
  C  384  1  0.70545300  0.14076900  0.03247600  1
  C  397  1  0.68570000  0.12228300  0.00167200  1
  C  398  1  0.70689100  0.16836700  0.96983200  1
  C  399  1  0.68560200  0.09995600  0.04870300  1
  C  400  1  0.73024800  0.07739200  0.98440000  1
  C  401  1  0.62179400  0.14359100  0.00164800  1
  C  406  1  0.89332000  0.89032100  0.49485600  1
  C  407  1  0.90756200  0.89883900  0.48844400  1
  C  408  1  0.92296800  0.88882600  0.49055800  1
  C  409  1  0.91874000  0.87389800  0.49834500  1
  C  410  1  0.93203600  0.86138000  0.50190600  1
  C  411  1  0.94989700  0.86414100  0.49763900  1
  C  412  1  0.95379500  0.87953500  0.48972700  1
  C  413  1  0.94051700  0.89189400  0.48618900  1
  C  414  1  0.90490200  0.91475400  0.48127700  1
  C  415  1  0.88748600  0.92203600  0.48054600  1
  C  416  1  0.87267500  0.91362500  0.48689200  1
  C  417  1  0.87590000  0.89755300  0.49405700  1
  C  418  1  0.89554400  0.87342600  0.51603400  1
  C  419  1  0.88528900  0.85842700  0.51939300  1
  C  420  1  0.88202400  0.84869100  0.50800000  1
  C  421  1  0.89017400  0.85746200  0.49732200  1
  C  422  1  0.87177700  0.83317500  0.50615300  1
  C  423  1  0.86933600  0.82702400  0.49314600  1
  C  424  1  0.87820500  0.83531200  0.48222000  1
  C  425  1  0.88881000  0.85064500  0.48439500  1
  C  426  1  0.90035100  0.88602400  0.52578800  1
  C  427  1  0.89420800  0.88387800  0.53899400  1
  C  428  1  0.88443000  0.86797400  0.54218400  1
  C  429  1  0.87971600  0.85534800  0.53247200  1
  C  442  1  0.89946900  0.87382100  0.50166400  1
  C  443  1  0.87814100  0.82781700  0.46978100  1
  C  444  1  0.89961100  0.89606600  0.54871400  1
  C  445  1  0.85492300  0.91873100  0.48440600  1
  C  446  1  0.96337100  0.85250500  0.50161900  1
  C  451  1  0.68535000  0.89842200  0.74450800  1
  C  452  1  0.69396300  0.88399800  0.73829600  1
  C  453  1  0.68394800  0.86841300  0.74058700  1
  C  454  1  0.66912000  0.87318300  0.74830600  1
  C  455  1  0.65657700  0.86025500  0.75228800  1
  C  456  1  0.65845400  0.84206300  0.74854600  1
  C  457  1  0.67364600  0.83732800  0.74071200  1
  C  458  1  0.68639400  0.85039600  0.73676400  1
  C  459  1  0.71003800  0.88680300  0.73127100  1
  C  460  1  0.71735000  0.90422600  0.73055000  1
  C  461  1  0.70895500  0.91903900  0.73687400  1
  C  462  1  0.69273400  0.91578700  0.74388500  1
  C  463  1  0.66838000  0.89677400  0.76566400  1
  C  464  1  0.65329400  0.90707800  0.76892900  1
  C  465  1  0.64321200  0.91007200  0.75743600  1
  C  466  1  0.65201400  0.90167800  0.74687200  1
  C  467  1  0.62727700  0.91978300  0.75520400  1
  C  468  1  0.62042900  0.92113200  0.74214400  1
  C  469  1  0.62876500  0.91213800  0.73132000  1
  C  470  1  0.64478900  0.90249100  0.73397800  1
  C  471  1  0.68103700  0.89191100  0.77545300  1
  C  472  1  0.67900400  0.89796900  0.78869900  1
  C  473  1  0.66307300  0.90774000  0.79184600  1
  C  474  1  0.65039300  0.91249600  0.78210200  1
  C  487  1  0.66870100  0.89257100  0.75129800  1
  C  488  1  0.62343100  0.91354200  0.71800300  1
  C  489  1  0.69127700  0.89256200  0.79845400  1
  C  490  1  0.71409800  0.93680300  0.73446000  1
  C  491  1  0.64439400  0.83069900  0.75229000  1
  C  496  1  0.89981800  0.09769300  0.24450600  1
  C  497  1  0.89120400  0.11211700  0.23829300  1
  C  498  1  0.90122000  0.12770300  0.24058600  1
  C  499  1  0.91605300  0.12293200  0.24830100  1
  C  500  1  0.92860000  0.13585900  0.25228000  1
  C  501  1  0.92672600  0.15404800  0.24853600  1
  C  502  1  0.91152100  0.15879000  0.24071500  1
  C  503  1  0.89877400  0.14572000  0.23676500  1
  C  504  1  0.87511900  0.10931600  0.23127700  1
  C  505  1  0.86780200  0.09189400  0.23055600  1
  C  506  1  0.87621100  0.07708400  0.23687100  1
  C  507  1  0.89242800  0.08032800  0.24389000  1
  C  508  1  0.91679400  0.09934400  0.26566100  1
  C  509  1  0.93188500  0.08904900  0.26892600  1
  C  510  1  0.94197300  0.08606300  0.25743300  1
  C  511  1  0.93316000  0.09444000  0.24686600  1
  C  512  1  0.95790100  0.07634100  0.25520000  1
  C  513  1  0.96474200  0.07498100  0.24213800  1
  C  514  1  0.95639900  0.08396700  0.23131300  1
  C  515  1  0.94038600  0.09363000  0.23397200  1
  C  516  1  0.90412800  0.10418700  0.27544800  1
  C  517  1  0.90616800  0.09814700  0.28869900  1
  C  518  1  0.92208700  0.08835800  0.29184200  1
  C  519  1  0.93477700  0.08362100  0.28209900  1
  C  532  1  0.91647000  0.10354300  0.25129300  1
  C  533  1  0.96173800  0.08257400  0.21799400  1
  C  534  1  0.89389000  0.10353900  0.29847200  1
  C  535  1  0.87107700  0.05932200  0.23443500  1
  C  536  1  0.94077200  0.16542100  0.25229700  1
  C  541  1  0.89321000  0.10589900  0.47041000  1
  C  542  1  0.90743800  0.09727500  0.47677000  1
  C  543  1  0.92287800  0.10728100  0.47465900  1
  C  544  1  0.91865200  0.12228600  0.46694100  1
  C  545  1  0.93198300  0.13475100  0.46334100  1
  C  546  1  0.94985700  0.13195300  0.46756800  1
  C  547  1  0.95373700  0.11655200  0.47547500  1
  C  548  1  0.94044500  0.10419300  0.47900200  1
  C  549  1  0.90468500  0.08135600  0.48393400  1
  C  550  1  0.88720300  0.07419500  0.48473200  1
  C  551  1  0.87242000  0.08269400  0.47840200  1
  C  552  1  0.87577000  0.09873100  0.47122000  1
  C  553  1  0.89543900  0.12308900  0.44929500  1
  C  554  1  0.88523400  0.13798900  0.44571600  1
  C  555  1  0.88192200  0.14758800  0.45718700  1
  C  556  1  0.89006100  0.13880400  0.46790000  1
  C  557  1  0.87166500  0.16306500  0.45907000  1
  C  558  1  0.86921600  0.16915000  0.47209600  1
  C  559  1  0.87809500  0.16085600  0.48301600  1
  C  560  1  0.88871800  0.14555300  0.48083900  1
  C  561  1  0.90068200  0.11064300  0.43970100  1
  C  562  1  0.89560000  0.11295300  0.42628100  1
  C  563  1  0.88512300  0.12817500  0.42277000  1
  C  564  1  0.87985500  0.14075700  0.43248300  1
  C  577  1  0.89935500  0.12246100  0.46364100  1
  C  578  1  0.87805000  0.16835300  0.49543500  1
  C  579  1  0.90183600  0.10011600  0.41745900  1
  C  580  1  0.85456200  0.07743800  0.48036700  1
  C  581  1  0.96334500  0.14357800  0.46357800  1
  C  586  1  0.69195800  0.89020700  0.97041600  1
  C  587  1  0.67772900  0.89883400  0.97677200  1
  C  588  1  0.66229000  0.88883000  0.97465900  1
  C  589  1  0.66651900  0.87382300  0.96694200  1
  C  590  1  0.65318700  0.86136200  0.96334400  1
  C  591  1  0.63531200  0.86416600  0.96756300  1
  C  592  1  0.63143000  0.87956700  0.97546800  1
  C  593  1  0.64472500  0.89192000  0.97900300  1
  C  594  1  0.68047700  0.91475600  0.98393400  1
  C  595  1  0.69796200  0.92190800  0.98474100  1
  C  596  1  0.71274100  0.91343000  0.97839300  1
  C  597  1  0.70939500  0.89738000  0.97122400  1
  C  598  1  0.68973300  0.87302500  0.94929700  1
  C  599  1  0.69992900  0.85811600  0.94571500  1
  C  600  1  0.70325200  0.84851400  0.95718300  1
  C  601  1  0.69511200  0.85729900  0.96789500  1
  C  602  1  0.71349800  0.83302700  0.95906800  1
  C  603  1  0.71592300  0.82692400  0.97209200  1
  C  604  1  0.70705900  0.83523400  0.98302300  1
  C  605  1  0.69644800  0.85054400  0.98083200  1
  C  606  1  0.68449100  0.88547600  0.93970600  1
  C  607  1  0.68957600  0.88317100  0.92628500  1
  C  608  1  0.70004700  0.86794500  0.92277300  1
  C  609  1  0.70531900  0.85536000  0.93248400  1
  C  622  1  0.68581800  0.87364700  0.96364300  1
  C  623  1  0.70714700  0.82781900  0.99552000  1
  C  624  1  0.68332800  0.89599500  0.91745900  1
  C  625  1  0.73060000  0.91868800  0.98034100  1
  C  626  1  0.62181900  0.85256100  0.96355000  1
  C  631  1  0.90003200  0.89829000  0.72068700  1
  C  632  1  0.89125500  0.88398000  0.72690100  1
  C  633  1  0.90121400  0.86834300  0.72463300  1
  C  634  1  0.91612300  0.87307600  0.71698000  1
  C  635  1  0.92864200  0.86016900  0.71296300  1
  C  636  1  0.92673300  0.84199300  0.71669100  1
  C  637  1  0.91151200  0.83725800  0.72450200  1
  C  638  1  0.89875600  0.85032800  0.72844700  1
  C  639  1  0.87521100  0.88706100  0.73390700  1
  C  640  1  0.86828600  0.90466000  0.73470400  1
  C  641  1  0.87702300  0.91934300  0.72841300  1
  C  642  1  0.89298900  0.91574400  0.72124700  1
  C  643  1  0.91705400  0.89657500  0.69965900  1
  C  644  1  0.93213600  0.90689600  0.69641700  1
  C  645  1  0.94209800  0.90999700  0.70789000  1
  C  646  1  0.93329300  0.90156800  0.71842500  1
  C  647  1  0.95798100  0.91977800  0.71007700  1
  C  648  1  0.96479000  0.92117200  0.72313400  1
  C  649  1  0.95643600  0.91217700  0.73395200  1
  C  650  1  0.94045300  0.90246400  0.73131800  1
  C  651  1  0.90470900  0.89120800  0.68983700  1
  C  652  1  0.90779500  0.89593500  0.67645500  1
  C  653  1  0.92273700  0.90728000  0.67351400  1
  C  654  1  0.93504600  0.91255000  0.68332200  1
  C  667  1  0.91665300  0.89242200  0.71398900  1
  C  668  1  0.96176000  0.91356900  0.74725600  1
  C  669  1  0.89632500  0.88961000  0.66658600  1
  C  670  1  0.87235800  0.93735200  0.73038600  1
  C  671  1  0.94077600  0.83064900  0.71290500  1
  C  676  1  0.68513300  0.09783600  0.22068800  1
  C  677  1  0.69391200  0.11214700  0.22689600  1
  C  678  1  0.68395400  0.12778200  0.22463000  1
  C  679  1  0.66904700  0.12305000  0.21697500  1
  C  680  1  0.65653000  0.13595800  0.21295900  1
  C  681  1  0.65843400  0.15413400  0.21669100  1
  C  682  1  0.67365300  0.15886800  0.22450400  1
  C  683  1  0.68641300  0.14579700  0.22844300  1
  C  684  1  0.70995500  0.10906600  0.23390400  1
  C  685  1  0.71686400  0.09146200  0.23471600  1
  C  686  1  0.70814300  0.07677800  0.22841200  1
  C  687  1  0.69216600  0.08038100  0.22126000  1
  C  688  1  0.66811700  0.09954300  0.19965600  1
  C  689  1  0.65303000  0.08922400  0.19641600  1
  C  690  1  0.64306800  0.08612600  0.20789000  1
  C  691  1  0.65187300  0.09455500  0.21842400  1
  C  692  1  0.62719200  0.07633900  0.21008300  1
  C  693  1  0.62038100  0.07495000  0.22313900  1
  C  694  1  0.62872200  0.08396000  0.23395600  1
  C  695  1  0.64471300  0.09366200  0.23131800  1
  C  696  1  0.68046100  0.10490600  0.18983000  1
  C  697  1  0.67736800  0.10016900  0.17645300  1
  C  698  1  0.66243100  0.08881800  0.17351500  1
  C  699  1  0.65011500  0.08356800  0.18332200  1
  C  712  1  0.66851400  0.10370200  0.21398500  1
  C  713  1  0.62340900  0.08255900  0.24726400  1
  C  714  1  0.68883900  0.10642400  0.16657300  1
  C  715  1  0.71282000  0.05877000  0.23036000  1
  C  716  1  0.64438500  0.16547200  0.21290700  1
  C  721  1  0.89361800  0.38991500  0.47068700  1
  C  722  1  0.90808200  0.39850700  0.47689400  1
  C  723  1  0.92370100  0.38850800  0.47460700  1
  C  724  1  0.91891900  0.37371200  0.46689100  1
  C  725  1  0.93187600  0.36119300  0.46291400  1
  C  726  1  0.95010900  0.36306200  0.46665900  1
  C  727  1  0.95486100  0.37822800  0.47448200  1
  C  728  1  0.94176300  0.39094900  0.47842700  1
  C  729  1  0.90527800  0.41455000  0.48391500  1
  C  730  1  0.88781500  0.42185100  0.48464300  1
  C  731  1  0.87296100  0.41348800  0.47832300  1
  C  732  1  0.87621300  0.39729400  0.47131400  1
  C  733  1  0.89527600  0.37297100  0.44953200  1
  C  734  1  0.88495400  0.35791900  0.44626700  1
  C  735  1  0.88195100  0.34786200  0.45776300  1
  C  736  1  0.89035900  0.35664700  0.46832700  1
  C  737  1  0.87222300  0.33196100  0.45999200  1
  C  738  1  0.87086000  0.32513400  0.47305400  1
  C  739  1  0.87986300  0.33346000  0.48388000  1
  C  740  1  0.88954300  0.34943800  0.48122200  1
  C  741  1  0.90013600  0.38560400  0.43974500  1
  C  742  1  0.89407800  0.38357400  0.42649300  1
  C  743  1  0.88427300  0.36768600  0.42334900  1
  C  744  1  0.87952000  0.35503100  0.43309400  1
  C  757  1  0.89948300  0.37330000  0.46390100  1
  C  758  1  0.87846200  0.32813100  0.49719900  1
  C  759  1  0.89947500  0.39586900  0.41674900  1
  C  760  1  0.85516900  0.41864700  0.48076300  1
  C  761  1  0.96151000  0.34904800  0.46289900  1
  C  766  1  0.69154900  0.60620600  0.97068600  1
  C  767  1  0.67709000  0.59761700  0.97689900  1
  C  768  1  0.66146600  0.60760900  0.97460500  1
  C  769  1  0.66624700  0.62240600  0.96688900  1
  C  770  1  0.65329100  0.63492600  0.96291200  1
  C  771  1  0.63506000  0.63306100  0.96666100  1
  C  772  1  0.63030700  0.61789100  0.97448000  1
  C  773  1  0.64340700  0.60517400  0.97843000  1
  C  774  1  0.67989500  0.58156900  0.98391500  1
  C  775  1  0.69735600  0.57426100  0.98463200  1
  C  776  1  0.71220700  0.58264800  0.97832500  1
  C  777  1  0.70895500  0.59882900  0.97130700  1
  C  778  1  0.68988900  0.62314500  0.94953100  1
  C  779  1  0.70021500  0.63819700  0.94626400  1
  C  780  1  0.70322000  0.64825300  0.95775800  1
  C  781  1  0.69480900  0.63946900  0.96832200  1
  C  782  1  0.71294200  0.66416000  0.95998700  1
  C  783  1  0.71430600  0.67098200  0.97304900  1
  C  784  1  0.70531400  0.66264700  0.98387500  1
  C  785  1  0.69561900  0.64667800  0.98121500  1
  C  786  1  0.68501800  0.61051400  0.93974500  1
  C  787  1  0.69109600  0.61253600  0.92650300  1
  C  788  1  0.70088400  0.62843300  0.92335100  1
  C  789  1  0.70564900  0.64108700  0.93309100  1
  C  802  1  0.68568300  0.62281900  0.96389600  1
  C  803  1  0.70669600  0.66798500  0.99718700  1
  C  804  1  0.68565200  0.60033900  0.91673000  1
  C  805  1  0.72999700  0.57746700  0.98075600  1
  C  806  1  0.62365700  0.64707000  0.96289500  1
  C  811  1  0.89940000  0.59973700  0.72033300  1
  C  812  1  0.89086300  0.61394400  0.72674600  1
  C  813  1  0.90090700  0.62931000  0.72463800  1
  C  814  1  0.91586700  0.62509000  0.71685000  1
  C  815  1  0.92841500  0.63835000  0.71328900  1
  C  816  1  0.92564200  0.65617200  0.71754600  1
  C  817  1  0.91021800  0.66006200  0.72546400  1
  C  818  1  0.89783500  0.64681600  0.72901100  1
  C  819  1  0.87492200  0.61128700  0.73392100  1
  C  820  1  0.86763800  0.59390500  0.73465700  1
  C  821  1  0.87605400  0.57913100  0.72829400  1
  C  822  1  0.89216200  0.58235700  0.72113000  1
  C  823  1  0.91633700  0.60194600  0.69916000  1
  C  824  1  0.93137600  0.59172000  0.69579900  1
  C  825  1  0.94111000  0.58843700  0.70719500  1
  C  826  1  0.93231200  0.59657200  0.71787000  1
  C  827  1  0.95664700  0.57819800  0.70904900  1
  C  828  1  0.96283300  0.57581100  0.72205500  1
  C  829  1  0.95451200  0.58465700  0.73298100  1
  C  830  1  0.93913500  0.59522000  0.73079700  1
  C  831  1  0.90371600  0.60675500  0.68940900  1
  C  832  1  0.90587200  0.60062100  0.67620800  1
  C  833  1  0.92181100  0.59086400  0.67301300  1
  C  834  1  0.93446300  0.58615500  0.68272400  1
  C  847  1  0.91593500  0.60586500  0.71352600  1
  C  848  1  0.96209900  0.58475100  0.74542100  1
  C  849  1  0.89359100  0.60598700  0.66653200  1
  C  850  1  0.87099000  0.56140500  0.73076200  1
  C  851  1  0.93726600  0.66962100  0.71352300  1
  C  856  1  0.68576700  0.39638500  0.22033800  1
  C  857  1  0.69430500  0.38217800  0.22675100  1
  C  858  1  0.68426600  0.36680900  0.22464000  1
  C  859  1  0.66930200  0.37102900  0.21685400  1
  C  860  1  0.65675600  0.35776700  0.21329100  1
  C  861  1  0.65952400  0.33994500  0.21755400  1
  C  862  1  0.67494900  0.33605700  0.22547100  1
  C  863  1  0.68733700  0.34930200  0.22901200  1
  C  864  1  0.71025600  0.38483400  0.23391900  1
  C  865  1  0.71754600  0.40221400  0.23465400  1
  C  866  1  0.70911600  0.41698100  0.22829700  1
  C  867  1  0.69301000  0.41376400  0.22112800  1
  C  868  1  0.66882600  0.39417000  0.19916700  1
  C  869  1  0.65379000  0.40439800  0.19580600  1
  C  870  1  0.64403200  0.40764400  0.20719600  1
  C  871  1  0.65284200  0.39953500  0.21787500  1
  C  872  1  0.62851200  0.41791300  0.20904900  1
  C  873  1  0.62233100  0.42031700  0.22205500  1
  C  874  1  0.63064600  0.41146900  0.23298100  1
  C  875  1  0.64602100  0.40090100  0.23080300  1
  C  876  1  0.68146000  0.38938800  0.18941800  1
  C  877  1  0.67929700  0.39550200  0.17621000  1
  C  878  1  0.66336800  0.40527600  0.17301900  1
  C  879  1  0.65070600  0.40996200  0.18272900  1
  C  892  1  0.66923000  0.39025400  0.21353300  1
  C  893  1  0.62307700  0.41141300  0.24542900  1
  C  894  1  0.69158600  0.39015200  0.16651800  1
  C  895  1  0.71417100  0.43470700  0.23078900  1
  C  896  1  0.64788400  0.32649800  0.21354800  1
  C  901  1  0.69162800  0.38985600  0.99434000  1
  C  902  1  0.67717900  0.39855400  0.98820100  1
  C  903  1  0.66151800  0.38856100  0.99049400  1
  C  904  1  0.66630000  0.37367300  0.99812200  1
  C  905  1  0.65333600  0.36119800  0.00217900  1
  C  906  1  0.63508800  0.36309400  0.99849300  1
  C  907  1  0.63033300  0.37828100  0.99068900  1
  C  908  1  0.64343200  0.39100900  0.98673500  1
  C  909  1  0.68010400  0.41462200  0.98121900  1
  C  910  1  0.69764000  0.42179800  0.98045400  1
  C  911  1  0.71245900  0.41330900  0.98674400  1
  C  912  1  0.70906400  0.39715400  0.99375500  1
  C  913  1  0.68990900  0.37273300  0.01537700  1
  C  914  1  0.70021800  0.35770900  0.01871100  1
  C  915  1  0.70328400  0.34775500  0.00723600  1
  C  916  1  0.69487400  0.35656100  0.99668100  1
  C  917  1  0.71299700  0.33185500  0.00506200  1
  C  918  1  0.71436600  0.32504600  0.99201000  1
  C  919  1  0.70536300  0.33339400  0.98118500  1
  C  920  1  0.69565800  0.34935400  0.98380700  1
  C  921  1  0.68448000  0.38506500  0.02512800  1
  C  922  1  0.68943200  0.38230600  0.03850500  1
  C  923  1  0.70031700  0.36716400  0.04166200  1
  C  924  1  0.70566600  0.35482200  0.03188100  1
  C  937  1  0.68574600  0.37320100  0.00105400  1
  C  938  1  0.70672200  0.32808100  0.96788300  1
  C  939  1  0.68301300  0.39403500  0.04810300  1
  C  940  1  0.73036100  0.41861900  0.98484400  1
  C  941  1  0.62367700  0.34909700  0.00228500  1
  C  946  1  0.89354600  0.60626800  0.49434000  1
  C  947  1  0.90799600  0.59756900  0.48820200  1
  C  948  1  0.92365600  0.60756200  0.49049500  1
  C  949  1  0.91887600  0.62244900  0.49812000  1
  C  950  1  0.93184200  0.63491600  0.50218300  1
  C  951  1  0.95009600  0.63301100  0.49850800  1
  C  952  1  0.95484200  0.61784000  0.49068800  1
  C  953  1  0.94174400  0.60511100  0.48673600  1
  C  954  1  0.90507300  0.58150200  0.48122200  1
  C  955  1  0.88753400  0.57433900  0.48044400  1
  C  956  1  0.87271800  0.58280500  0.48675400  1
  C  957  1  0.87611000  0.59897300  0.49375000  1
  C  958  1  0.89526300  0.62338700  0.51537400  1
  C  959  1  0.88495200  0.63841200  0.51870300  1
  C  960  1  0.88188600  0.64836700  0.50722800  1
  C  961  1  0.89030000  0.63956400  0.49667300  1
  C  962  1  0.87217100  0.66426700  0.50505500  1
  C  963  1  0.87080200  0.67107600  0.49200200  1
  C  964  1  0.87981900  0.66274200  0.48118200  1
  C  965  1  0.88950600  0.64676900  0.48380100  1
  C  966  1  0.90068600  0.61105300  0.52512800  1
  C  967  1  0.89574600  0.61382600  0.53850500  1
  C  968  1  0.88485200  0.62896800  0.54165400  1
  C  969  1  0.87949700  0.64130100  0.53187100  1
  C  982  1  0.89942800  0.62292300  0.50105000  1
  C  983  1  0.87845000  0.66804800  0.46787900  1
  C  984  1  0.90217700  0.60212100  0.54812000  1
  C  985  1  0.85481400  0.57749300  0.48486900  1
  C  986  1  0.96149400  0.64703000  0.50228200  1
  C  991  1  0.68548600  0.59984900  0.74477000  1
  C  992  1  0.69422100  0.61395400  0.73839800  1
  C  993  1  0.68423800  0.62937300  0.74049000  1
  C  994  1  0.66917500  0.62517800  0.74818500  1
  C  995  1  0.65669200  0.63843500  0.75182200  1
  C  996  1  0.65952700  0.65625100  0.74761000  1
  C  997  1  0.67496900  0.66013600  0.73970300  1
  C  998  1  0.68736200  0.64688700  0.73616200  1
  C  999  1  0.71016400  0.61103400  0.73127400  1
  C  1000  1  0.71705800  0.59347600  0.73046200  1
  C  1001  1  0.70828900  0.57883200  0.73678400  1
  C  1002  1  0.69241700  0.58239600  0.74407600  1
  C  1003  1  0.66846800  0.60205200  0.76578000  1
  C  1004  1  0.65350600  0.59177000  0.76919400  1
  C  1005  1  0.64385600  0.58845100  0.75781800  1
  C  1006  1  0.65262200  0.59664900  0.74715700  1
  C  1007  1  0.62837100  0.57815300  0.75600800  1
  C  1008  1  0.62224800  0.57569700  0.74300400  1
  C  1009  1  0.63057100  0.58455900  0.73208600  1
  C  1010  1  0.64588700  0.59520500  0.73423100  1
  C  1011  1  0.68087700  0.60732000  0.77546500  1
  C  1012  1  0.67804100  0.60226300  0.78879500  1
  C  1013  1  0.66286100  0.59140200  0.79200100  1
  C  1014  1  0.65049500  0.58612400  0.78226100  1
  C  1027  1  0.66895300  0.60598000  0.75147200  1
  C  1028  1  0.62301500  0.58463400  0.71968900  1
  C  1029  1  0.68978400  0.60867000  0.79831800  1
  C  1030  1  0.71288800  0.56085900  0.73477600  1
  C  1031  1  0.64788300  0.66966600  0.75164100  1
  C  1036  1  0.89970300  0.39626700  0.24476200  1
  C  1037  1  0.89095500  0.38216100  0.23840100  1
  C  1038  1  0.90093400  0.36674400  0.24049500  1
  C  1039  1  0.91600100  0.37093900  0.24818700  1
  C  1040  1  0.92848400  0.35767800  0.25182200  1
  C  1041  1  0.92564600  0.33986400  0.24760900  1
  C  1042  1  0.91019700  0.33597900  0.23970800  1
  C  1043  1  0.89780400  0.34923100  0.23617000  1
  C  1044  1  0.87500800  0.38507800  0.23128100  1
  C  1045  1  0.86813200  0.40264200  0.23045200  1
  C  1046  1  0.87688600  0.41728700  0.23678600  1
  C  1047  1  0.89277500  0.41372100  0.24406000  1
  C  1048  1  0.91671100  0.39406700  0.26577600  1
  C  1049  1  0.93167500  0.40434500  0.26919200  1
  C  1050  1  0.94134200  0.40764800  0.25782100  1
  C  1051  1  0.93258200  0.39945400  0.24715400  1
  C  1052  1  0.95682700  0.41794600  0.25601700  1
  C  1053  1  0.96295000  0.42041400  0.24301300  1
  C  1054  1  0.95463000  0.41157700  0.23208400  1
  C  1055  1  0.93933500  0.40089800  0.23423100  1
  C  1056  1  0.90430500  0.38879300  0.27546100  1
  C  1057  1  0.90713000  0.39385900  0.28879100  1
  C  1058  1  0.92231000  0.40471800  0.29199900  1
  C  1059  1  0.93468300  0.40999000  0.28226100  1
  C  1072  1  0.91623500  0.39013700  0.25146700  1
  C  1073  1  0.96208400  0.41170500  0.21966000  1
  C  1074  1  0.89537800  0.38746700  0.29831300  1
  C  1075  1  0.87227100  0.43525800  0.23480500  1
  C  1076  1  0.93731000  0.32645400  0.25161600  1
  C  1081  1  0.19320700  0.60622300  0.49461000  1
  C  1082  1  0.17891600  0.59754400  0.48836100  1
  C  1083  1  0.16351400  0.60751700  0.49050100  1
  C  1084  1  0.16777900  0.62253300  0.49819500  1
  C  1085  1  0.15438200  0.63488900  0.50186200  1
  C  1086  1  0.13649800  0.63201800  0.49767100  1
  C  1087  1  0.13262900  0.61660900  0.48977200  1
  C  1088  1  0.14594200  0.60429800  0.48623100  1
  C  1089  1  0.18147400  0.58150100  0.48132300  1
  C  1090  1  0.19886500  0.57417800  0.48058000  1
  C  1091  1  0.21369800  0.58256400  0.48691000  1
  C  1092  1  0.21054500  0.59876600  0.49395600  1
  C  1093  1  0.19117800  0.62321200  0.51570300  1
  C  1094  1  0.20149200  0.63826000  0.51897400  1
  C  1095  1  0.20453200  0.64831300  0.50747200  1
  C  1096  1  0.19619500  0.63950400  0.49689900  1
  C  1097  1  0.21419600  0.66424000  0.50521600  1
  C  1098  1  0.21552800  0.67104400  0.49214300  1
  C  1099  1  0.20652400  0.66269500  0.48132600  1
  C  1100  1  0.19691200  0.64669100  0.48399800  1
  C  1101  1  0.18626300  0.61056200  0.52546600  1
  C  1102  1  0.19228100  0.61257400  0.53872700  1
  C  1103  1  0.20208300  0.62845800  0.54188800  1
  C  1104  1  0.20686600  0.64113200  0.53215900  1
  C  1117  1  0.18714500  0.62287200  0.50133300  1
  C  1118  1  0.20786300  0.66800300  0.46800200  1
  C  1119  1  0.18687700  0.60026200  0.54846200  1
  C  1120  1  0.23143500  0.57740800  0.48442200  1
  C  1121  1  0.12297900  0.64359000  0.50167300  1
  C  1126  1  0.39196100  0.38988800  0.99460800  1
  C  1127  1  0.40624900  0.39857000  0.98835400  1
  C  1128  1  0.42165600  0.38860200  0.99049900  1
  C  1129  1  0.41739200  0.37358500  0.99819500  1
  C  1130  1  0.43078900  0.36123000  0.00186400  1
  C  1131  1  0.44867200  0.36410300  0.99766300  1
  C  1132  1  0.45254200  0.37951300  0.98977000  1
  C  1133  1  0.43922800  0.39182500  0.98623300  1
  C  1134  1  0.40369100  0.41461700  0.98132100  1
  C  1135  1  0.38630100  0.42194900  0.98058900  1
  C  1136  1  0.37147100  0.41353800  0.98690500  1
  C  1137  1  0.37462300  0.39734600  0.99395400  1
  C  1138  1  0.39399400  0.37290600  0.01570100  1
  C  1139  1  0.38367800  0.35785800  0.01897200  1
  C  1140  1  0.38063800  0.34780300  0.00747100  1
  C  1141  1  0.38897600  0.35660900  0.99689900  1
  C  1142  1  0.37097900  0.33187300  0.00521800  1
  C  1143  1  0.36963700  0.32507100  0.99213900  1
  C  1144  1  0.37862300  0.33342800  0.98131800  1
  C  1145  1  0.38825800  0.34941800  0.98399300  1
  C  1146  1  0.39891800  0.38555900  0.02546000  1
  C  1147  1  0.39288200  0.38355100  0.03871300  1
  C  1148  1  0.38309700  0.36765800  0.04188300  1
  C  1149  1  0.37830400  0.35498800  0.03215800  1
  C  1162  1  0.39802600  0.37324000  0.00133100  1
  C  1163  1  0.37728500  0.32811100  0.96799300  1
  C  1164  1  0.39833500  0.39576600  0.04847900  1
  C  1165  1  0.35373600  0.41871700  0.98442600  1
  C  1166  1  0.46218600  0.35250900  0.00164900  1
  C  1171  1  0.18416400  0.39657700  0.24461100  1
  C  1172  1  0.19286000  0.38232100  0.23835800  1
  C  1173  1  0.18286600  0.36695500  0.24049900  1
  C  1174  1  0.16781900  0.37120900  0.24819700  1
  C  1175  1  0.15543400  0.35784600  0.25186400  1
  C  1176  1  0.15831800  0.34000200  0.24767800  1
  C  1177  1  0.17375700  0.33614100  0.23977500  1
  C  1178  1  0.18609400  0.34942400  0.23622900  1
  C  1179  1  0.20893500  0.38487400  0.23131400  1
  C  1180  1  0.21628300  0.40222200  0.23058000  1
  C  1181  1  0.20787900  0.41701800  0.23691500  1
  C  1182  1  0.19163800  0.41387400  0.24395700  1
  C  1183  1  0.16714900  0.39455400  0.26571100  1
  C  1184  1  0.15206500  0.40484500  0.26898100  1
  C  1185  1  0.14198200  0.40787400  0.25748000  1
  C  1186  1  0.15080900  0.39955700  0.24690600  1
  C  1187  1  0.12602300  0.41752200  0.25522200  1
  C  1188  1  0.11919700  0.41884800  0.24215000  1
  C  1189  1  0.12755600  0.40985900  0.23133100  1
  C  1190  1  0.14360300  0.40027700  0.23400400  1
  C  1191  1  0.17982200  0.38963600  0.27547800  1
  C  1192  1  0.17780900  0.39565200  0.28873700  1
  C  1193  1  0.16188200  0.40542200  0.29189700  1
  C  1194  1  0.14918400  0.41020200  0.28216700  1
  C  1207  1  0.16747900  0.39052800  0.25133900  1
  C  1208  1  0.12224200  0.41121600  0.21800700  1
  C  1209  1  0.19009200  0.39022300  0.29848900  1
  C  1210  1  0.21306900  0.43471500  0.23445400  1
  C  1211  1  0.14673300  0.32651300  0.25169700  1
  C  1216  1  0.40100500  0.59953900  0.74460600  1
  C  1217  1  0.39230700  0.61379500  0.73835300  1
  C  1218  1  0.40229900  0.62916400  0.74049600  1
  C  1219  1  0.41735000  0.62491000  0.74819000  1
  C  1220  1  0.42973400  0.63827500  0.75186100  1
  C  1221  1  0.42685500  0.65611700  0.74767000  1
  C  1222  1  0.41141300  0.65997800  0.73976800  1
  C  1223  1  0.39907200  0.64669700  0.73622900  1
  C  1224  1  0.37622400  0.61124500  0.73131700  1
  C  1225  1  0.36887200  0.59389900  0.73058300  1
  C  1226  1  0.37728800  0.57910600  0.73691000  1
  C  1227  1  0.39352500  0.58224200  0.74395900  1
  C  1228  1  0.41802500  0.60156600  0.76570500  1
  C  1229  1  0.43311300  0.59128400  0.76897500  1
  C  1230  1  0.44320100  0.58826200  0.75747300  1
  C  1231  1  0.43436500  0.59656400  0.74689600  1
  C  1232  1  0.45915500  0.57860300  0.75521500  1
  C  1233  1  0.46597500  0.57726700  0.74214200  1
  C  1234  1  0.45760800  0.58624700  0.73132200  1
  C  1235  1  0.44157200  0.59584600  0.73399500  1
  C  1236  1  0.40534100  0.60646200  0.77547100  1
  C  1237  1  0.40736200  0.60046400  0.78873500  1
  C  1238  1  0.42327900  0.59067700  0.79189000  1
  C  1239  1  0.43598500  0.58591500  0.78216000  1
  C  1252  1  0.41769200  0.60559000  0.75133100  1
  C  1253  1  0.46292700  0.58490000  0.71799500  1
  C  1254  1  0.39507600  0.60588000  0.79850500  1
  C  1255  1  0.37210800  0.56141000  0.73442700  1
  C  1256  1  0.43845400  0.66960600  0.75167300  1
  C  1261  1  0.39191100  0.60622300  0.97065600  1
  C  1262  1  0.40617800  0.59746400  0.97687000  1
  C  1263  1  0.42162100  0.60743400  0.97473600  1
  C  1264  1  0.41736900  0.62251300  0.96710500  1
  C  1265  1  0.43076100  0.63485700  0.96339700  1
  C  1266  1  0.44865600  0.63197600  0.96755200  1
  C  1267  1  0.45252300  0.61656300  0.97544600  1
  C  1268  1  0.43921000  0.60423100  0.97898000  1
  C  1269  1  0.40348800  0.58143500  0.98391400  1
  C  1270  1  0.38601900  0.57424700  0.98470300  1
  C  1271  1  0.37122600  0.58275300  0.97839400  1
  C  1272  1  0.37453000  0.59888800  0.97131500  1
  C  1273  1  0.39406800  0.62335500  0.94965100  1
  C  1274  1  0.38380500  0.63844600  0.94639100  1
  C  1275  1  0.38065900  0.64837800  0.95786900  1
  C  1276  1  0.38896400  0.63952000  0.96842300  1
  C  1277  1  0.37097800  0.66429100  0.96006700  1
  C  1278  1  0.36961600  0.67107700  0.97313100  1
  C  1279  1  0.37860700  0.66270700  0.98394700  1
  C  1280  1  0.38823900  0.64671000  0.98130500  1
  C  1281  1  0.39957400  0.61108600  0.93983100  1
  C  1282  1  0.39491800  0.61419400  0.92643800  1
  C  1283  1  0.38355000  0.62909900  0.92348200  1
  C  1284  1  0.37825600  0.64139300  0.93327700  1
  C  1297  1  0.39800600  0.62289100  0.96399800  1
  C  1298  1  0.37728400  0.66802600  0.99725600  1
  C  1299  1  0.40121600  0.60274700  0.91656300  1
  C  1300  1  0.35338000  0.57744500  0.98034900  1
  C  1301  1  0.46216600  0.64357400  0.96355500  1
  C  1306  1  0.19325600  0.38988700  0.47066900  1
  C  1307  1  0.17898900  0.39864700  0.47688000  1
  C  1308  1  0.16354600  0.38867800  0.47474600  1
  C  1309  1  0.16780100  0.37359800  0.46711700  1
  C  1310  1  0.15440900  0.36125700  0.46340400  1
  C  1311  1  0.13651200  0.36414300  0.46755100  1
  C  1312  1  0.13264400  0.37955700  0.47544400  1
  C  1313  1  0.14595500  0.39188400  0.47898500  1
  C  1314  1  0.18167500  0.41468000  0.48391900  1
  C  1315  1  0.19914500  0.42185800  0.48471800  1
  C  1316  1  0.21393600  0.41337300  0.47838900  1
  C  1317  1  0.21063600  0.39722300  0.47132500  1
  C  1318  1  0.19109800  0.37275300  0.44966300  1
  C  1319  1  0.20136200  0.35766500  0.44640200  1
  C  1320  1  0.20451500  0.34773700  0.45788100  1
  C  1321  1  0.19620600  0.35659100  0.46843500  1
  C  1322  1  0.21419500  0.33182400  0.46007700  1
  C  1323  1  0.21555800  0.32503700  0.47314000  1
  C  1324  1  0.20655500  0.33339600  0.48395600  1
  C  1325  1  0.19693900  0.34940400  0.48131800  1
  C  1326  1  0.18558900  0.38502100  0.43984300  1
  C  1327  1  0.19024100  0.38192000  0.42644500  1
  C  1328  1  0.20159900  0.36701100  0.42348800  1
  C  1329  1  0.20691400  0.35472700  0.43328600  1
  C  1342  1  0.18716200  0.37321700  0.46401100  1
  C  1343  1  0.20788700  0.32808800  0.49726600  1
  C  1344  1  0.18389300  0.39336900  0.41657700  1
  C  1345  1  0.23178300  0.41868100  0.48032500  1
  C  1346  1  0.12300000  0.35256600  0.46353200  1
  C  1351  1  0.40110100  0.39668700  0.22065500  1
  C  1352  1  0.39229900  0.38244400  0.22685500  1
  C  1353  1  0.40228500  0.36704400  0.22471500  1
  C  1354  1  0.41741200  0.37129700  0.21708900  1
  C  1355  1  0.42974500  0.35789500  0.21338400  1
  C  1356  1  0.42683100  0.34004200  0.21754000  1
  C  1357  1  0.41137600  0.33619700  0.22543000  1
  C  1358  1  0.39903600  0.34949600  0.22895800  1
  C  1359  1  0.37621300  0.38509000  0.23389200  1
  C  1360  1  0.36898300  0.40250400  0.23469300  1
  C  1361  1  0.37749400  0.41727000  0.22838700  1
  C  1362  1  0.39368700  0.41400400  0.22131400  1
  C  1363  1  0.41841100  0.39465700  0.19961900  1
  C  1364  1  0.43340400  0.40489800  0.19613500  1
  C  1365  1  0.44335500  0.40798100  0.20771300  1
  C  1366  1  0.43450600  0.39967800  0.21831800  1
  C  1367  1  0.45930400  0.41760000  0.21001000  1
  C  1368  1  0.46606700  0.41892800  0.22310200  1
  C  1369  1  0.45767700  0.40994300  0.23391300  1
  C  1370  1  0.44165400  0.40035500  0.23122900  1
  C  1371  1  0.40588900  0.38931300  0.19001000  1
  C  1372  1  0.40809600  0.39426100  0.17654700  1
  C  1373  1  0.42334800  0.40473000  0.17307400  1
  C  1374  1  0.43598700  0.41007000  0.18280400  1
  C  1387  1  0.41784900  0.39064400  0.21396700  1
  C  1388  1  0.46296200  0.41125000  0.24724300  1
  C  1389  1  0.39523200  0.38797100  0.16765900  1
  C  1390  1  0.37216400  0.43507000  0.23035300  1
  C  1391  1  0.43844100  0.32654400  0.21355100  1
  C  1396  1  0.18406300  0.59943700  0.72065200  1
  C  1397  1  0.19286800  0.61368000  0.72685200  1
  C  1398  1  0.18288400  0.62907900  0.72471100  1
  C  1399  1  0.16775600  0.62482600  0.71708300  1
  C  1400  1  0.15542200  0.63822700  0.71338300  1
  C  1401  1  0.15833500  0.65608000  0.71753800  1
  C  1402  1  0.17379200  0.65992500  0.72542700  1
  C  1403  1  0.18613200  0.64662700  0.72895500  1
  C  1404  1  0.20895300  0.61103400  0.73388900  1
  C  1405  1  0.21616800  0.59361600  0.73470100  1
  C  1406  1  0.20767300  0.57885200  0.72838000  1
  C  1407  1  0.19147000  0.58212000  0.72132100  1
  C  1408  1  0.16675900  0.60146500  0.69961300  1
  C  1409  1  0.15176600  0.59122300  0.69612900  1
  C  1410  1  0.14181800  0.58813800  0.70770800  1
  C  1411  1  0.15066500  0.59644600  0.71831100  1
  C  1412  1  0.12587300  0.57851100  0.71000800  1
  C  1413  1  0.11910700  0.57719600  0.72309900  1
  C  1414  1  0.12748900  0.58619900  0.73390600  1
  C  1415  1  0.14352000  0.59577100  0.73122200  1
  C  1416  1  0.17928000  0.60680700  0.69000400  1
  C  1417  1  0.17707500  0.60185400  0.67654300  1
  C  1418  1  0.16182300  0.59138600  0.67306900  1
  C  1419  1  0.14918300  0.58604900  0.68279900  1
  C  1432  1  0.16732100  0.60548000  0.71396100  1
  C  1433  1  0.12221200  0.58488800  0.74723400  1
  C  1434  1  0.18994200  0.60814100  0.66765700  1
  C  1435  1  0.21301500  0.56105300  0.73032200  1
  C  1436  1  0.14672500  0.66957700  0.71355100  1
  C  1441  1  0.37252200  0.70046800  0.99997100  1
  C  1442  1  0.36592200  0.71164800  0.01005900  1
  C  1444  1  0.37570000  0.73795500  0.99844500  1
  C  1445  1  0.38237200  0.72728200  0.98771500  1
  C  1446  1  0.38064300  0.70853700  0.98889200  1
  C  1448  1  0.37576000  0.75689200  0.99903200  1
  C  1449  1  0.37698400  0.76769100  0.01076000  1
  C  1450  1  0.37561000  0.78636300  0.00926200  1
  C  1451  1  0.37377100  0.79393300  0.99669100  1
  C  1452  1  0.37270400  0.78301300  0.98540900  1
  C  1457  1  0.38028500  0.76177800  0.02464400  1
  C  1461  1  0.39203200  0.73347000  0.97554600  1
  C  1467  1  0.21266900  0.29566400  0.49993500  1
  C  1468  1  0.21922800  0.28449400  0.51004800  1
  C  1470  1  0.20945900  0.25817600  0.49844600  1
  C  1471  1  0.20277800  0.26884100  0.48771900  1
  C  1472  1  0.20455000  0.28758500  0.48886500  1
  C  1474  1  0.20941500  0.23924100  0.49903500  1
  C  1475  1  0.20820100  0.22844300  0.51076300  1
  C  1476  1  0.20960300  0.20977500  0.50927400  1
  C  1477  1  0.21140800  0.20220200  0.49672200  1
  C  1478  1  0.21251300  0.21311800  0.48542200  1
  C  1483  1  0.20488500  0.23435100  0.52464700  1
  C  1487  1  0.19313100  0.26264100  0.47554600  1
  C  1493  1  0.59090100  0.07779000  0.24993700  1
  C  1494  1  0.57970600  0.07124600  0.26005000  1
  C  1496  1  0.55332700  0.08100500  0.24845800  1
  C  1497  1  0.56400800  0.08764500  0.23771700  1
  C  1498  1  0.58279700  0.08590300  0.23887300  1
  C  1500  1  0.53435000  0.08100900  0.24904300  1
  C  1501  1  0.52352100  0.08223100  0.26076900  1
  C  1502  1  0.50481100  0.08081700  0.25927700  1
  C  1503  1  0.49723400  0.07900100  0.24672000  1
  C  1504  1  0.50817900  0.07793800  0.23542100  1
  C  1509  1  0.52943500  0.08555500  0.27465300  1
  C  1513  1  0.55779300  0.09727900  0.22554800  1
  C  1519  1  0.99428800  0.91830500  0.74997000  1
  C  1520  1  0.00549400  0.92486600  0.76006700  1
  C  1522  1  0.03186200  0.91514000  0.74844500  1
  C  1523  1  0.02116600  0.90847900  0.73772000  1
  C  1524  1  0.00237700  0.91021600  0.73888800  1
  C  1526  1  0.05084100  0.91510100  0.74903000  1
  C  1527  1  0.06166500  0.91385600  0.76075800  1
  C  1528  1  0.08037700  0.91525500  0.75927000  1
  C  1529  1  0.08796300  0.91706600  0.74671400  1
  C  1530  1  0.07702700  0.91813900  0.73541500  1
  C  1535  1  0.05574100  0.91056400  0.77464400  1
  C  1539  1  0.02737200  0.89884400  0.72554900  1
  C  1545  1  0.21264700  0.70044400  0.46523400  1
  C  1546  1  0.21924500  0.71161700  0.45513900  1
  C  1548  1  0.20945700  0.73793000  0.46673200  1
  C  1549  1  0.20279200  0.72727000  0.47747000  1
  C  1550  1  0.20452700  0.70852500  0.47630500  1
  C  1552  1  0.20940800  0.75685900  0.46613500  1
  C  1553  1  0.20819100  0.76767400  0.45441400  1
  C  1554  1  0.20956700  0.78634300  0.45592300  1
  C  1555  1  0.21140700  0.79386900  0.46850700  1
  C  1556  1  0.21248900  0.78294200  0.47977700  1
  C  1561  1  0.20488100  0.76176800  0.44053000  1
  C  1565  1  0.19313600  0.73346600  0.48964200  1
  C  1571  1  0.37250000  0.29568200  0.96526700  1
  C  1572  1  0.36594900  0.28451200  0.95514900  1
  C  1574  1  0.37571000  0.25818500  0.96674700  1
  C  1575  1  0.38239200  0.26884700  0.97747600  1
  C  1576  1  0.38061900  0.28759100  0.97633300  1
  C  1578  1  0.37575600  0.23925000  0.96615700  1
  C  1579  1  0.37697200  0.22845200  0.95442700  1
  C  1580  1  0.37557000  0.20978400  0.95591600  1
  C  1581  1  0.37376600  0.20221400  0.96847500  1
  C  1582  1  0.37266100  0.21312600  0.97976900  1
  C  1587  1  0.38028500  0.23435700  0.94054400  1
  C  1591  1  0.39203900  0.26264500  0.98964700  1
  C  1597  1  0.99425300  0.07779200  0.21527100  1
  C  1598  1  0.00544600  0.07125500  0.20515100  1
  C  1600  1  0.03183500  0.08100500  0.21673800  1
  C  1601  1  0.02115800  0.08764600  0.22748000  1
  C  1602  1  0.00236800  0.08590200  0.22633100  1
  C  1604  1  0.05081300  0.08101200  0.21615100  1
  C  1605  1  0.06163800  0.08223800  0.20442300  1
  C  1606  1  0.08034900  0.08082800  0.20591200  1
  C  1607  1  0.08792600  0.07901000  0.21848300  1
  C  1608  1  0.07698900  0.07795300  0.22977000  1
  C  1613  1  0.05572600  0.08555600  0.19054000  1
  C  1617  1  0.02737600  0.09728000  0.23964800  1
  C  1623  1  0.59089600  0.91830300  0.71523400  1
  C  1624  1  0.57968900  0.92485900  0.70513200  1
  C  1626  1  0.55331100  0.91514100  0.71674900  1
  C  1627  1  0.56400400  0.90848100  0.72747600  1
  C  1628  1  0.58279500  0.91021800  0.72631200  1
  C  1630  1  0.53432800  0.91509500  0.71616100  1
  C  1631  1  0.52350500  0.91384600  0.70443200  1
  C  1632  1  0.50478900  0.91523500  0.70592000  1
  C  1633  1  0.49720700  0.91705000  0.71849100  1
  C  1634  1  0.50814100  0.91812100  0.72977500  1
  C  1639  1  0.52943100  0.91056300  0.69054800  1
  C  1643  1  0.55779700  0.89884400  0.73964500  1
  C  1649  1  0.71147800  0.29564700  0.96521000  1
  C  1650  1  0.71808500  0.28446900  0.95512500  1
  C  1652  1  0.70829200  0.25817900  0.96674000  1
  C  1653  1  0.70162000  0.26884600  0.97747000  1
  C  1654  1  0.70335000  0.28759000  0.97628900  1
  C  1656  1  0.70824900  0.23925200  0.96614600  1
  C  1657  1  0.70703900  0.22845100  0.95441400  1
  C  1658  1  0.70843000  0.20977600  0.95590800  1
  C  1659  1  0.71025600  0.20223600  0.96848900  1
  C  1660  1  0.71133600  0.21315700  0.97976000  1
  C  1665  1  0.70371100  0.23436300  0.94053500  1
  C  1669  1  0.69196400  0.26265600  0.98964100  1
  C  1675  1  0.87366800  0.70046800  0.46524500  1
  C  1676  1  0.86710400  0.71164100  0.45514000  1
  C  1678  1  0.87688100  0.73794700  0.46674700  1
  C  1679  1  0.88356200  0.72728100  0.47747300  1
  C  1680  1  0.88179200  0.70853800  0.47632000  1
  C  1682  1  0.87692600  0.75687800  0.46615900  1
  C  1683  1  0.87814200  0.76767400  0.45442900  1
  C  1684  1  0.87673900  0.78634000  0.45591600  1
  C  1685  1  0.87493300  0.79390900  0.46847200  1
  C  1686  1  0.87382900  0.78299700  0.47977100  1
  C  1691  1  0.88145700  0.76176700  0.44054500  1
  C  1695  1  0.89320900  0.73347700  0.48964700  1
  C  1701  1  0.87367500  0.29569000  0.49992400  1
  C  1702  1  0.86712100  0.28452200  0.51004400  1
  C  1704  1  0.87689900  0.25819300  0.49845900  1
  C  1705  1  0.88355200  0.26884700  0.48771600  1
  C  1706  1  0.88180300  0.28759400  0.48886500  1
  C  1708  1  0.87692100  0.23926100  0.49905100  1
  C  1709  1  0.87815500  0.22844800  0.51077400  1
  C  1710  1  0.87676300  0.20978000  0.50927200  1
  C  1711  1  0.87492600  0.20224800  0.49669100  1
  C  1712  1  0.87386200  0.21316500  0.48541500  1
  C  1717  1  0.88146100  0.23435200  0.52465800  1
  C  1721  1  0.89320900  0.26264800  0.47554700  1
  C  1727  1  0.71147100  0.70044400  0.99995700  1
  C  1728  1  0.71804000  0.71162200  0.01006100  1
  C  1730  1  0.70829900  0.73793900  0.99844500  1
  C  1731  1  0.70162200  0.72727200  0.98771400  1
  C  1732  1  0.70336600  0.70852600  0.98887700  1
  C  1734  1  0.70825300  0.75687300  0.99903300  1
  C  1735  1  0.70700100  0.76766600  0.01076300  1
  C  1736  1  0.70839200  0.78633100  0.00929200  1
  C  1737  1  0.71019400  0.79390200  0.99676000  1
  C  1738  1  0.71128200  0.78300500  0.98542800  1
  C  1743  1  0.70370900  0.76176000  0.02464900  1
  C  1747  1  0.69196400  0.73346600  0.97554600  1
  C  1753  1  0.08971000  0.58014900  0.74997600  1
  C  1754  1  0.07850700  0.57356100  0.76006300  1
  C  1756  1  0.05214600  0.58332400  0.74845100  1
  C  1757  1  0.06283600  0.58998000  0.73772200  1
  C  1758  1  0.08162300  0.58825700  0.73889900  1
  C  1760  1  0.03317400  0.58336200  0.74903800  1
  C  1761  1  0.02235400  0.58457100  0.76076900  1
  C  1762  1  0.00364600  0.58317800  0.75928700  1
  C  1763  1  0.99606100  0.58137100  0.74675400  1
  C  1764  1  0.00699900  0.58028700  0.73543200  1
  C  1769  1  0.02826900  0.58789300  0.77465200  1
  C  1773  1  0.05662900  0.59961400  0.72555000  1
  C  1779  1  0.49545100  0.41599400  0.24994200  1
  C  1780  1  0.50664700  0.42253600  0.26005500  1
  C  1782  1  0.53302000  0.41278700  0.24845300  1
  C  1783  1  0.52233500  0.40612000  0.23772500  1
  C  1784  1  0.50354800  0.40788600  0.23887300  1
  C  1786  1  0.55199400  0.41275300  0.24904200  1
  C  1787  1  0.56281600  0.41154600  0.26077100  1
  C  1788  1  0.58152500  0.41295400  0.25929100  1
  C  1789  1  0.58910800  0.41473700  0.24675600  1
  C  1790  1  0.57817000  0.41585600  0.23543400  1
  C  1795  1  0.55690100  0.40822600  0.27465500  1
  C  1799  1  0.52855000  0.39650000  0.22555000  1
  C  1805  1  0.49542800  0.58012800  0.71526600  1
  C  1806  1  0.50661900  0.57359000  0.70514700  1
  C  1808  1  0.53300100  0.58334400  0.71673600  1
  C  1809  1  0.52232800  0.58998400  0.72747900  1
  C  1810  1  0.50354000  0.58824200  0.72632600  1
  C  1812  1  0.55197300  0.58335300  0.71614700  1
  C  1813  1  0.56279000  0.58457900  0.70441600  1
  C  1814  1  0.58149400  0.58316700  0.70589700  1
  C  1815  1  0.58906500  0.58135100  0.71845600  1
  C  1816  1  0.57814600  0.58029500  0.72976200  1
  C  1821  1  0.55688400  0.58789700  0.69053200  1
  C  1825  1  0.52854600  0.59961900  0.73964700  1
  C  1831  1  0.08972000  0.41596600  0.21523300  1
  C  1832  1  0.07851600  0.42252400  0.20513100  1
  C  1834  1  0.05214400  0.41280300  0.21674900  1
  C  1835  1  0.06283500  0.40614100  0.22747700  1
  C  1836  1  0.08162300  0.40787800  0.22631100  1
  C  1838  1  0.03316900  0.41275400  0.21616100  1
  C  1839  1  0.02235400  0.41150400  0.20442900  1
  C  1840  1  0.00364400  0.41289600  0.20590900  1
  C  1841  1  0.99606800  0.41471000  0.21847800  1
  C  1842  1  0.00698400  0.41577700  0.22977100  1
  C  1847  1  0.02827300  0.40822200  0.19054300  1
  C  1851  1  0.05662700  0.39650500  0.23964600  1
  C  1857  1  0.58872600  0.85487600  0.96487400  1
  C  1858  1  0.57752800  0.86846900  0.96965500  1
  C  1860  1  0.55135800  0.85233400  0.96261900  1
  C  1861  1  0.56237500  0.83801200  0.95772200  1
  C  1862  1  0.58119000  0.83955900  0.95915300  1
  C  1864  1  0.53224300  0.85294900  0.96290100  1
  C  1865  1  0.52131600  0.86873400  0.96220200  1
  C  1866  1  0.50252500  0.86666800  0.96345400  1
  C  1867  1  0.49470400  0.84975300  0.96506300  1
  C  1868  1  0.50591000  0.83467500  0.96558400  1
  C  1873  1  0.52740500  0.88743900  0.95961700  1
  C  1877  1  0.55631000  0.82150000  0.95076500  1
  C  1883  1  0.99644000  0.14124800  0.46488100  1
  C  1884  1  0.00763800  0.12764900  0.46965200  1
  C  1886  1  0.03380900  0.14378400  0.46261600  1
  C  1887  1  0.02279100  0.15810000  0.45771300  1
  C  1888  1  0.00397700  0.15656400  0.45915700  1
  C  1890  1  0.05292500  0.14317000  0.46290200  1
  C  1891  1  0.06385200  0.12738400  0.46220600  1
  C  1892  1  0.08264200  0.12944600  0.46347500  1
  C  1893  1  0.09046300  0.14636400  0.46506200  1
  C  1894  1  0.07925700  0.16144300  0.46560000  1
  C  1899  1  0.05776400  0.10868000  0.45961800  1
  C  1903  1  0.02885800  0.17461800  0.45076500  1
  C  1909  1  0.43610300  0.29352600  0.21488100  1
  C  1910  1  0.42247700  0.28234800  0.21965400  1
  C  1912  1  0.43864300  0.25623700  0.21260800  1
  C  1913  1  0.45300300  0.26722900  0.20772000  1
  C  1914  1  0.45145500  0.28600100  0.20915700  1
  C  1916  1  0.43803600  0.23716500  0.21291200  1
  C  1917  1  0.42221900  0.22625900  0.21220400  1
  C  1918  1  0.42428800  0.20751400  0.21347200  1
  C  1919  1  0.44125300  0.19972000  0.21505100  1
  C  1920  1  0.45636600  0.21089700  0.21559000  1
  C  1925  1  0.40346800  0.23232700  0.20962000  1
  C  1929  1  0.46955500  0.26117600  0.20076700  1
  C  1935  1  0.14906800  0.70259600  0.71487500  1
  C  1936  1  0.16269400  0.71377200  0.71964900  1
  C  1938  1  0.14651700  0.73988500  0.71262300  1
  C  1939  1  0.13216600  0.72889200  0.70772100  1
  C  1940  1  0.13371500  0.71012000  0.70915600  1
  C  1942  1  0.14713200  0.75895800  0.71291100  1
  C  1943  1  0.16295400  0.76986100  0.71219600  1
  C  1944  1  0.16089100  0.78860800  0.71346100  1
  C  1945  1  0.14393000  0.79640200  0.71504100  1
  C  1946  1  0.12881100  0.78523400  0.71558400  1
  C  1951  1  0.18170400  0.76378500  0.70961900  1
  C  1955  1  0.11561500  0.73494700  0.70076700  1
  C  1961  1  0.99645500  0.85486700  0.50032000  1
  C  1962  1  0.00764500  0.86846800  0.49554300  1
  C  1964  1  0.03381700  0.85233400  0.50257500  1
  C  1965  1  0.02280200  0.83801200  0.50747400  1
  C  1966  1  0.00398800  0.83955500  0.50604400  1
  C  1968  1  0.05293200  0.85294900  0.50229100  1
  C  1969  1  0.06385700  0.86873500  0.50299000  1
  C  1970  1  0.08264800  0.86667100  0.50173700  1
  C  1971  1  0.09047800  0.84976000  0.50013100  1
  C  1972  1  0.07927100  0.83467900  0.49960900  1
  C  1977  1  0.05776500  0.88744100  0.50557400  1
  C  1981  1  0.02886400  0.82149900  0.51442900  1
  C  1987  1  0.58871100  0.14125500  0.00031500  1
  C  1988  1  0.57752000  0.12765300  0.99554000  1
  C  1990  1  0.55135000  0.14378600  0.00257700  1
  C  1991  1  0.56236600  0.15810400  0.00748000  1
  C  1992  1  0.58117800  0.15657000  0.00603600  1
  C  1994  1  0.53223500  0.14317100  0.00229300  1
  C  1995  1  0.52131100  0.12738500  0.00299000  1
  C  1996  1  0.50252000  0.12944300  0.00172000  1
  C  1997  1  0.49469200  0.14635900  0.00013400  1
  C  1998  1  0.50589800  0.16143900  0.99959700  1
  C  2003  1  0.52740300  0.10868100  0.00557700  1
  C  2007  1  0.55630500  0.17462000  0.01443100  1
  C  2013  1  0.14905700  0.29350700  0.25031500  1
  C  2014  1  0.16268400  0.28233600  0.24553500  1
  C  2016  1  0.14651800  0.25622800  0.25258200  1
  C  2017  1  0.13215800  0.26721900  0.25746900  1
  C  2018  1  0.13370500  0.28598800  0.25603400  1
  C  2020  1  0.14712800  0.23715600  0.25228300  1
  C  2021  1  0.16295100  0.22625800  0.25299100  1
  C  2022  1  0.16088800  0.20751200  0.25172200  1
  C  2023  1  0.14392900  0.19970500  0.25014600  1
  C  2024  1  0.12881000  0.21087800  0.24961000  1
  C  2029  1  0.18170000  0.23233100  0.25557500  1
  C  2033  1  0.11561000  0.26116900  0.26442800  1
  C  2039  1  0.43610600  0.70261300  0.75031900  1
  C  2040  1  0.42247900  0.71378300  0.74554100  1
  C  2042  1  0.43865500  0.73989500  0.75256500  1
  C  2043  1  0.45300700  0.72890500  0.75746800  1
  C  2044  1  0.45146100  0.71013400  0.75603400  1
  C  2046  1  0.43803800  0.75896700  0.75228000  1
  C  2047  1  0.42221500  0.76986700  0.75299600  1
  C  2048  1  0.42427500  0.78861300  0.75173000  1
  C  2049  1  0.44123200  0.79641500  0.75015200  1
  C  2050  1  0.45635400  0.78524800  0.74961100  1
  C  2055  1  0.40346500  0.76378600  0.75557300  1
  C  2059  1  0.46955800  0.73495400  0.76442500  1
  C  2065  1  0.65022900  0.70264900  0.75032000  1
  C  2066  1  0.66386100  0.71380600  0.74553800  1
  C  2068  1  0.64768700  0.73990700  0.75257300  1
  C  2069  1  0.63333100  0.72892100  0.75747200  1
  C  2070  1  0.63487600  0.71015200  0.75604100  1
  C  2072  1  0.64830400  0.75897400  0.75229000  1
  C  2073  1  0.66412700  0.76987200  0.75299000  1
  C  2074  1  0.66205500  0.78861900  0.75173800  1
  C  2075  1  0.64510200  0.79642400  0.75012900  1
  C  2076  1  0.62998600  0.78524400  0.74960600  1
  C  2081  1  0.68287600  0.76379600  0.75557400  1
  C  2085  1  0.61677800  0.73496200  0.76442800  1
  C  2091  1  0.93494500  0.29347200  0.25031700  1
  C  2092  1  0.92130700  0.28231700  0.24554300  1
  C  2094  1  0.93748100  0.25621300  0.25257900  1
  C  2095  1  0.95183300  0.26720200  0.25748400  1
  C  2096  1  0.95029700  0.28596800  0.25604000  1
  C  2098  1  0.93686500  0.23714700  0.25229400  1
  C  2099  1  0.92104000  0.22625100  0.25298900  1
  C  2100  1  0.92310300  0.20750600  0.25171900  1
  C  2101  1  0.94006000  0.19969900  0.25013500  1
  C  2102  1  0.95517700  0.21087400  0.24959600  1
  C  2107  1  0.90229100  0.23232900  0.25557600  1
  C  2111  1  0.96839000  0.26115800  0.26443200  1
  C  2117  1  0.93494300  0.70262500  0.71487900  1
  C  2118  1  0.92131300  0.71378800  0.71965800  1
  C  2120  1  0.93747700  0.73989300  0.71260900  1
  C  2121  1  0.95183900  0.72890500  0.70772200  1
  C  2122  1  0.95029500  0.71013600  0.70915800  1
  C  2124  1  0.93686800  0.75895800  0.71291000  1
  C  2125  1  0.92104400  0.76985600  0.71220300  1
  C  2126  1  0.92310900  0.78859700  0.71347200  1
  C  2127  1  0.94007400  0.79638700  0.71505200  1
  C  2128  1  0.95519300  0.78522200  0.71558800  1
  C  2133  1  0.90229400  0.76378600  0.70961700  1
  C  2137  1  0.96839000  0.73495300  0.70076400  1
  C  2143  1  0.65023000  0.29349400  0.21487400  1
  C  2144  1  0.66386300  0.28233100  0.21965200  1
  C  2146  1  0.64768600  0.25622400  0.21262600  1
  C  2147  1  0.63333200  0.26721000  0.20772200  1
  C  2148  1  0.63487600  0.28597900  0.20915700  1
  C  2150  1  0.64830400  0.23715700  0.21291200  1
  C  2151  1  0.66412800  0.22625900  0.21219600  1
  C  2152  1  0.66206500  0.20751500  0.21346500  1
  C  2153  1  0.64510300  0.19973000  0.21504700  1
  C  2154  1  0.62998000  0.21088900  0.21558600  1
  C  2159  1  0.68287900  0.23233400  0.20962000  1
  C  2163  1  0.61678100  0.26116200  0.20076600  1
  C  2169  1  0.08990500  0.35487800  0.46487500  1
  C  2170  1  0.07870400  0.36846900  0.46965600  1
  C  2172  1  0.05253100  0.35233200  0.46262200  1
  C  2173  1  0.06355100  0.33801300  0.45772500  1
  C  2174  1  0.08236700  0.33956200  0.45915500  1
  C  2176  1  0.03341400  0.35294700  0.46290300  1
  C  2177  1  0.02248900  0.36873300  0.46220400  1
  C  2178  1  0.00369800  0.36667000  0.46345600  1
  C  2179  1  0.99586900  0.34975800  0.46506100  1
  C  2180  1  0.00707300  0.33467700  0.46558400  1
  C  2185  1  0.02857800  0.38743900  0.45961900  1
  C  2189  1  0.05748500  0.32150100  0.45076800  1
  C  2195  1  0.49526100  0.64124600  0.96487800  1
  C  2196  1  0.50646200  0.62764900  0.96965100  1
  C  2198  1  0.53263700  0.64378400  0.96261600  1
  C  2199  1  0.52161600  0.65809900  0.95771300  1
  C  2200  1  0.50280000  0.65656100  0.95915700  1
  C  2202  1  0.55175400  0.64317000  0.96290200  1
  C  2203  1  0.56268000  0.62738400  0.96220500  1
  C  2204  1  0.58147000  0.62944400  0.96347400  1
  C  2205  1  0.58929800  0.64636000  0.96505800  1
  C  2206  1  0.57809400  0.66144000  0.96559500  1
  C  2211  1  0.55659000  0.60868000  0.95961700  1
  C  2215  1  0.52768400  0.67461700  0.95076500  1
  C  2221  1  0.49527000  0.35486800  0.00031700  1
  C  2222  1  0.50646600  0.36846600  0.99554000  1
  C  2224  1  0.53263800  0.35233800  0.00258700  1
  C  2225  1  0.52162200  0.33801200  0.00747600  1
  C  2226  1  0.50280700  0.33955400  0.00604000  1
  C  2228  1  0.55175600  0.35294300  0.00228300  1
  C  2229  1  0.56268000  0.36872900  0.00299100  1
  C  2230  1  0.58146900  0.36667400  0.00172300  1
  C  2231  1  0.58929700  0.34975700  0.00014800  1
  C  2232  1  0.57810100  0.33467100  0.99961200  1
  C  2237  1  0.55659200  0.38743600  0.00557600  1
  C  2241  1  0.52768700  0.32150000  0.01443000  1
  C  2247  1  0.08989400  0.64124600  0.50032000  1
  C  2248  1  0.07869800  0.62765000  0.49554100  1
  C  2250  1  0.05252500  0.64378900  0.50256600  1
  C  2251  1  0.06354100  0.65810700  0.50746800  1
  C  2252  1  0.08235600  0.65656500  0.50603500  1
  C  2254  1  0.03340700  0.64317400  0.50228200  1
  C  2255  1  0.02248300  0.62738700  0.50299800  1
  C  2256  1  0.00369200  0.62944000  0.50173100  1
  C  2257  1  0.99586800  0.64635600  0.50015400  1
  C  2258  1  0.00706000  0.66144500  0.49961300  1
  C  2263  1  0.02857800  0.60868200  0.50557300  1
  C  2267  1  0.05747800  0.67461800  0.51442700  1
  C  2273  1  0.39738300  0.89737200  0.89289200  1
  C  2274  1  0.39050000  0.91078300  0.88457900  1
  C  2276  1  0.40028700  0.89481900  0.86490400  1
  C  2277  1  0.40706200  0.88059700  0.87299700  1
  C  2278  1  0.40516200  0.88226800  0.88687300  1
  C  2280  1  0.40027400  0.89494600  0.85067600  1
  C  2281  1  0.40173400  0.91041700  0.84234300  1
  C  2282  1  0.40083300  0.90796700  0.82840900  1
  C  2283  1  0.39930100  0.89085300  0.82278400  1
  C  2284  1  0.39729200  0.87616000  0.83130800  1
  C  2289  1  0.40429900  0.92925200  0.84679400  1
  C  2293  1  0.41601700  0.86373500  0.86858000  1
  C  2299  1  0.18793000  0.09881800  0.39287000  1
  C  2300  1  0.19466200  0.08529400  0.38458600  1
  C  2302  1  0.18488000  0.10129400  0.36491300  1
  C  2303  1  0.17809200  0.11551200  0.37300600  1
  C  2304  1  0.17997800  0.11383500  0.38687900  1
  C  2306  1  0.18490000  0.10117500  0.35068500  1
  C  2307  1  0.18344000  0.08570500  0.34235300  1
  C  2308  1  0.18433000  0.08815400  0.32842000  1
  C  2309  1  0.18587400  0.10526700  0.32279500  1
  C  2310  1  0.18787100  0.11996400  0.33131700  1
  C  2315  1  0.18086900  0.06686800  0.34680000  1
  C  2319  1  0.16914600  0.13237900  0.36859200  1
  C  2325  1  0.39359500  0.10246900  0.14287400  1
  C  2326  1  0.38003300  0.09575600  0.13459500  1
  C  2328  1  0.39605900  0.10551800  0.11491800  1
  C  2329  1  0.41031500  0.11228600  0.12300600  1
  C  2330  1  0.40864600  0.11039700  0.13688000  1
  C  2332  1  0.39594300  0.10547500  0.10069200  1
  C  2333  1  0.38043800  0.10693700  0.09235700  1
  C  2334  1  0.38289400  0.10604600  0.07842500  1
  C  2335  1  0.40005300  0.10446500  0.07281700  1
  C  2336  1  0.41479200  0.10250500  0.08132800  1
  C  2341  1  0.36155600  0.10951100  0.09680000  1
  C  2345  1  0.42722100  0.12121100  0.11859100  1
  C  2351  1  0.19167800  0.89350500  0.64288800  1
  C  2352  1  0.20510700  0.90038400  0.63457100  1
  C  2354  1  0.18909900  0.89061400  0.61490200  1
  C  2355  1  0.17484800  0.88385000  0.62299800  1
  C  2356  1  0.17653600  0.88574000  0.63687300  1
  C  2358  1  0.18922500  0.89062800  0.60067400  1
  C  2359  1  0.20473600  0.88916000  0.59234300  1
  C  2360  1  0.20229000  0.89005600  0.57840900  1
  C  2361  1  0.18513400  0.89162900  0.57280100  1
  C  2362  1  0.17038600  0.89359800  0.58130500  1
  C  2367  1  0.22361500  0.88660200  0.59679500  1
  C  2371  1  0.15794600  0.87491700  0.61858200  1
  C  2377  1  0.68655700  0.09874000  0.07234900  1
  C  2378  1  0.69344500  0.08533500  0.08066500  1
  C  2380  1  0.68398400  0.10150900  0.10034600  1
  C  2381  1  0.67698400  0.11558800  0.09224700  1
  C  2382  1  0.67878200  0.11384900  0.07836800  1
  C  2384  1  0.68471500  0.10162200  0.11455200  1
  C  2385  1  0.68368700  0.08603100  0.12274400  1
  C  2386  1  0.68534900  0.08838300  0.13656800  1
  C  2387  1  0.68748700  0.10532900  0.14238400  1
  C  2388  1  0.68789200  0.12036600  0.13406600  1
  C  2393  1  0.68002100  0.06725600  0.11849300  1
  C  2397  1  0.66801800  0.13241100  0.09668300  1
  C  2403  1  0.89846700  0.89730400  0.57236700  1
  C  2404  1  0.89173100  0.91081900  0.58065400  1
  C  2406  1  0.90118700  0.89460800  0.60033300  1
  C  2407  1  0.90819700  0.88053400  0.59223400  1
  C  2408  1  0.90641700  0.88228000  0.57835700  1
  C  2410  1  0.90045800  0.89449800  0.61453800  1
  C  2411  1  0.90148700  0.91009900  0.62272000  1
  C  2412  1  0.89981000  0.90777500  0.63654600  1
  C  2413  1  0.89769000  0.89083600  0.64237200  1
  C  2414  1  0.89725300  0.87578400  0.63406800  1
  C  2419  1  0.90515300  0.92887200  0.61846300  1
  C  2423  1  0.91715700  0.86370700  0.59667000  1
  C  2429  1  0.69266500  0.89369200  0.82220800  1
  C  2430  1  0.70627100  0.90035800  0.83049200  1
  C  2432  1  0.69033000  0.89058200  0.85020700  1
  C  2433  1  0.67604900  0.88381500  0.84214000  1
  C  2434  1  0.67767300  0.88572200  0.82826200  1
  C  2436  1  0.69041500  0.89074800  0.86443100  1
  C  2437  1  0.70587800  0.88933800  0.87281800  1
  C  2438  1  0.70333300  0.89034400  0.88673800  1
  C  2439  1  0.68612800  0.89216800  0.89222600  1
  C  2440  1  0.67141300  0.89391800  0.88369500  1
  C  2445  1  0.72476200  0.88663300  0.86842200  1
  C  2449  1  0.65914200  0.87490100  0.84658200  1
  C  2455  1  0.89239700  0.10257700  0.32218900  1
  C  2456  1  0.87892500  0.09574000  0.33051300  1
  C  2458  1  0.89485100  0.10552100  0.35021900  1
  C  2459  1  0.90912300  0.11228600  0.34214600  1
  C  2460  1  0.90748100  0.11038100  0.32826500  1
  C  2462  1  0.89475500  0.10538000  0.36444300  1
  C  2463  1  0.87928800  0.10679500  0.37282700  1
  C  2464  1  0.88182700  0.10578600  0.38674800  1
  C  2465  1  0.89903200  0.10397600  0.39223600  1
  C  2466  1  0.91374900  0.10221100  0.38370800  1
  C  2471  1  0.86040500  0.10948800  0.36842400  1
  C  2475  1  0.92602700  0.12120800  0.34658900  1
  C  2481  1  0.89856500  0.39726700  0.39303600  1
  C  2482  1  0.89169800  0.41070300  0.38471800  1
  C  2484  1  0.90130200  0.39466000  0.36504000  1
  C  2485  1  0.90822300  0.38050500  0.37309800  1
  C  2486  1  0.90638100  0.38219800  0.38697700  1
  C  2488  1  0.90080600  0.39469300  0.35085600  1
  C  2489  1  0.90207200  0.41033100  0.34270600  1
  C  2490  1  0.90059600  0.40808600  0.32886100  1
  C  2491  1  0.89798200  0.39117900  0.32318800  1
  C  2492  1  0.89715000  0.37608200  0.33137800  1
  C  2497  1  0.90535800  0.42912000  0.34703700  1
  C  2501  1  0.91718000  0.36369200  0.36860400  1
  C  2507  1  0.68675100  0.59892700  0.89300900  1
  C  2508  1  0.69346100  0.58537800  0.88472100  1
  C  2510  1  0.68386000  0.60145300  0.86504300  1
  C  2511  1  0.67693100  0.61560500  0.87310100  1
  C  2512  1  0.67875800  0.61390800  0.88697800  1
  C  2514  1  0.68436000  0.60142700  0.85085900  1
  C  2515  1  0.68309800  0.58579100  0.84270700  1
  C  2516  1  0.68458100  0.58803600  0.82886300  1
  C  2517  1  0.68719100  0.60494300  0.82319100  1
  C  2518  1  0.68804000  0.62003900  0.83138100  1
  C  2523  1  0.67980900  0.56700000  0.84703400  1
  C  2527  1  0.66798200  0.63242400  0.86861100  1
  C  2533  1  0.89243800  0.60486500  0.64290500  1
  C  2534  1  0.87888600  0.59812800  0.63463300  1
  C  2536  1  0.89506000  0.60769700  0.61498600  1
  C  2537  1  0.90923600  0.61461000  0.62305700  1
  C  2538  1  0.90750900  0.61279100  0.63692800  1
  C  2540  1  0.89503700  0.60718400  0.60080100  1
  C  2541  1  0.87935900  0.60844100  0.59265900  1
  C  2542  1  0.88159700  0.60696500  0.57880600  1
  C  2543  1  0.89852000  0.60435700  0.57307200  1
  C  2544  1  0.91365000  0.60355200  0.58128800  1
  C  2549  1  0.86052800  0.61173700  0.59701000  1
  C  2553  1  0.92610000  0.62353700  0.61859100  1
  C  2559  1  0.69283600  0.39110900  0.14292600  1
  C  2560  1  0.70625700  0.39801200  0.13461700  1
  C  2562  1  0.69009900  0.38844200  0.11498200  1
  C  2563  1  0.67593100  0.38152700  0.12305600  1
  C  2564  1  0.67767400  0.38334400  0.13692900  1
  C  2566  1  0.69013300  0.38892600  0.10079700  1
  C  2567  1  0.70581400  0.38765300  0.09265600  1
  C  2568  1  0.70357700  0.38911200  0.07880200  1
  C  2569  1  0.68664400  0.39164300  0.07307500  1
  C  2570  1  0.67151600  0.39254700  0.08128800  1
  C  2575  1  0.72464400  0.38438200  0.09701200  1
  C  2579  1  0.65907000  0.37259100  0.11858900  1
  C  2585  1  0.18781800  0.59882000  0.57219500  1
  C  2586  1  0.19466300  0.58537200  0.58051600  1
  C  2588  1  0.18487300  0.60126300  0.60023600  1
  C  2589  1  0.17809600  0.61549900  0.59215700  1
  C  2590  1  0.18000500  0.61386700  0.57827500  1
  C  2592  1  0.18501800  0.60116800  0.61447100  1
  C  2593  1  0.18361600  0.58573500  0.62285200  1
  C  2594  1  0.18461300  0.58825900  0.63677900  1
  C  2595  1  0.18640000  0.60540400  0.64232300  1
  C  2596  1  0.18820400  0.62007900  0.63377300  1
  C  2601  1  0.18090100  0.56690000  0.61843400  1
  C  2605  1  0.16915000  0.63236000  0.59659700  1
  C  2611  1  0.39720200  0.39722500  0.07222200  1
  C  2612  1  0.39051500  0.41078800  0.08051300  1
  C  2614  1  0.40030000  0.39486400  0.10023200  1
  C  2615  1  0.40708800  0.38063100  0.09215300  1
  C  2616  1  0.40519200  0.38226500  0.07827300  1
  C  2618  1  0.40015100  0.39495000  0.11446700  1
  C  2619  1  0.40155300  0.41038000  0.12285000  1
  C  2620  1  0.40056200  0.40785400  0.13677800  1
  C  2621  1  0.39876900  0.39071000  0.14232100  1
  C  2622  1  0.39697100  0.37603500  0.13377000  1
  C  2627  1  0.40426700  0.42921800  0.11843600  1
  C  2631  1  0.41602500  0.36376300  0.09659100  1
  C  2637  1  0.19148500  0.39130100  0.32226900  1
  C  2638  1  0.20507000  0.39798000  0.33056800  1
  C  2640  1  0.18889900  0.38853500  0.35029800  1
  C  2641  1  0.17477900  0.38154800  0.34220700  1
  C  2642  1  0.17648400  0.38334100  0.32832200  1
  C  2644  1  0.18879100  0.38927500  0.36451600  1
  C  2645  1  0.20441300  0.38823300  0.37271400  1
  C  2646  1  0.20207300  0.38991400  0.38654400  1
  C  2647  1  0.18509900  0.39217700  0.39236600  1
  C  2648  1  0.17002400  0.39244900  0.38405200  1
  C  2653  1  0.22322900  0.38458100  0.36846000  1
  C  2657  1  0.15792100  0.37260700  0.34666300  1
  C  2663  1  0.39357400  0.60496800  0.82225300  1
  C  2664  1  0.38012400  0.59811800  0.83059100  1
  C  2666  1  0.39627600  0.60756400  0.85031500  1
  C  2667  1  0.41038700  0.61455300  0.84221700  1
  C  2668  1  0.40866600  0.61276000  0.82833000  1
  C  2670  1  0.39638600  0.60683800  0.86453400  1
  C  2671  1  0.38076400  0.60788200  0.87273600  1
  C  2672  1  0.38310500  0.60620400  0.88656400  1
  C  2673  1  0.40010200  0.60411500  0.89235300  1
  C  2674  1  0.41519100  0.60367400  0.88405900  1
  C  2679  1  0.36194400  0.61152600  0.86848300  1
  C  2683  1  0.42724400  0.62350000  0.84667200  1
  C  2689  1  0.35276100  0.04560400  0.98037300  1
  C  2690  1  0.34615000  0.03430000  0.97034500  1
  C  2692  1  0.35558600  0.00770100  0.98224800  1
  C  2693  1  0.36240900  0.01870400  0.99272400  1
  C  2694  1  0.36057800  0.03747300  0.99153400  1
  C  2696  1  0.35551800  0.98845100  0.98215100  1
  C  2697  1  0.35700000  0.97753900  0.97053100  1
  C  2698  1  0.35585700  0.95879400  0.97206000  1
  C  2699  1  0.35356200  0.95053400  0.98444400  1
  C  2700  1  0.35197500  0.96173200  0.99562000  1
  C  2705  1  0.35953800  0.98355600  0.95655300  1
  C  2709  1  0.37130600  0.01262900  0.00517400  1
  C  2715  1  0.23243700  0.95051800  0.48042400  1
  C  2716  1  0.23901600  0.96179600  0.47036100  1
  C  2718  1  0.22958000  0.98841300  0.48224800  1
  C  2719  1  0.22274100  0.97742300  0.49272400  1
  C  2720  1  0.22453800  0.95865100  0.49154200  1
  C  2722  1  0.22965900  0.00766300  0.48215000  1
  C  2723  1  0.22817500  0.01857600  0.47053200  1
  C  2724  1  0.22929500  0.03732300  0.47206100  1
  C  2725  1  0.23160100  0.04557900  0.48444500  1
  C  2726  1  0.23317000  0.03438400  0.49562500  1
  C  2731  1  0.22563500  0.01256000  0.45655400  1
  C  2735  1  0.21385300  0.98350600  0.50517600  1
  C  2741  1  0.24493100  0.05806400  0.23042600  1
  C  2742  1  0.25623500  0.05150300  0.22036200  1
  C  2744  1  0.28291400  0.06092200  0.23224500  1
  C  2745  1  0.27189900  0.06774100  0.24272400  1
  C  2746  1  0.25308400  0.06593700  0.24154600  1
  C  2748  1  0.30221000  0.06082800  0.23215000  1
  C  2749  1  0.31315700  0.06230000  0.22053500  1
  C  2750  1  0.33194700  0.06117900  0.22207100  1
  C  2751  1  0.34021500  0.05896900  0.23447400  1
  C  2752  1  0.32898000  0.05731800  0.24563400  1
  C  2757  1  0.30712900  0.06484500  0.20655700  1
  C  2761  1  0.27799800  0.07660700  0.25517600  1
  C  2767  1  0.34023800  0.93802300  0.73037500  1
  C  2768  1  0.32890500  0.94463300  0.72035100  1
  C  2770  1  0.30224500  0.93521300  0.73225100  1
  C  2771  1  0.31327300  0.92840100  0.74272300  1
  C  2772  1  0.33208700  0.93021600  0.74153100  1
  C  2774  1  0.28294800  0.93527900  0.73215400  1
  C  2775  1  0.27201300  0.93379400  0.72053000  1
  C  2776  1  0.25322100  0.93491900  0.72205000  1
  C  2777  1  0.24497500  0.93724200  0.73443700  1
  C  2778  1  0.25616300  0.93879600  0.74563200  1
  C  2783  1  0.27804900  0.93126200  0.70655300  1
  C  2787  1  0.30718600  0.91952300  0.75517200  1
  C  2793  1  0.73129900  0.95055100  0.98481700  1
  C  2794  1  0.73786200  0.96185200  0.99485600  1
  C  2796  1  0.72840400  0.98842300  0.98294400  1
  C  2797  1  0.72158700  0.97741800  0.97247100  1
  C  2798  1  0.72344300  0.95865200  0.97366000  1
  C  2800  1  0.72847100  0.00766400  0.98303900  1
  C  2801  1  0.72699000  0.01857600  0.99465800  1
  C  2802  1  0.72815500  0.03731700  0.99313000  1
  C  2803  1  0.73050300  0.04555200  0.98073800  1
  C  2804  1  0.73203800  0.03436000  0.96955900  1
  C  2809  1  0.72445400  0.01256500  0.00864200  1
  C  2813  1  0.71268800  0.98348600  0.96002000  1
  C  2819  1  0.85384200  0.04556600  0.48477100  1
  C  2820  1  0.84730800  0.03429000  0.49484500  1
  C  2822  1  0.85676700  0.00770100  0.48294700  1
  C  2823  1  0.86360200  0.01869400  0.47247200  1
  C  2824  1  0.86177700  0.03746200  0.47365500  1
  C  2826  1  0.85668900  0.98845900  0.48304300  1
  C  2827  1  0.85817200  0.97754600  0.49466100  1
  C  2828  1  0.85703000  0.95880300  0.49312900  1
  C  2829  1  0.85467100  0.95057300  0.48074100  1
  C  2830  1  0.85315500  0.96176100  0.46955800  1
  C  2835  1  0.86070900  0.98355700  0.50864100  1
  C  2839  1  0.87249100  0.01261600  0.46001900  1
  C  2845  1  0.84081500  0.93838100  0.73492000  1
  C  2846  1  0.82951600  0.94478700  0.74501000  1
  C  2848  1  0.80307700  0.93525100  0.73296700  1
  C  2849  1  0.81411100  0.92844700  0.72251100  1
  C  2850  1  0.83286000  0.93041100  0.72375800  1
  C  2852  1  0.78386700  0.93525900  0.73303600  1
  C  2853  1  0.77299000  0.93376800  0.74467500  1
  C  2854  1  0.75422000  0.93491500  0.74313200  1
  C  2855  1  0.74597900  0.93714200  0.73072000  1
  C  2856  1  0.75718500  0.93878400  0.71954400  1
  C  2861  1  0.77905900  0.93122700  0.75865300  1
  C  2865  1  0.80817600  0.91952900  0.71003400  1
  C  2871  1  0.74435200  0.05776300  0.23497100  1
  C  2872  1  0.75568100  0.05131100  0.24501900  1
  C  2874  1  0.78210100  0.06085700  0.23296300  1
  C  2875  1  0.77105100  0.06765100  0.22251300  1
  C  2876  1  0.75230300  0.06567200  0.22377300  1
  C  2878  1  0.80131100  0.06087700  0.23303300  1
  C  2879  1  0.81217700  0.06237600  0.24467900  1
  C  2880  1  0.83094800  0.06122500  0.24315300  1
  C  2881  1  0.83916700  0.05888600  0.23075500  1
  C  2882  1  0.82800800  0.05734100  0.21954600  1
  C  2887  1  0.80610100  0.06490500  0.25865800  1
  C  2891  1  0.77697500  0.07658100  0.21003700  1
  C  2897  1  0.85394000  0.54560400  0.48037600  1
  C  2898  1  0.84732400  0.53430100  0.47034700  1
  C  2900  1  0.85675800  0.50770000  0.48224900  1
  C  2901  1  0.86358000  0.51870200  0.49272400  1
  C  2902  1  0.86175300  0.53747100  0.49153600  1
  C  2904  1  0.85668900  0.48844900  0.48215300  1
  C  2905  1  0.85817300  0.47753900  0.47053300  1
  C  2906  1  0.85703500  0.45879400  0.47206000  1
  C  2907  1  0.85474900  0.45052900  0.48444300  1
  C  2908  1  0.85315100  0.46172700  0.49562000  1
  C  2913  1  0.86070900  0.48355700  0.45655400  1
  C  2917  1  0.87247800  0.51262700  0.50517400  1
  C  2923  1  0.73125800  0.45051900  0.98042300  1
  C  2924  1  0.73784200  0.46179600  0.97036100  1
  C  2926  1  0.72840800  0.48841300  0.98224700  1
  C  2927  1  0.72156800  0.47742500  0.99272400  1
  C  2928  1  0.72336200  0.45865300  0.99154100  1
  C  2930  1  0.72848700  0.50766400  0.98214900  1
  C  2931  1  0.72700200  0.51857600  0.97052900  1
  C  2932  1  0.72811700  0.53732300  0.97205800  1
  C  2933  1  0.73041300  0.54558400  0.98444200  1
  C  2934  1  0.73199400  0.53438900  0.99562000  1
  C  2939  1  0.72446300  0.51255800  0.95655300  1
  C  2943  1  0.71268000  0.48350800  0.00517700  1
  C  2949  1  0.74440000  0.55999000  0.73027100  1
  C  2950  1  0.75569400  0.55364600  0.72016600  1
  C  2952  1  0.78209900  0.56321300  0.73222200  1
  C  2953  1  0.77106100  0.57001000  0.74267800  1
  C  2954  1  0.75231900  0.56800800  0.74143100  1
  C  2956  1  0.80129900  0.56320800  0.73215600  1
  C  2957  1  0.81217600  0.56469600  0.72051800  1
  C  2958  1  0.83094100  0.56352100  0.72206500  1
  C  2959  1  0.83915100  0.56123000  0.73448200  1
  C  2960  1  0.82795300  0.55965300  0.74566100  1
  C  2965  1  0.80611300  0.56723500  0.70653700  1
  C  2969  1  0.77698700  0.57893100  0.75515800  1
  C  2975  1  0.84076900  0.43610500  0.23022400  1
  C  2976  1  0.82944500  0.44249400  0.22015900  1
  C  2978  1  0.80306000  0.43291800  0.23223000  1
  C  2979  1  0.81411400  0.42613000  0.24267900  1
  C  2980  1  0.83285500  0.42814500  0.24141900  1
  C  2982  1  0.78385900  0.43289400  0.23216200  1
  C  2983  1  0.77299300  0.43139900  0.22051600  1
  C  2984  1  0.75422600  0.43257800  0.22204700  1
  C  2985  1  0.74603900  0.43497700  0.23445000  1
  C  2986  1  0.75719100  0.43646000  0.24566200  1
  C  2991  1  0.77906200  0.42887000  0.20653500  1
  C  2995  1  0.80819800  0.41719800  0.25515600  1
  C  3001  1  0.23246300  0.45054800  0.48481900  1
  C  3002  1  0.23903000  0.46184900  0.49485900  1
  C  3004  1  0.22957700  0.48842300  0.48294500  1
  C  3005  1  0.22275800  0.47741700  0.47247200  1
  C  3006  1  0.22460900  0.45865300  0.47366200  1
  C  3008  1  0.22964400  0.50766600  0.48304100  1
  C  3009  1  0.22816100  0.51857600  0.49466100  1
  C  3010  1  0.22932100  0.53731700  0.49312900  1
  C  3011  1  0.23165800  0.54555600  0.48074300  1
  C  3012  1  0.23320500  0.53436500  0.46956400  1
  C  3017  1  0.22562700  0.51256400  0.50864100  1
  C  3021  1  0.21386000  0.48348800  0.46002100  1
  C  3027  1  0.35268000  0.54556900  0.98477000  1
  C  3028  1  0.34614100  0.53429400  0.99484600  1
  C  3030  1  0.35559400  0.50770200  0.98294500  1
  C  3031  1  0.36243000  0.51869400  0.97246900  1
  C  3032  1  0.36061100  0.53746200  0.97365300  1
  C  3034  1  0.35551600  0.48845900  0.98304100  1
  C  3035  1  0.35700000  0.47754700  0.99465800  1
  C  3036  1  0.35586400  0.45880400  0.99313000  1
  C  3037  1  0.35351500  0.45056700  0.98074100  1
  C  3038  1  0.35198700  0.46175700  0.96955900  1
  C  3043  1  0.35953800  0.48355900  0.00864300  1
  C  3047  1  0.37131900  0.51261600  0.96001700  1
  C  3053  1  0.34020700  0.43576500  0.23477100  1
  C  3054  1  0.32890500  0.44228900  0.24484400  1
  C  3056  1  0.30225000  0.43285300  0.23295100  1
  C  3057  1  0.31326700  0.42603700  0.22247300  1
  C  3058  1  0.33207700  0.42786200  0.22365200  1
  C  3060  1  0.28296200  0.43294600  0.23304500  1
  C  3061  1  0.27201600  0.43147400  0.24466000  1
  C  3062  1  0.25322900  0.43261100  0.24312100  1
  C  3063  1  0.24498200  0.43486400  0.23071700  1
  C  3064  1  0.25621000  0.43647400  0.21955300  1
  C  3069  1  0.27803900  0.42893200  0.25863900  1
  C  3073  1  0.30717300  0.41717100  0.21001900  1
  C  3079  1  0.24496300  0.56038300  0.73481900  1
  C  3080  1  0.25629300  0.55381400  0.74485200  1
  C  3082  1  0.28292900  0.56325000  0.73294200  1
  C  3083  1  0.27189800  0.57006000  0.72247100  1
  C  3084  1  0.25308800  0.56822400  0.72366400  1
  C  3086  1  0.30221800  0.56318600  0.73303800  1
  C  3087  1  0.31315300  0.56466900  0.74466200  1
  C  3088  1  0.33194100  0.56352900  0.74313900  1
  C  3089  1  0.34016500  0.56116400  0.73075000  1
  C  3090  1  0.32898400  0.55964900  0.71955300  1
  C  3095  1  0.30712100  0.56719900  0.75864100  1
  C  3099  1  0.27798000  0.57893600  0.71002000  1
  N  1443  1  0.36763900  0.72954500  0.00881200  1
  N  1453  1  0.37334900  0.76519600  0.98716600  1
  N  1465  1  0.37531900  0.81100700  0.99596700  1
  N  1466  1  0.37464800  0.68335600  0.00266000  1
  N  1469  1  0.21751200  0.26659700  0.50881100  1
  N  1479  1  0.21183400  0.23093800  0.48717200  1
  N  1491  1  0.20982400  0.18513900  0.49591100  1
  N  1492  1  0.21053700  0.31276200  0.50267000  1
  N  1495  1  0.56176700  0.07296200  0.25881800  1
  N  1505  1  0.52603700  0.07860300  0.23717700  1
  N  1517  1  0.48014300  0.08069000  0.24590000  1
  N  1518  1  0.60804600  0.07990100  0.25266500  1
  N  1521  1  0.02343400  0.92317700  0.75881400  1
  N  1531  1  0.05916500  0.91750000  0.73716700  1
  N  1543  1  0.10506900  0.91548500  0.74592600  1
  N  1544  1  0.97713000  0.91620200  0.75265200  1
  N  1547  1  0.21752400  0.72951600  0.45637100  1
  N  1557  1  0.21183600  0.76513600  0.47800400  1
  N  1569  1  0.20981300  0.81091100  0.46929300  1
  N  1570  1  0.21051700  0.68331800  0.46257200  1
  N  1573  1  0.36766200  0.26661000  0.95638100  1
  N  1583  1  0.37333700  0.23094500  0.97801800  1
  N  1595  1  0.37532700  0.18515100  0.96923600  1
  N  1596  1  0.37463700  0.31279400  0.96256300  1
  N  1599  1  0.02338900  0.07296700  0.20637800  1
  N  1609  1  0.05913200  0.07861100  0.22801600  1
  N  1621  1  0.10501900  0.08066800  0.21922700  1
  N  1622  1  0.97709500  0.07991300  0.21257200  1
  N  1625  1  0.56174500  0.92317500  0.70638100  1
  N  1635  1  0.52600100  0.91748800  0.72802300  1
  N  1647  1  0.48009800  0.91553200  0.71922400  1
  N  1648  1  0.60807000  0.91619200  0.71258200  1
  N  1651  1  0.71636100  0.26657700  0.95637400  1
  N  1661  1  0.71067600  0.23096500  0.97800800  1
  N  1673  1  0.70860300  0.18520200  0.96934000  1
  N  1674  1  0.70936300  0.31274700  0.96249700  1
  N  1677  1  0.86882200  0.72953700  0.45638000  1
  N  1687  1  0.87450700  0.76518000  0.47802000  1
  N  1699  1  0.87651500  0.81096900  0.46926700  1
  N  1700  1  0.87579000  0.68338000  0.46249000  1
  N  1703  1  0.86884100  0.26661900  0.50881900  1
  N  1713  1  0.87451500  0.23097300  0.48718400  1
  N  1725  1  0.87647200  0.18519500  0.49595400  1
  N  1726  1  0.87580000  0.31280900  0.50262100  1
  N  1729  1  0.71635200  0.72952400  0.00881300  1
  N  1739  1  0.71065100  0.76518200  0.98716800  1
  N  1751  1  0.70873000  0.81095900  0.99585800  1
  N  1752  1  0.70934800  0.68331300  0.00261100  1
  N  1755  1  0.06057000  0.57527600  0.75881700  1
  N  1765  1  0.02486000  0.58094300  0.73717500  1
  N  1777  1  0.97898100  0.58301500  0.74583400  1
  N  1778  1  0.10686200  0.58226600  0.75266500  1
  N  1781  1  0.52458500  0.42082300  0.25881800  1
  N  1791  1  0.56031000  0.41517400  0.23717900  1
  N  1803  1  0.60619100  0.41312300  0.24583600  1
  N  1804  1  0.47831200  0.41386900  0.25267400  1
  N  1807  1  0.52456100  0.57530400  0.70637400  1
  N  1817  1  0.56029000  0.58095100  0.72801100  1
  N  1829  1  0.60614400  0.58297600  0.71919500  1
  N  1830  1  0.47827700  0.58225500  0.71256100  1
  N  1833  1  0.06057400  0.42083900  0.20638100  1
  N  1843  1  0.02484100  0.41514800  0.22802300  1
  N  1855  1  0.97897000  0.41322100  0.21916500  1
  N  1856  1  0.10688900  0.41385000  0.21257400  1
  N  1859  1  0.55966400  0.86643000  0.96852700  1
  N  1869  1  0.52384500  0.83698400  0.96477800  1
  N  1881  1  0.47740300  0.84781800  0.96353900  1
  N  1882  1  0.60579800  0.85762000  0.96585000  1
  N  1885  1  0.02550200  0.12968700  0.46852300  1
  N  1895  1  0.06132200  0.15913400  0.46478100  1
  N  1907  1  0.10776500  0.14829900  0.46353900  1
  N  1908  1  0.97936800  0.13851500  0.46587400  1
  N  1911  1  0.42451900  0.26452400  0.21852300  1
  N  1921  1  0.45404300  0.22879000  0.21478600  1
  N  1933  1  0.44313500  0.18244700  0.21355200  1
  N  1934  1  0.43335300  0.31056400  0.21586700  1
  N  1937  1  0.16065000  0.73159600  0.71852600  1
  N  1947  1  0.13113000  0.76733900  0.71478500  1
  N  1959  1  0.14200800  0.81366900  0.71353700  1
  N  1960  1  0.15181500  0.68555700  0.71586200  1
  N  1963  1  0.02550900  0.86643100  0.49666900  1
  N  1973  1  0.06133400  0.83698500  0.50041400  1
  N  1985  1  0.10778800  0.84784900  0.50164900  1
  N  1986  1  0.97938800  0.85758100  0.49932500  1
  N  1989  1  0.55965600  0.12969000  0.99666100  1
  N  1999  1  0.52383500  0.15913400  0.00041500  1
  N  2011  1  0.47738100  0.14827400  0.00165100  1
  N  2012  1  0.60577800  0.13852300  0.99934600  1
  N  2015  1  0.16064300  0.26451300  0.24666600  1
  N  2025  1  0.13112500  0.22877400  0.25041200  1
  N  2037  1  0.14208400  0.18242400  0.25163700  1
  N  2038  1  0.15181900  0.31053800  0.24937200  1
  N  2041  1  0.42452300  0.73160600  0.74666200  1
  N  2051  1  0.45403900  0.76735100  0.75040800  1
  N  2063  1  0.44313100  0.81369200  0.75165100  1
  N  2064  1  0.43336000  0.68557900  0.74935600  1
  N  2067  1  0.66181700  0.73162400  0.74666400  1
  N  2077  1  0.63230200  0.76735000  0.75041200  1
  N  2089  1  0.64318100  0.81368800  0.75165600  1
  N  2090  1  0.65296400  0.68563700  0.74934100  1
  N  2093  1  0.92335000  0.26449700  0.24667000  1
  N  2103  1  0.95286600  0.22876900  0.25041400  1
  N  2115  1  0.94196900  0.18243200  0.25165800  1
  N  2116  1  0.93222200  0.31048500  0.24932000  1
  N  2119  1  0.92335300  0.73161000  0.71852700  1
  N  2129  1  0.95287300  0.76733000  0.71478200  1
  N  2141  1  0.94194200  0.81364700  0.71354400  1
  N  2142  1  0.93219200  0.68559900  0.71583000  1
  N  2145  1  0.66181900  0.26450800  0.21853100  1
  N  2155  1  0.63229800  0.22878100  0.21478800  1
  N  2167  1  0.64318000  0.18247500  0.21353000  1
  N  2168  1  0.65296600  0.31052000  0.21584700  1
  N  2171  1  0.06083900  0.36642900  0.46852900  1
  N  2181  1  0.02501100  0.33698500  0.46478000  1
  N  2193  1  0.97856100  0.34785600  0.46353900  1
  N  2194  1  0.10698100  0.35762900  0.46584500  1
  N  2197  1  0.52432800  0.62968800  0.96852300  1
  N  2207  1  0.56015700  0.65913300  0.96477900  1
  N  2219  1  0.60660600  0.64826100  0.96353400  1
  N  2220  1  0.47818600  0.63850600  0.96586500  1
  N  2223  1  0.52433000  0.36642900  0.99667100  1
  N  2233  1  0.56016000  0.33697900  0.00041400  1
  N  2245  1  0.60662200  0.34793400  0.00164600  1
  N  2246  1  0.47819600  0.35759600  0.99933500  1
  N  2249  1  0.06083300  0.62969100  0.49666200  1
  N  2259  1  0.02500000  0.65913700  0.50040900  1
  N  2271  1  0.97854900  0.64823400  0.50165900  1
  N  2272  1  0.10696700  0.63850700  0.49935600  1
  N  2275  1  0.39214500  0.90880700  0.87124000  1
  N  2285  1  0.39766800  0.87888400  0.84456400  1
  N  2297  1  0.39483300  0.88897200  0.81033500  1
  N  2298  1  0.39168500  0.89393900  0.90494200  1
  N  2301  1  0.19299400  0.08728400  0.37124900  1
  N  2311  1  0.18750700  0.11723900  0.34457300  1
  N  2323  1  0.19030800  0.10714100  0.31034000  1
  N  2324  1  0.19355200  0.10214300  0.40494800  1
  N  2327  1  0.38202000  0.09741700  0.12125600  1
  N  2337  1  0.41205200  0.10288600  0.09458200  1
  N  2349  1  0.40186200  0.10018200  0.06033000  1
  N  2350  1  0.39692000  0.09687800  0.15495800  1
  N  2353  1  0.20312300  0.89873500  0.62123300  1
  N  2363  1  0.17312200  0.89321900  0.59456000  1
  N  2375  1  0.18325900  0.89603200  0.56033900  1
  N  2376  1  0.18822900  0.89920600  0.65493000  1
  N  2379  1  0.69201900  0.08746100  0.09400200  1
  N  2389  1  0.68696800  0.11774700  0.12075900  1
  N  2401  1  0.68265300  0.10544600  0.15479000  1
  N  2402  1  0.69226500  0.10218600  0.06030000  1
  N  2405  1  0.89318000  0.90867900  0.59398900  1
  N  2415  1  0.89820500  0.87837900  0.62075700  1
  N  2427  1  0.90245100  0.89071700  0.65479400  1
  N  2428  1  0.89283500  0.89396800  0.56028800  1
  N  2431  1  0.70434700  0.89867900  0.84384300  1
  N  2441  1  0.67426100  0.89336700  0.87046600  1
  N  2453  1  0.68400600  0.89523300  0.90485600  1
  N  2454  1  0.68920800  0.89923200  0.81008200  1
  N  2457  1  0.88084700  0.09740300  0.34386300  1
  N  2467  1  0.91090500  0.10275700  0.37048000  1
  N  2479  1  0.90119100  0.10083600  0.40485400  1
  N  2480  1  0.89597800  0.09691900  0.31010900  1
  N  2483  1  0.89321600  0.40866900  0.37137900  1
  N  2493  1  0.89824800  0.37861600  0.34466000  1
  N  2505  1  0.89898300  0.39067200  0.31039000  1
  N  2506  1  0.89287000  0.39372500  0.40510900  1
  N  2509  1  0.69191800  0.58742200  0.87138400  1
  N  2519  1  0.68692100  0.61750500  0.84466200  1
  N  2531  1  0.68617300  0.60545500  0.81039300  1
  N  2532  1  0.69236400  0.60236100  0.90511200  1
  N  2535  1  0.88098600  0.59964300  0.62130700  1
  N  2545  1  0.91114100  0.60465300  0.59458200  1
  N  2557  1  0.89893800  0.60566800  0.56023100  1
  N  2558  1  0.89574900  0.59922300  0.65496800  1
  N  2561  1  0.70416100  0.39651200  0.12129300  1
  N  2571  1  0.67403200  0.39147700  0.09458200  1
  N  2583  1  0.68619100  0.39052600  0.06022700  1
  N  2584  1  0.68940200  0.39686400  0.15494400  1
  N  2587  1  0.19300800  0.58729400  0.59386900  1
  N  2597  1  0.18765100  0.61726700  0.62053000  1
  N  2609  1  0.18929900  0.60748100  0.65502300  1
  N  2610  1  0.19347800  0.60238500  0.56010900  1
  N  2613  1  0.39219300  0.40885500  0.09386400  1
  N  2623  1  0.39752000  0.37885000  0.12052800  1
  N  2635  1  0.39587800  0.38863700  0.15502500  1
  N  2636  1  0.39162700  0.39376600  0.06010300  1
  N  2639  1  0.20298300  0.39651600  0.34392000  1
  N  2649  1  0.17263300  0.39149700  0.37074200  1
  N  2661  1  0.18502200  0.38730000  0.40477200  1
  N  2662  1  0.18802400  0.39683900  0.31013500  1
  N  2665  1  0.38220300  0.59956800  0.84394200  1
  N  2675  1  0.41255200  0.60458800  0.87075000  1
  N  2687  1  0.40022400  0.60890100  0.90477500  1
  N  2688  1  0.39716200  0.59931400  0.81016200  1
  N  2691  1  0.34761900  0.01630300  0.97183000  1
  N  2701  1  0.35283700  0.97976500  0.99393400  1
  N  2713  1  0.34733000  0.93398700  0.98387300  1
  N  2714  1  0.34686200  0.06219000  0.98181800  1
  N  2717  1  0.23754000  0.97979700  0.47183300  1
  N  2727  1  0.23233400  0.01635100  0.49393800  1
  N  2739  1  0.23783400  0.06212500  0.48387200  1
  N  2740  1  0.23832800  0.93392000  0.48180400  1
  N  2743  1  0.27427800  0.05297600  0.22183200  1
  N  2753  1  0.31090800  0.05815100  0.24394000  1
  N  2765  1  0.35678000  0.05269800  0.23385500  1
  N  2766  1  0.22829300  0.05218800  0.23180300  1
  N  2769  1  0.31086600  0.94315800  0.72183200  1
  N  2779  1  0.27423800  0.93794100  0.74394400  1
  N  2791  1  0.22837300  0.94343600  0.73386900  1
  N  2792  1  0.35686400  0.94390700  0.73182000  1
  N  2795  1  0.73637500  0.97984100  0.99336800  1
  N  2805  1  0.73115500  0.01633400  0.97124800  1
  N  2817  1  0.73684600  0.06204800  0.98128600  1
  N  2818  1  0.73730600  0.93401200  0.98338900  1
  N  2821  1  0.84880100  0.01629800  0.49336800  1
  N  2831  1  0.85401100  0.97978700  0.47125200  1
  N  2843  1  0.84833000  0.93407700  0.48129100  1
  N  2844  1  0.84784300  0.06211500  0.48340700  1
  N  2847  1  0.81153400  0.94324600  0.74343100  1
  N  2857  1  0.77524100  0.93795300  0.72123200  1
  N  2869  1  0.72945100  0.94345100  0.73133900  1
  N  2870  1  0.85727600  0.94448800  0.73355200  1
  N  2873  1  0.77365900  0.05285900  0.24343100  1
  N  2883  1  0.80994900  0.05819600  0.22122800  1
  N  2895  1  0.85573000  0.05265300  0.23132400  1
  N  2896  1  0.72790300  0.05164600  0.23353500  1
  N  2899  1  0.84879100  0.51630400  0.47183200  1
  N  2909  1  0.85400900  0.47976100  0.49393900  1
  N  2921  1  0.84851700  0.43398400  0.48386400  1
  N  2922  1  0.84803600  0.56218500  0.48183200  1
  N  2925  1  0.73636900  0.47979600  0.97183100  1
  N  2935  1  0.73116300  0.51635500  0.99393400  1
  N  2947  1  0.73664600  0.56213000  0.98385800  1
  N  2948  1  0.73715300  0.43392600  0.98181400  1
  N  2951  1  0.77366600  0.55521200  0.72175200  1
  N  2961  1  0.80990500  0.56051000  0.74396600  1
  N  2973  1  0.85562900  0.55481200  0.73389500  1
  N  2974  1  0.72798500  0.55378000  0.73161200  1
  N  2977  1  0.81147700  0.44092000  0.22175500  1
  N  2987  1  0.77524100  0.43558100  0.24397200  1
  N  2999  1  0.72952500  0.44132100  0.23391500  1
  N  3000  1  0.85717200  0.44232400  0.23163400  1
  N  3003  1  0.23754700  0.47983800  0.49336800  1
  N  3013  1  0.23232700  0.51633800  0.47125100  1
  N  3025  1  0.23800100  0.56205200  0.48129900  1
  N  3026  1  0.23847000  0.43401200  0.48338100  1
  N  3029  1  0.34763000  0.51630100  0.99336800  1
  N  3039  1  0.35283800  0.47978400  0.97125000  1
  N  3051  1  0.34717400  0.43407200  0.98130200  1
  N  3052  1  0.34667900  0.56211600  0.98339500  1
  N  3055  1  0.31087000  0.44080200  0.24336800  1
  N  3065  1  0.27427700  0.43562600  0.22125100  1
  N  3077  1  0.22846700  0.44124400  0.23132200  1
  N  3078  1  0.35679500  0.44174800  0.23339900  1
  N  3081  1  0.27432500  0.55530200  0.74336600  1
  N  3091  1  0.31091400  0.56052000  0.72124500  1
  N  3103  1  0.35671600  0.55486100  0.73130400  1
  N  3104  1  0.22838700  0.55439300  0.73337900  1
