# generated using pymatgen
data_H19C32N6O
_symmetry_space_group_name_H-M   'P 1'
_cell_length_a   25.72490000
_cell_length_b   25.72490000
_cell_length_c   102.89900000
_cell_angle_alpha   90.00000000
_cell_angle_beta   90.00000000
_cell_angle_gamma   90.00000000
_symmetry_Int_Tables_number   1
_chemical_formula_structural   H19C32N6O
_chemical_formula_sum   'H456 C768 N144 O24'
_cell_volume   68095.52062255
_cell_formula_units_Z   24
loop_
 _symmetry_equiv_pos_site_id
 _symmetry_equiv_pos_as_xyz
  1  'x, y, z'
loop_
 _atom_site_type_symbol
 _atom_site_label
 _atom_site_symmetry_multiplicity
 _atom_site_fract_x
 _atom_site_fract_y
 _atom_site_fract_z
 _atom_site_occupancy
  H  49  1  0.92015600  0.03873400  0.20908100  1
  H  50  1  0.92060300  0.03677100  0.18576000  1
  H  51  1  0.07503900  0.98489900  0.20949700  1
  H  52  1  0.07574700  0.98357000  0.18624400  1
  H  53  1  0.99434900  0.90511300  0.17901200  1
  H  54  1  0.99574900  0.83553000  0.16170200  1
  H  55  1  0.00162600  0.97670100  0.14362800  1
  H  56  1  0.00349600  0.04071300  0.12742700  1
  H  57  1  0.00422300  0.11485300  0.17924800  1
  H  58  1  0.00502400  0.18418500  0.16171700  1
  H  59  1  0.92213100  0.21092900  0.13223000  1
  H  60  1  0.92370900  0.30393100  0.13193000  1
  H  61  1  0.08420300  0.20839100  0.13855300  1
  H  62  1  0.08574800  0.30167200  0.13839200  1
  H  63  1  0.99929000  0.18202000  0.10937900  1
  H  64  1  0.99812000  0.11237300  0.09202800  1
  H  65  1  0.00173500  0.83320200  0.10929700  1
  H  66  1  0.00378400  0.90259000  0.09180700  1
  H  67  1  0.08052400  0.03023400  0.08530100  1
  H  68  1  0.08193200  0.02842400  0.06204700  1
  H  69  1  0.92304500  0.98430800  0.08493000  1
  H  70  1  0.92461100  0.98208100  0.06161000  1
  H  71  1  0.91876900  0.80852500  0.14055500  1
  H  72  1  0.91818200  0.71523000  0.14121000  1
  H  73  1  0.07754600  0.71332500  0.13152100  1
  H  74  1  0.07829900  0.80637500  0.13099400  1
  H  127  1  0.98164200  0.92026100  0.70912200  1
  H  128  1  0.98355400  0.92064600  0.68580200  1
  H  129  1  0.03573000  0.07505300  0.70950800  1
  H  130  1  0.03699000  0.07571000  0.68625100  1
  H  131  1  0.11535200  0.99455100  0.67900900  1
  H  132  1  0.18484900  0.99571400  0.66167900  1
  H  133  1  0.04358700  0.00110500  0.64363900  1
  H  134  1  0.97950400  0.00215100  0.62745200  1
  H  135  1  0.90561000  0.00440900  0.67929400  1
  H  136  1  0.83619500  0.00494600  0.66178400  1
  H  137  1  0.80916600  0.92156400  0.63233900  1
  H  138  1  0.71617900  0.92331300  0.63203000  1
  H  139  1  0.81200400  0.08367800  0.63858200  1
  H  140  1  0.71872500  0.08539200  0.63841900  1
  H  141  1  0.83810000  0.99782800  0.60945500  1
  H  142  1  0.90764700  0.99571400  0.59208800  1
  H  143  1  0.18692300  0.99994700  0.60926300  1
  H  144  1  0.11743500  0.00104300  0.59178800  1
  H  145  1  0.98987500  0.07699700  0.58495200  1
  H  146  1  0.99139500  0.07656300  0.56169200  1
  H  147  1  0.03555200  0.91944900  0.58532300  1
  H  148  1  0.03750600  0.91916500  0.56200000  1
  H  149  1  0.21189000  0.91834100  0.64063700  1
  H  150  1  0.30518800  0.91796000  0.64128400  1
  H  151  1  0.30674500  0.07710100  0.63135900  1
  H  152  1  0.21369300  0.07764100  0.63083800  1
  H  205  1  0.10135100  0.01916100  0.81160800  1
  H  206  1  0.10156700  0.02008900  0.83494100  1
  H  207  1  0.93903700  0.99513800  0.81187200  1
  H  208  1  0.93925500  0.99660400  0.83508400  1
  H  209  1  0.01737200  0.90447500  0.84193100  1
  H  210  1  0.01673600  0.83499400  0.85930900  1
  H  211  1  0.02259500  0.97638200  0.87729600  1
  H  212  1  0.01938700  0.04064500  0.89338100  1
  H  213  1  0.02089600  0.11393600  0.84149900  1
  H  214  1  0.02014100  0.18374900  0.85896500  1
  H  215  1  0.09777800  0.21075700  0.88923900  1
  H  216  1  0.09622200  0.30376600  0.88952600  1
  H  217  1  0.93675900  0.20834800  0.88140000  1
  H  218  1  0.93525800  0.30162600  0.88155500  1
  H  219  1  0.01674100  0.18217800  0.91134600  1
  H  220  1  0.01778200  0.11269300  0.92875000  1
  H  221  1  0.02310800  0.83336100  0.91173300  1
  H  222  1  0.02141900  0.90312600  0.92916800  1
  H  223  1  0.93847300  0.02307500  0.93560600  1
  H  224  1  0.93836800  0.02417200  0.95885400  1
  H  225  1  0.09992400  0.99403800  0.93570600  1
  H  226  1  0.09975500  0.99451600  0.95903200  1
  H  227  1  0.10019100  0.80837300  0.87950700  1
  H  228  1  0.10074000  0.71509400  0.87883000  1
  H  229  1  0.94327800  0.71305700  0.89031700  1
  H  230  1  0.94259000  0.80607200  0.89089500  1
  H  283  1  0.01939100  0.91911800  0.31156200  1
  H  284  1  0.02050100  0.91879600  0.33489500  1
  H  285  1  0.99547600  0.08144800  0.31188600  1
  H  286  1  0.99712100  0.08112100  0.33509600  1
  H  287  1  0.90499600  0.00311100  0.34197600  1
  H  288  1  0.83567800  0.00357000  0.35939400  1
  H  289  1  0.97723000  0.99737700  0.37729500  1
  H  290  1  0.04165800  0.00001700  0.39334300  1
  H  291  1  0.11445000  0.99933300  0.34142000  1
  H  292  1  0.18442900  0.99988900  0.35884400  1
  H  293  1  0.21185100  0.92244600  0.38925900  1
  H  294  1  0.30484000  0.92421100  0.38956300  1
  H  295  1  0.20911900  0.08324400  0.38115000  1
  H  296  1  0.30239400  0.08495100  0.38131700  1
  H  297  1  0.18333400  0.00390000  0.41122600  1
  H  298  1  0.11400500  0.00310700  0.42866800  1
  H  299  1  0.83453900  0.99681800  0.41181500  1
  H  300  1  0.90446300  0.99873400  0.42921000  1
  H  301  1  0.02378200  0.08314400  0.43523100  1
  H  302  1  0.02399400  0.08492800  0.45854900  1
  H  303  1  0.99544500  0.92159900  0.43602600  1
  H  304  1  0.99506800  0.92342900  0.45927100  1
  H  305  1  0.80913500  0.91991100  0.37957900  1
  H  306  1  0.71585600  0.91956200  0.37890500  1
  H  307  1  0.71414900  0.07700600  0.39040700  1
  H  308  1  0.80716800  0.07749500  0.39098400  1
  H  323  1  0.89502500  0.88739400  0.27680400  1
  H  324  1  0.06553200  0.06451100  0.24689300  1
  H  325  1  0.06081100  0.08044900  0.26961900  1
  H  327  1  0.95022500  0.92256300  0.24045600  1
  H  329  1  0.04727400  0.96462700  0.23128100  1
  H  331  1  0.00594900  0.06912600  0.28971900  1
  H  342  1  0.13340900  0.89520800  0.77687000  1
  H  343  1  0.95617200  0.06536200  0.74687500  1
  H  344  1  0.94011000  0.06065100  0.76959600  1
  H  346  1  0.09840700  0.95034100  0.74050600  1
  H  348  1  0.05656800  0.04680800  0.73127900  1
  H  350  1  0.95144500  0.00609300  0.78971700  1
  H  361  1  0.17425000  0.99701200  0.99116700  1
  H  362  1  0.93918500  0.02353500  0.02546900  1
  H  363  1  0.92320800  0.01836200  0.00289700  1
  H  365  1  0.12298500  0.00648900  0.02876700  1
  H  367  1  0.05654300  0.04995300  0.04027800  1
  H  369  1  0.95170200  0.01164300  0.98112800  1
  H  380  1  0.02225200  0.16230600  0.49017200  1
  H  381  1  0.99535200  0.93073400  0.52590500  1
  H  382  1  0.00008300  0.91256100  0.50343400  1
  H  384  1  0.01326500  0.11472300  0.52807900  1
  H  386  1  0.96981600  0.04964100  0.54004300  1
  H  388  1  0.00577400  0.93894400  0.48148900  1
  H  399  1  0.16247900  0.42794400  0.13848500  1
  H  400  1  0.93078800  0.57056900  0.13158100  1
  H  401  1  0.91271200  0.48066300  0.13279600  1
  H  403  1  0.11476200  0.57949800  0.13613500  1
  H  405  1  0.04978500  0.62732300  0.12529600  1
  H  407  1  0.93915400  0.39294300  0.13458700  1
  H  418  1  0.59236800  0.16228300  0.63849300  1
  H  419  1  0.44965400  0.93064800  0.63158800  1
  H  420  1  0.53953200  0.91252900  0.63283000  1
  H  422  1  0.44079500  0.11464400  0.63611000  1
  H  424  1  0.39293900  0.04966900  0.62529200  1
  H  426  1  0.62723700  0.93891600  0.63465800  1
  H  437  1  0.85798300  0.42769500  0.88232500  1
  H  438  1  0.08958600  0.57040900  0.88932200  1
  H  439  1  0.10773900  0.48051900  0.88806900  1
  H  441  1  0.90564500  0.57925700  0.88475600  1
  H  443  1  0.97084700  0.62677500  0.89577500  1
  H  445  1  0.08129600  0.39275200  0.88652200  1
  H  456  1  0.42860500  0.16252500  0.38231200  1
  H  457  1  0.57134200  0.93095900  0.38934300  1
  H  458  1  0.48147200  0.91278200  0.38806600  1
  H  460  1  0.58017000  0.11490300  0.38477800  1
  H  462  1  0.62768800  0.04974000  0.39579300  1
  H  464  1  0.39372800  0.93920400  0.38656700  1
  H  513  1  0.23113900  0.34971700  0.24795400  1
  H  514  1  0.23158600  0.34775400  0.22463300  1
  H  515  1  0.38602200  0.29588200  0.24837000  1
  H  516  1  0.38673000  0.29455300  0.22511700  1
  H  517  1  0.30533200  0.21609600  0.21788500  1
  H  518  1  0.30673200  0.14651300  0.20057500  1
  H  519  1  0.31260900  0.28768400  0.18250100  1
  H  520  1  0.31447900  0.35169600  0.16630000  1
  H  521  1  0.31520600  0.42583600  0.21812100  1
  H  522  1  0.31600700  0.49516800  0.20059000  1
  H  523  1  0.23311400  0.52191200  0.17110300  1
  H  524  1  0.23469200  0.61491400  0.17080300  1
  H  525  1  0.39518600  0.51937400  0.17742600  1
  H  526  1  0.39673100  0.61265500  0.17726500  1
  H  527  1  0.31027300  0.49300300  0.14825200  1
  H  528  1  0.30910300  0.42335600  0.13090100  1
  H  529  1  0.31271800  0.14418500  0.14817000  1
  H  530  1  0.31476700  0.21357300  0.13068000  1
  H  531  1  0.39150700  0.34121700  0.12417400  1
  H  532  1  0.39291500  0.33940700  0.10092000  1
  H  533  1  0.23402800  0.29529100  0.12380300  1
  H  534  1  0.23559400  0.29306400  0.10048300  1
  H  535  1  0.22975200  0.11950800  0.17942800  1
  H  536  1  0.22916500  0.02621270  0.18008300  1
  H  537  1  0.38852900  0.02430770  0.17039400  1
  H  538  1  0.38928200  0.11735800  0.16986700  1
  H  591  1  0.29262500  0.23124400  0.74799500  1
  H  592  1  0.29453700  0.23162900  0.72467500  1
  H  593  1  0.34671300  0.38603600  0.74838100  1
  H  594  1  0.34797300  0.38669300  0.72512400  1
  H  595  1  0.42633500  0.30553400  0.71788200  1
  H  596  1  0.49583200  0.30669700  0.70055200  1
  H  597  1  0.35457000  0.31208800  0.68251200  1
  H  598  1  0.29048700  0.31313400  0.66632500  1
  H  599  1  0.21659300  0.31539200  0.71816700  1
  H  600  1  0.14717800  0.31592900  0.70065700  1
  H  601  1  0.12014900  0.23254700  0.67121200  1
  H  602  1  0.02716170  0.23429600  0.67090300  1
  H  603  1  0.12298700  0.39466100  0.67745500  1
  H  604  1  0.02970770  0.39637500  0.67729200  1
  H  605  1  0.14908300  0.30881100  0.64832800  1
  H  606  1  0.21863000  0.30669700  0.63096100  1
  H  607  1  0.49790600  0.31093000  0.64813600  1
  H  608  1  0.42841800  0.31202600  0.63066100  1
  H  609  1  0.30085800  0.38798000  0.62382500  1
  H  610  1  0.30237800  0.38754600  0.60056500  1
  H  611  1  0.34653500  0.23043200  0.62419600  1
  H  612  1  0.34848900  0.23014800  0.60087300  1
  H  613  1  0.52287300  0.22932400  0.67951000  1
  H  614  1  0.61617100  0.22894300  0.68015700  1
  H  615  1  0.61772800  0.38808400  0.67023200  1
  H  616  1  0.52467600  0.38862400  0.66971100  1
  H  669  1  0.41233400  0.33014400  0.85048100  1
  H  670  1  0.41255000  0.33107200  0.87381400  1
  H  671  1  0.25002000  0.30612100  0.85074500  1
  H  672  1  0.25023800  0.30758700  0.87395700  1
  H  673  1  0.32835500  0.21545800  0.88080400  1
  H  674  1  0.32771900  0.14597700  0.89818200  1
  H  675  1  0.33357800  0.28736500  0.91616900  1
  H  676  1  0.33037000  0.35162800  0.93225400  1
  H  677  1  0.33187900  0.42491900  0.88037200  1
  H  678  1  0.33112400  0.49473200  0.89783800  1
  H  679  1  0.40876100  0.52174000  0.92811200  1
  H  680  1  0.40720500  0.61474900  0.92839900  1
  H  681  1  0.24774200  0.51933100  0.92027300  1
  H  682  1  0.24624100  0.61260900  0.92042800  1
  H  683  1  0.32772400  0.49316100  0.95021900  1
  H  684  1  0.32876500  0.42367600  0.96762300  1
  H  685  1  0.33409100  0.14434400  0.95060600  1
  H  686  1  0.33240200  0.21410900  0.96804100  1
  H  687  1  0.24945600  0.33405800  0.97447900  1
  H  688  1  0.24935100  0.33515500  0.99772700  1
  H  689  1  0.41090700  0.30502100  0.97457900  1
  H  690  1  0.41073800  0.30549900  0.99790500  1
  H  691  1  0.41117400  0.11935600  0.91838000  1
  H  692  1  0.41172300  0.02607670  0.91770300  1
  H  693  1  0.25426100  0.02403970  0.92919000  1
  H  694  1  0.25357300  0.11705500  0.92976800  1
  H  747  1  0.33037400  0.23010100  0.35043500  1
  H  748  1  0.33148400  0.22977900  0.37376800  1
  H  749  1  0.30645900  0.39243100  0.35075900  1
  H  750  1  0.30810400  0.39210400  0.37396900  1
  H  751  1  0.21597900  0.31409400  0.38084900  1
  H  752  1  0.14666100  0.31455300  0.39826700  1
  H  753  1  0.28821300  0.30836000  0.41616800  1
  H  754  1  0.35264100  0.31100000  0.43221600  1
  H  755  1  0.42543300  0.31031600  0.38029300  1
  H  756  1  0.49541200  0.31087200  0.39771700  1
  H  757  1  0.52283400  0.23342900  0.42813200  1
  H  758  1  0.61582300  0.23519400  0.42843600  1
  H  759  1  0.52010200  0.39422700  0.42002300  1
  H  760  1  0.61337700  0.39593400  0.42019000  1
  H  761  1  0.49431700  0.31488300  0.45009900  1
  H  762  1  0.42498800  0.31409000  0.46754100  1
  H  763  1  0.14552200  0.30780100  0.45068800  1
  H  764  1  0.21544600  0.30971700  0.46808300  1
  H  765  1  0.33476500  0.39412700  0.47410400  1
  H  766  1  0.33497700  0.39591100  0.49742200  1
  H  767  1  0.30642800  0.23258200  0.47489900  1
  H  768  1  0.30605100  0.23441200  0.49814400  1
  H  769  1  0.12011800  0.23089400  0.41845200  1
  H  770  1  0.02683870  0.23054500  0.41777800  1
  H  771  1  0.02513170  0.38798900  0.42928000  1
  H  772  1  0.11815100  0.38847800  0.42985700  1
  H  787  1  0.20600800  0.19837700  0.31567700  1
  H  788  1  0.37651500  0.37549400  0.28576600  1
  H  789  1  0.37179400  0.39143200  0.30849200  1
  H  791  1  0.26120800  0.23354600  0.27932900  1
  H  793  1  0.35825700  0.27561000  0.27015400  1
  H  795  1  0.31693200  0.38010900  0.32859200  1
  H  806  1  0.44439200  0.20619100  0.81574300  1
  H  807  1  0.26715500  0.37634500  0.78574800  1
  H  808  1  0.25109300  0.37163400  0.80846900  1
  H  810  1  0.40939000  0.26132400  0.77937900  1
  H  812  1  0.36755100  0.35779100  0.77015200  1
  H  814  1  0.26242800  0.31707600  0.82859000  1
  H  825  1  0.48523300  0.30799500  0.03004010  1
  H  826  1  0.25016800  0.33451800  0.06434210  1
  H  827  1  0.23419100  0.32934500  0.04177010  1
  H  829  1  0.43396800  0.31747200  0.06764010  1
  H  831  1  0.36752600  0.36093600  0.07915110  1
  H  833  1  0.26268500  0.32262600  0.02000110  1
  H  844  1  0.33323500  0.47328900  0.52904500  1
  H  845  1  0.30633500  0.24171700  0.56477800  1
  H  846  1  0.31106600  0.22354400  0.54230700  1
  H  848  1  0.32424800  0.42570600  0.56695200  1
  H  850  1  0.28079900  0.36062400  0.57891600  1
  H  852  1  0.31675700  0.24992700  0.52036200  1
  H  863  1  0.47346200  0.73892700  0.17735800  1
  H  864  1  0.24177100  0.88155200  0.17045400  1
  H  865  1  0.22369500  0.79164600  0.17166900  1
  H  867  1  0.42574500  0.89048100  0.17500800  1
  H  869  1  0.36076800  0.93830600  0.16416900  1
  H  871  1  0.25013700  0.70392600  0.17346000  1
  H  882  1  0.90335100  0.47326600  0.67736600  1
  H  883  1  0.76063700  0.24163100  0.67046100  1
  H  884  1  0.85051500  0.22351200  0.67170300  1
  H  886  1  0.75177800  0.42562700  0.67498300  1
  H  888  1  0.70392200  0.36065200  0.66416500  1
  H  890  1  0.93822000  0.24989900  0.67353100  1
  H  901  1  0.16896600  0.73867800  0.92119800  1
  H  902  1  0.40056900  0.88139200  0.92819500  1
  H  903  1  0.41872200  0.79150200  0.92694200  1
  H  905  1  0.21662800  0.89024000  0.92362900  1
  H  907  1  0.28183000  0.93775800  0.93464800  1
  H  909  1  0.39227900  0.70373500  0.92539500  1
  H  920  1  0.73958800  0.47350800  0.42118500  1
  H  921  1  0.88232500  0.24194200  0.42821600  1
  H  922  1  0.79245500  0.22376500  0.42693900  1
  H  924  1  0.89115300  0.42588600  0.42365100  1
  H  926  1  0.93867100  0.36072300  0.43466600  1
  H  928  1  0.70471100  0.25018700  0.42544000  1
  H  977  1  0.54212100  0.66069900  0.28682700  1
  H  978  1  0.54256800  0.65873600  0.26350600  1
  H  979  1  0.69700400  0.60686400  0.28724300  1
  H  980  1  0.69771200  0.60553500  0.26399000  1
  H  981  1  0.61631400  0.52707800  0.25675800  1
  H  982  1  0.61771400  0.45749500  0.23944800  1
  H  983  1  0.62359100  0.59866600  0.22137400  1
  H  984  1  0.62546100  0.66267800  0.20517300  1
  H  985  1  0.62618800  0.73681800  0.25699400  1
  H  986  1  0.62698900  0.80615000  0.23946300  1
  H  987  1  0.54409600  0.83289400  0.20997600  1
  H  988  1  0.54567400  0.92589600  0.20967600  1
  H  989  1  0.70616800  0.83035600  0.21629900  1
  H  990  1  0.70771300  0.92363700  0.21613800  1
  H  991  1  0.62125500  0.80398500  0.18712500  1
  H  992  1  0.62008500  0.73433800  0.16977400  1
  H  993  1  0.62370000  0.45516700  0.18704300  1
  H  994  1  0.62574900  0.52455500  0.16955300  1
  H  995  1  0.70248900  0.65219900  0.16304700  1
  H  996  1  0.70389700  0.65038900  0.13979300  1
  H  997  1  0.54501000  0.60627300  0.16267600  1
  H  998  1  0.54657600  0.60404600  0.13935600  1
  H  999  1  0.54073400  0.43049000  0.21830100  1
  H  1000  1  0.54014700  0.33719500  0.21895600  1
  H  1001  1  0.69951100  0.33529000  0.20926700  1
  H  1002  1  0.70026400  0.42834000  0.20874000  1
  H  1055  1  0.60360700  0.54222600  0.78686800  1
  H  1056  1  0.60551900  0.54261100  0.76354800  1
  H  1057  1  0.65769500  0.69701800  0.78725400  1
  H  1058  1  0.65895500  0.69767500  0.76399700  1
  H  1059  1  0.73731700  0.61651600  0.75675500  1
  H  1060  1  0.80681400  0.61767900  0.73942500  1
  H  1061  1  0.66555200  0.62307000  0.72138500  1
  H  1062  1  0.60146900  0.62411600  0.70519800  1
  H  1063  1  0.52757500  0.62637400  0.75704000  1
  H  1064  1  0.45816000  0.62691100  0.73953000  1
  H  1065  1  0.43113100  0.54352900  0.71008500  1
  H  1066  1  0.33814400  0.54527800  0.70977600  1
  H  1067  1  0.43396900  0.70564300  0.71632800  1
  H  1068  1  0.34069000  0.70735700  0.71616500  1
  H  1069  1  0.46006500  0.61979300  0.68720100  1
  H  1070  1  0.52961200  0.61767900  0.66983400  1
  H  1071  1  0.80888800  0.62191200  0.68700900  1
  H  1072  1  0.73940000  0.62300800  0.66953400  1
  H  1073  1  0.61184000  0.69896200  0.66269800  1
  H  1074  1  0.61336000  0.69852800  0.63943800  1
  H  1075  1  0.65751700  0.54141400  0.66306900  1
  H  1076  1  0.65947100  0.54113000  0.63974600  1
  H  1077  1  0.83385500  0.54030600  0.71838300  1
  H  1078  1  0.92715300  0.53992500  0.71903000  1
  H  1079  1  0.92871000  0.69906600  0.70910500  1
  H  1080  1  0.83565800  0.69960600  0.70858400  1
  H  1133  1  0.72331600  0.64112600  0.88935400  1
  H  1134  1  0.72353200  0.64205400  0.91268700  1
  H  1135  1  0.56100200  0.61710300  0.88961800  1
  H  1136  1  0.56122000  0.61856900  0.91283000  1
  H  1137  1  0.63933700  0.52644000  0.91967700  1
  H  1138  1  0.63870100  0.45695900  0.93705500  1
  H  1139  1  0.64456000  0.59834700  0.95504200  1
  H  1140  1  0.64135200  0.66261000  0.97112700  1
  H  1141  1  0.64286100  0.73590100  0.91924500  1
  H  1142  1  0.64210600  0.80571400  0.93671100  1
  H  1143  1  0.71974300  0.83272200  0.96698500  1
  H  1144  1  0.71818700  0.92573100  0.96727200  1
  H  1145  1  0.55872400  0.83031300  0.95914600  1
  H  1146  1  0.55722300  0.92359100  0.95930100  1
  H  1147  1  0.63870600  0.80414300  0.98909200  1
  H  1148  1  0.63974700  0.73465800  0.00649621  1
  H  1149  1  0.64507300  0.45532600  0.98947900  1
  H  1150  1  0.64338400  0.52509100  0.00691421  1
  H  1151  1  0.56043800  0.64504000  0.01335220  1
  H  1152  1  0.56033300  0.64613700  0.03660020  1
  H  1153  1  0.72188900  0.61600300  0.01345220  1
  H  1154  1  0.72172000  0.61648100  0.03677820  1
  H  1155  1  0.72215600  0.43033800  0.95725300  1
  H  1156  1  0.72270500  0.33705900  0.95657600  1
  H  1157  1  0.56524300  0.33502200  0.96806300  1
  H  1158  1  0.56455500  0.42803700  0.96864100  1
  H  1211  1  0.64135600  0.54108300  0.38930800  1
  H  1212  1  0.64246600  0.54076100  0.41264100  1
  H  1213  1  0.61744100  0.70341300  0.38963200  1
  H  1214  1  0.61908600  0.70308600  0.41284200  1
  H  1215  1  0.52696100  0.62507600  0.41972200  1
  H  1216  1  0.45764300  0.62553500  0.43714000  1
  H  1217  1  0.59919500  0.61934200  0.45504100  1
  H  1218  1  0.66362300  0.62198200  0.47108900  1
  H  1219  1  0.73641500  0.62129800  0.41916600  1
  H  1220  1  0.80639400  0.62185400  0.43659000  1
  H  1221  1  0.83381600  0.54441100  0.46700500  1
  H  1222  1  0.92680500  0.54617600  0.46730900  1
  H  1223  1  0.83108400  0.70520900  0.45889600  1
  H  1224  1  0.92435900  0.70691600  0.45906300  1
  H  1225  1  0.80529900  0.62586500  0.48897200  1
  H  1226  1  0.73597000  0.62507200  0.50641400  1
  H  1227  1  0.45650400  0.61878300  0.48956100  1
  H  1228  1  0.52642800  0.62069900  0.50695600  1
  H  1229  1  0.64574700  0.70510900  0.51297700  1
  H  1230  1  0.64595900  0.70689300  0.53629500  1
  H  1231  1  0.61741000  0.54356400  0.51377200  1
  H  1232  1  0.61703300  0.54539400  0.53701700  1
  H  1233  1  0.43110000  0.54187600  0.45732500  1
  H  1234  1  0.33782100  0.54152700  0.45665100  1
  H  1235  1  0.33611400  0.69897100  0.46815300  1
  H  1236  1  0.42913300  0.69946000  0.46873000  1
  H  1251  1  0.51699000  0.50935900  0.35455000  1
  H  1252  1  0.68749700  0.68647600  0.32463900  1
  H  1253  1  0.68277600  0.70241400  0.34736500  1
  H  1255  1  0.57219000  0.54452800  0.31820200  1
  H  1257  1  0.66923900  0.58659200  0.30902700  1
  H  1259  1  0.62791400  0.69109100  0.36746500  1
  H  1270  1  0.75537400  0.51717300  0.85461600  1
  H  1271  1  0.57813700  0.68732700  0.82462100  1
  H  1272  1  0.56207500  0.68261600  0.84734200  1
  H  1274  1  0.72037200  0.57230600  0.81825200  1
  H  1276  1  0.67853300  0.66877300  0.80902500  1
  H  1278  1  0.57341000  0.62805800  0.86746300  1
  H  1289  1  0.79621500  0.61897700  0.06891320  1
  H  1290  1  0.56115000  0.64550000  0.10321500  1
  H  1291  1  0.54517300  0.64032700  0.08064320  1
  H  1293  1  0.74495000  0.62845400  0.10651300  1
  H  1295  1  0.67850800  0.67191800  0.11802400  1
  H  1297  1  0.57366700  0.63360800  0.05887420  1
  H  1308  1  0.64421700  0.78427100  0.56791800  1
  H  1309  1  0.61731700  0.55269900  0.60365100  1
  H  1310  1  0.62204800  0.53452600  0.58118000  1
  H  1312  1  0.63523000  0.73668800  0.60582500  1
  H  1314  1  0.59178100  0.67160600  0.61778900  1
  H  1316  1  0.62773900  0.56090900  0.55923500  1
  H  1327  1  0.78444400  0.04990950  0.21623100  1
  H  1328  1  0.55275300  0.19253400  0.20932700  1
  H  1329  1  0.53467700  0.10262800  0.21054200  1
  H  1331  1  0.73672700  0.20146300  0.21388100  1
  H  1333  1  0.67175000  0.24928800  0.20304200  1
  H  1335  1  0.56111900  0.01490850  0.21233300  1
  H  1346  1  0.21433300  0.78424800  0.71623900  1
  H  1347  1  0.07161950  0.55261300  0.70933400  1
  H  1348  1  0.16149700  0.53449400  0.71057600  1
  H  1350  1  0.06276050  0.73660900  0.71385600  1
  H  1352  1  0.01490450  0.67163400  0.70303800  1
  H  1354  1  0.24920200  0.56088100  0.71240400  1
  H  1365  1  0.47994800  0.04966050  0.96007100  1
  H  1366  1  0.71155100  0.19237400  0.96706800  1
  H  1367  1  0.72970400  0.10248400  0.96581500  1
  H  1369  1  0.52761000  0.20122200  0.96250200  1
  H  1371  1  0.59281200  0.24874000  0.97352100  1
  H  1373  1  0.70326100  0.01471750  0.96426800  1
  H  1384  1  0.05057050  0.78449000  0.46005800  1
  H  1385  1  0.19330700  0.55292400  0.46708900  1
  H  1386  1  0.10343700  0.53474700  0.46581200  1
  H  1388  1  0.20213500  0.73686800  0.46252400  1
  H  1390  1  0.24965300  0.67170500  0.47353900  1
  H  1392  1  0.01569350  0.56116900  0.46431300  1
  C  1  1  0.99604800  0.91253700  0.16926500  1
  C  2  1  0.99667400  0.87450800  0.15980200  1
  C  3  1  0.99841500  0.89866700  0.14764200  1
  C  5  1  0.99833800  0.96105500  0.16318200  1
  C  6  1  0.99895600  0.00977400  0.16980400  1
  C  7  1  0.00050700  0.05885600  0.16342900  1
  C  9  1  0.00210000  0.12027400  0.14789800  1
  C  10  1  0.00350800  0.14510800  0.15996400  1
  C  11  1  0.00291700  0.10737300  0.16950000  1
  C  12  1  0.00206900  0.14526500  0.13556700  1
  C  13  1  0.00104300  0.11876000  0.12340500  1
  C  15  1  0.00079800  0.05644400  0.10787500  1
  C  16  1  0.99926700  0.10498200  0.10178200  1
  C  17  1  0.99981900  0.14300400  0.11125300  1
  C  18  1  0.00121400  0.00769400  0.10127800  1
  C  19  1  0.00141600  0.95858200  0.10764300  1
  C  21  1  0.00061900  0.89705400  0.12315800  1
  C  22  1  0.00163400  0.87228100  0.11107900  1
  C  23  1  0.00268000  0.91005700  0.10155700  1
  C  24  1  0.99924700  0.87202800  0.13548500  1
  C  25  1  0.99852400  0.81632300  0.13563600  1
  C  26  1  0.04418300  0.78756100  0.13303100  1
  C  27  1  0.04361400  0.73280500  0.13326200  1
  C  28  1  0.99744300  0.70516600  0.13617600  1
  C  29  1  0.95208700  0.73402100  0.13895200  1
  C  30  1  0.95239000  0.78878900  0.13855400  1
  C  31  1  0.00152100  0.00790400  0.08734300  1
  C  32  1  0.04721800  0.02066200  0.08040600  1
  C  33  1  0.04792400  0.01982400  0.06671600  1
  C  34  1  0.00301000  0.00603400  0.05953600  1
  C  35  1  0.95759900  0.99275500  0.06649700  1
  C  36  1  0.95663100  0.99412800  0.08019100  1
  C  37  1  0.00299800  0.20089000  0.13542600  1
  C  38  1  0.95682100  0.22970500  0.13356000  1
  C  39  1  0.95781300  0.28447500  0.13342500  1
  C  40  1  0.00494600  0.31200300  0.13524100  1
  C  41  1  0.05097400  0.28299600  0.13709100  1
  C  42  1  0.05013600  0.22822700  0.13718300  1
  C  43  1  0.99809300  0.00958000  0.18375200  1
  C  44  1  0.95326400  0.02534300  0.19067600  1
  C  45  1  0.04247000  0.99462500  0.19095100  1
  C  46  1  0.04190000  0.99511500  0.20464600  1
  C  47  1  0.99706200  0.01094300  0.21159000  1
  C  48  1  0.95302700  0.02650200  0.20437500  1
  C  79  1  0.10787900  0.99609100  0.66926300  1
  C  80  1  0.14586100  0.99662700  0.65978900  1
  C  81  1  0.12164100  0.99807700  0.64763400  1
  C  83  1  0.05932900  0.99821300  0.66319200  1
  C  84  1  0.01063800  0.99887800  0.66982700  1
  C  85  1  0.96152900  0.00035900  0.66346400  1
  C  87  1  0.90003600  0.00171900  0.64794900  1
  C  88  1  0.87526200  0.00337900  0.66002000  1
  C  89  1  0.91304300  0.00293600  0.66954600  1
  C  90  1  0.87498200  0.00140800  0.63562600  1
  C  91  1  0.90142700  0.99994300  0.62345800  1
  C  93  1  0.96367100  0.99889300  0.60791000  1
  C  94  1  0.91509500  0.99728000  0.60183800  1
  C  95  1  0.87712400  0.99837600  0.61131700  1
  C  96  1  0.01238900  0.99883900  0.60129900  1
  C  97  1  0.06153400  0.99938300  0.60764800  1
  C  99  1  0.12313500  0.99938700  0.62314400  1
  C  100  1  0.14785100  0.99990400  0.61105600  1
  C  101  1  0.11002500  0.00038600  0.60154400  1
  C  102  1  0.14821900  0.99857900  0.63546800  1
  C  103  1  0.20392400  0.99796400  0.63560400  1
  C  104  1  0.23258300  0.04361400  0.63292100  1
  C  105  1  0.28734000  0.04317600  0.63316000  1
  C  106  1  0.31508000  0.99713200  0.63613800  1
  C  107  1  0.28632300  0.95177200  0.63897300  1
  C  108  1  0.23155500  0.95195000  0.63858100  1
  C  109  1  0.01211900  0.99813900  0.58736600  1
  C  110  1  0.99935200  0.04330400  0.58021500  1
  C  111  1  0.00000900  0.04292200  0.56652200  1
  C  112  1  0.01366800  0.99742800  0.55955700  1
  C  113  1  0.02695900  0.95256100  0.56673100  1
  C  114  1  0.02575700  0.95267700  0.58042600  1
  C  115  1  0.81935900  0.00243500  0.63550000  1
  C  116  1  0.79045700  0.95629600  0.63365600  1
  C  117  1  0.73568900  0.95738900  0.63351500  1
  C  118  1  0.70824500  0.00458400  0.63530900  1
  C  119  1  0.73733700  0.05057200  0.63713800  1
  C  120  1  0.79210500  0.04963400  0.63723200  1
  C  121  1  0.01088100  0.99808100  0.68377600  1
  C  122  1  0.99507200  0.95329200  0.69071000  1
  C  123  1  0.02591300  0.04245600  0.69096600  1
  C  124  1  0.02546600  0.04191900  0.70466100  1
  C  125  1  0.00962200  0.99710900  0.71161400  1
  C  126  1  0.99393300  0.95309300  0.70441000  1
  C  157  1  0.01825600  0.91191500  0.85168600  1
  C  158  1  0.01801500  0.87399100  0.86117800  1
  C  159  1  0.01991300  0.89827100  0.87332300  1
  C  161  1  0.01966100  0.96047100  0.85776400  1
  C  162  1  0.02036100  0.00911300  0.85113200  1
  C  163  1  0.02031300  0.05834200  0.85741800  1
  C  165  1  0.01908300  0.12004800  0.87286100  1
  C  166  1  0.01994400  0.14467300  0.86076200  1
  C  167  1  0.02047900  0.10674000  0.85126800  1
  C  168  1  0.01830800  0.14517000  0.88517200  1
  C  169  1  0.01821500  0.11878600  0.89735600  1
  C  171  1  0.01848700  0.05663000  0.91292100  1
  C  172  1  0.01786900  0.10522700  0.91899400  1
  C  173  1  0.01736900  0.14314600  0.90949600  1
  C  174  1  0.01918600  0.00794700  0.91953900  1
  C  175  1  0.01995200  0.95872200  0.91324600  1
  C  177  1  0.02066000  0.89694500  0.89780800  1
  C  178  1  0.02185400  0.87239700  0.90991500  1
  C  179  1  0.02098600  0.91034100  0.91940100  1
  C  180  1  0.02072300  0.87176700  0.88549600  1
  C  181  1  0.02144400  0.81607800  0.88536400  1
  C  182  1  0.97632000  0.78728900  0.88847400  1
  C  183  1  0.97686400  0.73254000  0.88820000  1
  C  184  1  0.02247100  0.70494800  0.88475100  1
  C  185  1  0.06727100  0.73384200  0.88148400  1
  C  186  1  0.06699300  0.78860300  0.88189200  1
  C  187  1  0.01918100  0.00837800  0.93345300  1
  C  188  1  0.97268100  0.01690800  0.94045300  1
  C  189  1  0.97266600  0.01734500  0.95414900  1
  C  190  1  0.01908300  0.00890700  0.96125000  1
  C  191  1  0.06545900  0.00052200  0.95420500  1
  C  192  1  0.06562400  0.00024600  0.94050900  1
  C  193  1  0.01744900  0.20078900  0.88526900  1
  C  194  1  0.06333300  0.22956100  0.88757600  1
  C  195  1  0.06237000  0.28432900  0.88769700  1
  C  196  1  0.01556100  0.31187800  0.88543700  1
  C  197  1  0.96980900  0.28292000  0.88316600  1
  C  198  1  0.97062500  0.22815700  0.88307400  1
  C  199  1  0.02039500  0.00861600  0.83721600  1
  C  200  1  0.06707800  0.01495100  0.83014500  1
  C  201  1  0.97365700  0.00148600  0.83022900  1
  C  202  1  0.97363400  0.00073200  0.81653700  1
  C  203  1  0.02026100  0.00740700  0.80938900  1
  C  204  1  0.06688700  0.01434500  0.81644000  1
  C  235  1  0.91252600  0.00212000  0.35172600  1
  C  236  1  0.87469100  0.00227900  0.36124000  1
  C  237  1  0.89908300  0.00021900  0.37337000  1
  C  239  1  0.96113600  0.00062300  0.35777500  1
  C  240  1  0.00972000  0.99993100  0.35111500  1
  C  241  1  0.05900700  0.99988100  0.35737100  1
  C  243  1  0.12086200  0.00093400  0.37277700  1
  C  244  1  0.14537100  0.00011800  0.36066300  1
  C  245  1  0.10734600  0.99969400  0.35119100  1
  C  246  1  0.14610200  0.00166100  0.38507300  1
  C  247  1  0.11982800  0.00174700  0.39727200  1
  C  249  1  0.05781800  0.00169600  0.41287000  1
  C  250  1  0.10646000  0.00261400  0.41891600  1
  C  251  1  0.14429200  0.00294400  0.40939700  1
  C  252  1  0.00920200  0.00120600  0.41951600  1
  C  253  1  0.95991600  0.00013700  0.41325600  1
  C  255  1  0.89799100  0.99922800  0.39785400  1
  C  256  1  0.87355600  0.99803400  0.40997500  1
  C  257  1  0.91158900  0.99906100  0.41943900  1
  C  258  1  0.87269600  0.99925100  0.38555600  1
  C  259  1  0.81700700  0.99861700  0.38545500  1
  C  260  1  0.78831500  0.04380200  0.38856900  1
  C  261  1  0.73356600  0.04337800  0.38829500  1
  C  262  1  0.70587300  0.99783200  0.38484200  1
  C  263  1  0.73467800  0.95298100  0.38156800  1
  C  264  1  0.78943800  0.95313200  0.38197900  1
  C  265  1  0.00978600  0.00215500  0.43342800  1
  C  266  1  0.01797100  0.04920600  0.44022300  1
  C  267  1  0.01807400  0.05019300  0.45391600  1
  C  268  1  0.00996800  0.00440600  0.46121700  1
  C  269  1  0.00163800  0.95735000  0.45437600  1
  C  270  1  0.00170400  0.95621100  0.44068300  1
  C  271  1  0.20172000  0.00263700  0.38514400  1
  C  272  1  0.23058400  0.95688000  0.38753500  1
  C  273  1  0.28534600  0.95797200  0.38766900  1
  C  274  1  0.31280600  0.00477500  0.38533800  1
  C  275  1  0.28375800  0.05040100  0.38297800  1
  C  276  1  0.22899600  0.04946000  0.38287600  1
  C  277  1  0.00909000  0.99996200  0.33719900  1
  C  278  1  0.01533600  0.95330700  0.33011100  1
  C  279  1  0.00192500  0.04673600  0.33022900  1
  C  280  1  0.00106600  0.04682300  0.31653700  1
  C  281  1  0.00765100  0.00022300  0.30937300  1
  C  282  1  0.01461900  0.95356000  0.31640800  1
  C  313  1  0.01233600  0.00134600  0.24659400  1
  C  314  1  0.98026600  0.96958300  0.25459900  1
  C  315  1  0.97841500  0.97902500  0.26829600  1
  C  316  1  0.00798600  0.01947400  0.27409400  1
  C  317  1  0.03889200  0.05078900  0.26585100  1
  C  318  1  0.04148000  0.04162200  0.25240100  1
  C  320  1  0.91785100  0.90919800  0.27078400  1
  C  321  1  0.91939800  0.89979100  0.25736500  1
  C  328  1  0.02058200  0.99104100  0.23353700  1
  C  330  1  0.00620500  0.03173100  0.28730200  1
  C  332  1  0.01949500  0.01235500  0.74661000  1
  C  333  1  0.05125100  0.98032800  0.75462800  1
  C  334  1  0.04171400  0.97846200  0.76832100  1
  C  335  1  0.00115200  0.00794700  0.77410200  1
  C  336  1  0.96984000  0.03879000  0.76584200  1
  C  337  1  0.97909200  0.04138800  0.75239600  1
  C  339  1  0.11161000  0.91799900  0.77084000  1
  C  340  1  0.12111100  0.91955800  0.75742500  1
  C  347  1  0.02981000  0.02047400  0.73354800  1
  C  349  1  0.98884900  0.00619800  0.78730800  1
  C  351  1  0.02136900  0.01632600  0.02444400  1
  C  352  1  0.06357100  0.01049400  0.01556700  1
  C  353  1  0.05346400  0.00839800  0.00188700  1
  C  354  1  0.00201500  0.01138200  0.99683300  1
  C  355  1  0.96102300  0.01577200  0.00595900  1
  C  356  1  0.97034500  0.01843400  0.01939900  1
  C  358  1  0.14489000  0.00061200  0.99778500  1
  C  359  1  0.15494400  0.00175800  0.01116300  1
  C  366  1  0.02913000  0.02478900  0.03768800  1
  C  368  1  0.98910100  0.01074200  0.98354800  1
  C  370  1  0.00294800  0.01276200  0.52438300  1
  C  371  1  0.00879800  0.05406700  0.51524600  1
  C  372  1  0.01062000  0.04263400  0.50163100  1
  C  373  1  0.00733300  0.99072200  0.49689200  1
  C  374  1  0.00289700  0.95064800  0.50626900  1
  C  375  1  0.00048700  0.96128400  0.51964500  1
  C  377  1  0.01869200  0.13360600  0.49697300  1
  C  378  1  0.01781400  0.14495300  0.51028200  1
  C  385  1  0.99473400  0.02181100  0.53758500  1
  C  387  1  0.00761300  0.97652600  0.48368400  1
  C  389  1  0.01281600  0.56456700  0.13350600  1
  C  390  1  0.05416400  0.52809600  0.13500600  1
  C  391  1  0.04278500  0.47363500  0.13548200  1
  C  392  1  0.99090100  0.45461800  0.13464800  1
  C  393  1  0.95078000  0.49205700  0.13350300  1
  C  394  1  0.96135800  0.54556600  0.13288300  1
  C  396  1  0.13376000  0.45511200  0.13756300  1
  C  397  1  0.14505400  0.50835600  0.13732100  1
  C  404  1  0.02182400  0.61739100  0.13148100  1
  C  406  1  0.97676300  0.40178200  0.13479800  1
  C  408  1  0.45568000  0.01268200  0.63350600  1
  C  409  1  0.49217000  0.05401500  0.63500700  1
  C  410  1  0.54662300  0.04260900  0.63549800  1
  C  411  1  0.56561600  0.99071100  0.63468000  1
  C  412  1  0.52816200  0.95060900  0.63352800  1
  C  413  1  0.47466100  0.96121400  0.63288800  1
  C  415  1  0.56518900  0.13357900  0.63756600  1
  C  416  1  0.51195200  0.14490100  0.63731000  1
  C  423  1  0.40285900  0.02168800  0.63147100  1
  C  425  1  0.61843700  0.97653400  0.63485100  1
  C  427  1  0.00757000  0.56432200  0.88738400  1
  C  428  1  0.96624800  0.52785500  0.88585600  1
  C  429  1  0.97766100  0.47341400  0.88535900  1
  C  430  1  0.02956600  0.45443600  0.88619800  1
  C  431  1  0.06966300  0.49189000  0.88736300  1
  C  432  1  0.05904700  0.54538700  0.88800100  1
  C  434  1  0.88669100  0.45487100  0.88326000  1
  C  435  1  0.87537500  0.50811100  0.88352500  1
  C  442  1  0.99849700  0.61705700  0.88948300  1
  C  444  1  0.04372200  0.40161500  0.88609300  1
  C  446  1  0.56525100  0.01297300  0.38740300  1
  C  447  1  0.52878000  0.05428700  0.38586500  1
  C  448  1  0.47433900  0.04285900  0.38535300  1
  C  449  1  0.45537700  0.99095200  0.38618800  1
  C  450  1  0.49283400  0.95086200  0.38735500  1
  C  451  1  0.54632000  0.96149000  0.38801000  1
  C  453  1  0.45578100  0.13382700  0.38326000  1
  C  454  1  0.50901700  0.14515600  0.38353200  1
  C  461  1  0.61798200  0.02204800  0.38951400  1
  C  463  1  0.40256400  0.97677500  0.38607800  1
  C  465  1  0.30703100  0.22352000  0.20813800  1
  C  466  1  0.30765700  0.18549100  0.19867500  1
  C  467  1  0.30939800  0.20965000  0.18651500  1
  C  469  1  0.30932100  0.27203800  0.20205500  1
  C  470  1  0.30993900  0.32075700  0.20867700  1
  C  471  1  0.31149000  0.36983900  0.20230200  1
  C  473  1  0.31308300  0.43125700  0.18677100  1
  C  474  1  0.31449100  0.45609100  0.19883700  1
  C  475  1  0.31390000  0.41835600  0.20837300  1
  C  476  1  0.31305200  0.45624800  0.17444000  1
  C  477  1  0.31202600  0.42974300  0.16227800  1
  C  479  1  0.31178100  0.36742700  0.14674800  1
  C  480  1  0.31025000  0.41596500  0.14065500  1
  C  481  1  0.31080200  0.45398700  0.15012600  1
  C  482  1  0.31219700  0.31867700  0.14015100  1
  C  483  1  0.31239900  0.26956500  0.14651600  1
  C  485  1  0.31160200  0.20803700  0.16203100  1
  C  486  1  0.31261700  0.18326400  0.14995200  1
  C  487  1  0.31366300  0.22104000  0.14043000  1
  C  488  1  0.31023000  0.18301100  0.17435800  1
  C  489  1  0.30950700  0.12730600  0.17450900  1
  C  490  1  0.35516600  0.09854370  0.17190400  1
  C  491  1  0.35459700  0.04378770  0.17213500  1
  C  492  1  0.30842600  0.01614870  0.17504900  1
  C  493  1  0.26307000  0.04500370  0.17782500  1
  C  494  1  0.26337300  0.09977170  0.17742700  1
  C  495  1  0.31250400  0.31888700  0.12621600  1
  C  496  1  0.35820100  0.33164500  0.11927900  1
  C  497  1  0.35890700  0.33080700  0.10558900  1
  C  498  1  0.31399300  0.31701700  0.09840910  1
  C  499  1  0.26858200  0.30373800  0.10537000  1
  C  500  1  0.26761400  0.30511100  0.11906400  1
  C  501  1  0.31398100  0.51187300  0.17429900  1
  C  502  1  0.26780400  0.54068800  0.17243300  1
  C  503  1  0.26879600  0.59545800  0.17229800  1
  C  504  1  0.31592900  0.62298600  0.17411400  1
  C  505  1  0.36195700  0.59397900  0.17596400  1
  C  506  1  0.36111900  0.53921000  0.17605600  1
  C  507  1  0.30907600  0.32056300  0.22262500  1
  C  508  1  0.26424700  0.33632600  0.22954900  1
  C  509  1  0.35345300  0.30560800  0.22982400  1
  C  510  1  0.35288300  0.30609800  0.24351900  1
  C  511  1  0.30804500  0.32192600  0.25046300  1
  C  512  1  0.26401000  0.33748500  0.24324800  1
  C  543  1  0.41886200  0.30707400  0.70813600  1
  C  544  1  0.45684400  0.30761000  0.69866200  1
  C  545  1  0.43262400  0.30906000  0.68650700  1
  C  547  1  0.37031200  0.30919600  0.70206500  1
  C  548  1  0.32162100  0.30986100  0.70870000  1
  C  549  1  0.27251200  0.31134200  0.70233700  1
  C  551  1  0.21101900  0.31270200  0.68682200  1
  C  552  1  0.18624500  0.31436200  0.69889300  1
  C  553  1  0.22402600  0.31391900  0.70841900  1
  C  554  1  0.18596500  0.31239100  0.67449900  1
  C  555  1  0.21241000  0.31092600  0.66233100  1
  C  557  1  0.27465400  0.30987600  0.64678300  1
  C  558  1  0.22607800  0.30826300  0.64071100  1
  C  559  1  0.18810700  0.30935900  0.65019000  1
  C  560  1  0.32337200  0.30982200  0.64017200  1
  C  561  1  0.37251700  0.31036600  0.64652100  1
  C  563  1  0.43411800  0.31037000  0.66201700  1
  C  564  1  0.45883400  0.31088700  0.64992900  1
  C  565  1  0.42100800  0.31136900  0.64041700  1
  C  566  1  0.45920200  0.30956200  0.67434100  1
  C  567  1  0.51490700  0.30894700  0.67447700  1
  C  568  1  0.54356600  0.35459700  0.67179400  1
  C  569  1  0.59832300  0.35415900  0.67203300  1
  C  570  1  0.62606300  0.30811500  0.67501100  1
  C  571  1  0.59730600  0.26275500  0.67784600  1
  C  572  1  0.54253800  0.26293300  0.67745400  1
  C  573  1  0.32310200  0.30912200  0.62623900  1
  C  574  1  0.31033500  0.35428700  0.61908800  1
  C  575  1  0.31099200  0.35390500  0.60539500  1
  C  576  1  0.32465100  0.30841100  0.59843000  1
  C  577  1  0.33794200  0.26354400  0.60560400  1
  C  578  1  0.33674000  0.26366000  0.61929900  1
  C  579  1  0.13034200  0.31341800  0.67437300  1
  C  580  1  0.10144000  0.26727900  0.67252900  1
  C  581  1  0.04667170  0.26837200  0.67238800  1
  C  582  1  0.01922770  0.31556700  0.67418200  1
  C  583  1  0.04831970  0.36155500  0.67601100  1
  C  584  1  0.10308800  0.36061700  0.67610500  1
  C  585  1  0.32186400  0.30906400  0.72264900  1
  C  586  1  0.30605500  0.26427500  0.72958300  1
  C  587  1  0.33689600  0.35343900  0.72983900  1
  C  588  1  0.33644900  0.35290200  0.74353400  1
  C  589  1  0.32060500  0.30809200  0.75048700  1
  C  590  1  0.30491600  0.26407600  0.74328300  1
  C  621  1  0.32923900  0.22289800  0.89055900  1
  C  622  1  0.32899800  0.18497400  0.90005100  1
  C  623  1  0.33089600  0.20925400  0.91219600  1
  C  625  1  0.33064400  0.27145400  0.89663700  1
  C  626  1  0.33134400  0.32009600  0.89000500  1
  C  627  1  0.33129600  0.36932500  0.89629100  1
  C  629  1  0.33006600  0.43103100  0.91173400  1
  C  630  1  0.33092700  0.45565600  0.89963500  1
  C  631  1  0.33146200  0.41772300  0.89014100  1
  C  632  1  0.32929100  0.45615300  0.92404500  1
  C  633  1  0.32919800  0.42976900  0.93622900  1
  C  635  1  0.32947000  0.36761300  0.95179400  1
  C  636  1  0.32885200  0.41621000  0.95786700  1
  C  637  1  0.32835200  0.45412900  0.94836900  1
  C  638  1  0.33016900  0.31893000  0.95841200  1
  C  639  1  0.33093500  0.26970500  0.95211900  1
  C  641  1  0.33164300  0.20792800  0.93668100  1
  C  642  1  0.33283700  0.18338000  0.94878800  1
  C  643  1  0.33196900  0.22132400  0.95827400  1
  C  644  1  0.33170600  0.18275000  0.92436900  1
  C  645  1  0.33242700  0.12706100  0.92423700  1
  C  646  1  0.28730300  0.09827170  0.92734700  1
  C  647  1  0.28784700  0.04352270  0.92707300  1
  C  648  1  0.33345400  0.01593070  0.92362400  1
  C  649  1  0.37825400  0.04482470  0.92035700  1
  C  650  1  0.37797600  0.09958570  0.92076500  1
  C  651  1  0.33016400  0.31936100  0.97232600  1
  C  652  1  0.28366400  0.32789100  0.97932600  1
  C  653  1  0.28364900  0.32832800  0.99302200  1
  C  654  1  0.33006600  0.31989000  0.00012311  1
  C  655  1  0.37644200  0.31150500  0.99307800  1
  C  656  1  0.37660700  0.31122900  0.97938200  1
  C  657  1  0.32843200  0.51177200  0.92414200  1
  C  658  1  0.37431600  0.54054400  0.92644900  1
  C  659  1  0.37335300  0.59531200  0.92657000  1
  C  660  1  0.32654400  0.62286100  0.92431000  1
  C  661  1  0.28079200  0.59390300  0.92203900  1
  C  662  1  0.28160800  0.53914000  0.92194700  1
  C  663  1  0.33137800  0.31959900  0.87608900  1
  C  664  1  0.37806100  0.32593400  0.86901800  1
  C  665  1  0.28464000  0.31246900  0.86910200  1
  C  666  1  0.28461700  0.31171500  0.85541000  1
  C  667  1  0.33124400  0.31839000  0.84826200  1
  C  668  1  0.37787000  0.32532800  0.85531300  1
  C  699  1  0.22350900  0.31310300  0.39059900  1
  C  700  1  0.18567400  0.31326200  0.40011300  1
  C  701  1  0.21006600  0.31120200  0.41224300  1
  C  703  1  0.27211900  0.31160600  0.39664800  1
  C  704  1  0.32070300  0.31091400  0.38998800  1
  C  705  1  0.36999000  0.31086400  0.39624400  1
  C  707  1  0.43184500  0.31191700  0.41165000  1
  C  708  1  0.45635400  0.31110100  0.39953600  1
  C  709  1  0.41832900  0.31067700  0.39006400  1
  C  710  1  0.45708500  0.31264400  0.42394600  1
  C  711  1  0.43081100  0.31273000  0.43614500  1
  C  713  1  0.36880100  0.31267900  0.45174300  1
  C  714  1  0.41744300  0.31359700  0.45778900  1
  C  715  1  0.45527500  0.31392700  0.44827000  1
  C  716  1  0.32018500  0.31218900  0.45838900  1
  C  717  1  0.27089900  0.31112000  0.45212900  1
  C  719  1  0.20897400  0.31021100  0.43672700  1
  C  720  1  0.18453900  0.30901700  0.44884800  1
  C  721  1  0.22257200  0.31004400  0.45831200  1
  C  722  1  0.18367900  0.31023400  0.42442900  1
  C  723  1  0.12799000  0.30960000  0.42432800  1
  C  724  1  0.09929770  0.35478500  0.42744200  1
  C  725  1  0.04454870  0.35436100  0.42716800  1
  C  726  1  0.01685570  0.30881500  0.42371500  1
  C  727  1  0.04566070  0.26396400  0.42044100  1
  C  728  1  0.10042100  0.26411500  0.42085200  1
  C  729  1  0.32076900  0.31313800  0.47230100  1
  C  730  1  0.32895400  0.36018900  0.47909600  1
  C  731  1  0.32905700  0.36117600  0.49278900  1
  C  732  1  0.32095100  0.31538900  0.50009000  1
  C  733  1  0.31262100  0.26833300  0.49324900  1
  C  734  1  0.31268700  0.26719400  0.47955600  1
  C  735  1  0.51270300  0.31362000  0.42401700  1
  C  736  1  0.54156700  0.26786300  0.42640800  1
  C  737  1  0.59632900  0.26895500  0.42654200  1
  C  738  1  0.62378900  0.31575800  0.42421100  1
  C  739  1  0.59474100  0.36138400  0.42185100  1
  C  740  1  0.53997900  0.36044300  0.42174900  1
  C  741  1  0.32007300  0.31094500  0.37607200  1
  C  742  1  0.32631900  0.26429000  0.36898400  1
  C  743  1  0.31290800  0.35771900  0.36910200  1
  C  744  1  0.31204900  0.35780600  0.35541000  1
  C  745  1  0.31863400  0.31120600  0.34824600  1
  C  746  1  0.32560200  0.26454300  0.35528100  1
  C  777  1  0.32331900  0.31232900  0.28546700  1
  C  778  1  0.29124900  0.28056600  0.29347200  1
  C  779  1  0.28939800  0.29000800  0.30716900  1
  C  780  1  0.31896900  0.33045700  0.31296700  1
  C  781  1  0.34987500  0.36177200  0.30472400  1
  C  782  1  0.35246300  0.35260500  0.29127400  1
  C  784  1  0.22883400  0.22018100  0.30965700  1
  C  785  1  0.23038100  0.21077400  0.29623800  1
  C  792  1  0.33156500  0.30202400  0.27241000  1
  C  794  1  0.31718800  0.34271400  0.32617500  1
  C  796  1  0.33047800  0.32333800  0.78548300  1
  C  797  1  0.36223400  0.29131100  0.79350100  1
  C  798  1  0.35269700  0.28944500  0.80719400  1
  C  799  1  0.31213500  0.31893000  0.81297500  1
  C  800  1  0.28082300  0.34977300  0.80471500  1
  C  801  1  0.29007500  0.35237100  0.79126900  1
  C  803  1  0.42259300  0.22898200  0.80971300  1
  C  804  1  0.43209400  0.23054100  0.79629800  1
  C  811  1  0.34079300  0.33145700  0.77242100  1
  C  813  1  0.29983200  0.31718100  0.82618100  1
  C  815  1  0.33235200  0.32730900  0.06331710  1
  C  816  1  0.37455400  0.32147700  0.05444010  1
  C  817  1  0.36444700  0.31938100  0.04076010  1
  C  818  1  0.31299800  0.32236500  0.03570610  1
  C  819  1  0.27200600  0.32675500  0.04483210  1
  C  820  1  0.28132800  0.32941700  0.05827210  1
  C  822  1  0.45587300  0.31159500  0.03665810  1
  C  823  1  0.46592700  0.31274100  0.05003610  1
  C  830  1  0.34011300  0.33577200  0.07656110  1
  C  832  1  0.30008400  0.32172500  0.02242110  1
  C  834  1  0.31393100  0.32374500  0.56325600  1
  C  835  1  0.31978100  0.36505000  0.55411900  1
  C  836  1  0.32160300  0.35361700  0.54050400  1
  C  837  1  0.31831600  0.30170500  0.53576500  1
  C  838  1  0.31388000  0.26163100  0.54514200  1
  C  839  1  0.31147000  0.27226700  0.55851800  1
  C  841  1  0.32967500  0.44458900  0.53584600  1
  C  842  1  0.32879700  0.45593600  0.54915500  1
  C  849  1  0.30571700  0.33279400  0.57645800  1
  C  851  1  0.31859600  0.28750900  0.52255700  1
  C  853  1  0.32379900  0.87555000  0.17237900  1
  C  854  1  0.36514700  0.83907900  0.17387900  1
  C  855  1  0.35376800  0.78461800  0.17435500  1
  C  856  1  0.30188400  0.76560100  0.17352100  1
  C  857  1  0.26176300  0.80304000  0.17237600  1
  C  858  1  0.27234100  0.85654900  0.17175600  1
  C  860  1  0.44474300  0.76609500  0.17643600  1
  C  861  1  0.45603700  0.81933900  0.17619400  1
  C  868  1  0.33280700  0.92837400  0.17035400  1
  C  870  1  0.28774600  0.71276500  0.17367100  1
  C  872  1  0.76666300  0.32366500  0.67237900  1
  C  873  1  0.80315300  0.36499800  0.67388000  1
  C  874  1  0.85760600  0.35359200  0.67437100  1
  C  875  1  0.87659900  0.30169400  0.67355300  1
  C  876  1  0.83914500  0.26159200  0.67240100  1
  C  877  1  0.78564400  0.27219700  0.67176100  1
  C  879  1  0.87617200  0.44456200  0.67643900  1
  C  880  1  0.82293500  0.45588400  0.67618300  1
  C  887  1  0.71384200  0.33267100  0.67034400  1
  C  889  1  0.92942000  0.28751700  0.67372400  1
  C  891  1  0.31855300  0.87530500  0.92625700  1
  C  892  1  0.27723100  0.83883800  0.92472900  1
  C  893  1  0.28864400  0.78439700  0.92423200  1
  C  894  1  0.34054900  0.76541900  0.92507100  1
  C  895  1  0.38064600  0.80287300  0.92623600  1
  C  896  1  0.37003000  0.85637000  0.92687400  1
  C  898  1  0.19767400  0.76585400  0.92213300  1
  C  899  1  0.18635800  0.81909400  0.92239800  1
  C  906  1  0.30948000  0.92804000  0.92835600  1
  C  908  1  0.35470500  0.71259800  0.92496600  1
  C  910  1  0.87623400  0.32395600  0.42627600  1
  C  911  1  0.83976300  0.36527000  0.42473800  1
  C  912  1  0.78532200  0.35384200  0.42422600  1
  C  913  1  0.76636000  0.30193500  0.42506100  1
  C  914  1  0.80381700  0.26184500  0.42622800  1
  C  915  1  0.85730300  0.27247300  0.42688300  1
  C  917  1  0.76676400  0.44481000  0.42213300  1
  C  918  1  0.82000000  0.45613900  0.42240500  1
  C  925  1  0.92896500  0.33303100  0.42838700  1
  C  927  1  0.71354700  0.28775800  0.42495100  1
  C  929  1  0.61801300  0.53450200  0.24701100  1
  C  930  1  0.61863900  0.49647300  0.23754800  1
  C  931  1  0.62038000  0.52063200  0.22538800  1
  C  933  1  0.62030300  0.58302000  0.24092800  1
  C  934  1  0.62092100  0.63173900  0.24755000  1
  C  935  1  0.62247200  0.68082100  0.24117500  1
  C  937  1  0.62406500  0.74223900  0.22564400  1
  C  938  1  0.62547300  0.76707300  0.23771000  1
  C  939  1  0.62488200  0.72933800  0.24724600  1
  C  940  1  0.62403400  0.76723000  0.21331300  1
  C  941  1  0.62300800  0.74072500  0.20115100  1
  C  943  1  0.62276300  0.67840900  0.18562100  1
  C  944  1  0.62123200  0.72694700  0.17952800  1
  C  945  1  0.62178400  0.76496900  0.18899900  1
  C  946  1  0.62317900  0.62965900  0.17902400  1
  C  947  1  0.62338100  0.58054700  0.18538900  1
  C  949  1  0.62258400  0.51901900  0.20090400  1
  C  950  1  0.62359900  0.49424600  0.18882500  1
  C  951  1  0.62464500  0.53202200  0.17930300  1
  C  952  1  0.62121200  0.49399300  0.21323100  1
  C  953  1  0.62048900  0.43828800  0.21338200  1
  C  954  1  0.66614800  0.40952600  0.21077700  1
  C  955  1  0.66557900  0.35477000  0.21100800  1
  C  956  1  0.61940800  0.32713100  0.21392200  1
  C  957  1  0.57405200  0.35598600  0.21669800  1
  C  958  1  0.57435500  0.41075400  0.21630000  1
  C  959  1  0.62348600  0.62986900  0.16508900  1
  C  960  1  0.66918300  0.64262700  0.15815200  1
  C  961  1  0.66988900  0.64178900  0.14446200  1
  C  962  1  0.62497500  0.62799900  0.13728200  1
  C  963  1  0.57956400  0.61472000  0.14424300  1
  C  964  1  0.57859600  0.61609300  0.15793700  1
  C  965  1  0.62496300  0.82285500  0.21317200  1
  C  966  1  0.57878600  0.85167000  0.21130600  1
  C  967  1  0.57977800  0.90644000  0.21117100  1
  C  968  1  0.62691100  0.93396800  0.21298700  1
  C  969  1  0.67293900  0.90496100  0.21483700  1
  C  970  1  0.67210100  0.85019200  0.21492900  1
  C  971  1  0.62005800  0.63154500  0.26149800  1
  C  972  1  0.57522900  0.64730800  0.26842200  1
  C  973  1  0.66443500  0.61659000  0.26869700  1
  C  974  1  0.66386500  0.61708000  0.28239200  1
  C  975  1  0.61902700  0.63290800  0.28933600  1
  C  976  1  0.57499200  0.64846700  0.28212100  1
  C  1007  1  0.72984400  0.61805600  0.74700900  1
  C  1008  1  0.76782600  0.61859200  0.73753500  1
  C  1009  1  0.74360600  0.62004200  0.72538000  1
  C  1011  1  0.68129400  0.62017800  0.74093800  1
  C  1012  1  0.63260300  0.62084300  0.74757300  1
  C  1013  1  0.58349400  0.62232400  0.74121000  1
  C  1015  1  0.52200100  0.62368400  0.72569500  1
  C  1016  1  0.49722700  0.62534400  0.73776600  1
  C  1017  1  0.53500800  0.62490100  0.74729200  1
  C  1018  1  0.49694700  0.62337300  0.71337200  1
  C  1019  1  0.52339200  0.62190800  0.70120400  1
  C  1021  1  0.58563600  0.62085800  0.68565600  1
  C  1022  1  0.53706000  0.61924500  0.67958400  1
  C  1023  1  0.49908900  0.62034100  0.68906300  1
  C  1024  1  0.63435400  0.62080400  0.67904500  1
  C  1025  1  0.68349900  0.62134800  0.68539400  1
  C  1027  1  0.74510000  0.62135200  0.70089000  1
  C  1028  1  0.76981600  0.62186900  0.68880200  1
  C  1029  1  0.73199000  0.62235100  0.67929000  1
  C  1030  1  0.77018400  0.62054400  0.71321400  1
  C  1031  1  0.82588900  0.61992900  0.71335000  1
  C  1032  1  0.85454800  0.66557900  0.71066700  1
  C  1033  1  0.90930500  0.66514100  0.71090600  1
  C  1034  1  0.93704500  0.61909700  0.71388400  1
  C  1035  1  0.90828800  0.57373700  0.71671900  1
  C  1036  1  0.85352000  0.57391500  0.71632700  1
  C  1037  1  0.63408400  0.62010400  0.66511200  1
  C  1038  1  0.62131700  0.66526900  0.65796100  1
  C  1039  1  0.62197400  0.66488700  0.64426800  1
  C  1040  1  0.63563300  0.61939300  0.63730300  1
  C  1041  1  0.64892400  0.57452600  0.64447700  1
  C  1042  1  0.64772200  0.57464200  0.65817200  1
  C  1043  1  0.44132400  0.62440000  0.71324600  1
  C  1044  1  0.41242200  0.57826100  0.71140200  1
  C  1045  1  0.35765400  0.57935400  0.71126100  1
  C  1046  1  0.33021000  0.62654900  0.71305500  1
  C  1047  1  0.35930200  0.67253700  0.71488400  1
  C  1048  1  0.41407000  0.67159900  0.71497800  1
  C  1049  1  0.63284600  0.62004600  0.76152200  1
  C  1050  1  0.61703700  0.57525700  0.76845600  1
  C  1051  1  0.64787800  0.66442100  0.76871200  1
  C  1052  1  0.64743100  0.66388400  0.78240700  1
  C  1053  1  0.63158700  0.61907400  0.78936000  1
  C  1054  1  0.61589800  0.57505800  0.78215600  1
  C  1085  1  0.64022100  0.53388000  0.92943200  1
  C  1086  1  0.63998000  0.49595600  0.93892400  1
  C  1087  1  0.64187800  0.52023600  0.95106900  1
  C  1089  1  0.64162600  0.58243600  0.93551000  1
  C  1090  1  0.64232600  0.63107800  0.92887800  1
  C  1091  1  0.64227800  0.68030700  0.93516400  1
  C  1093  1  0.64104800  0.74201300  0.95060700  1
  C  1094  1  0.64190900  0.76663800  0.93850800  1
  C  1095  1  0.64244400  0.72870500  0.92901400  1
  C  1096  1  0.64027300  0.76713500  0.96291800  1
  C  1097  1  0.64018000  0.74075100  0.97510200  1
  C  1099  1  0.64045200  0.67859500  0.99066700  1
  C  1100  1  0.63983400  0.72719200  0.99674000  1
  C  1101  1  0.63933400  0.76511100  0.98724200  1
  C  1102  1  0.64115100  0.62991200  0.99728500  1
  C  1103  1  0.64191700  0.58068700  0.99099200  1
  C  1105  1  0.64262500  0.51891000  0.97555400  1
  C  1106  1  0.64381900  0.49436200  0.98766100  1
  C  1107  1  0.64295100  0.53230600  0.99714700  1
  C  1108  1  0.64268800  0.49373200  0.96324200  1
  C  1109  1  0.64340900  0.43804300  0.96311000  1
  C  1110  1  0.59828500  0.40925400  0.96622000  1
  C  1111  1  0.59882900  0.35450500  0.96594600  1
  C  1112  1  0.64443600  0.32691300  0.96249700  1
  C  1113  1  0.68923600  0.35580700  0.95923000  1
  C  1114  1  0.68895800  0.41056800  0.95963800  1
  C  1115  1  0.64114600  0.63034300  0.01119920  1
  C  1116  1  0.59464600  0.63887300  0.01819920  1
  C  1117  1  0.59463100  0.63931000  0.03189520  1
  C  1118  1  0.64104800  0.63087200  0.03899620  1
  C  1119  1  0.68742400  0.62248700  0.03195120  1
  C  1120  1  0.68758900  0.62221100  0.01825520  1
  C  1121  1  0.63941400  0.82275400  0.96301500  1
  C  1122  1  0.68529800  0.85152600  0.96532200  1
  C  1123  1  0.68433500  0.90629400  0.96544300  1
  C  1124  1  0.63752600  0.93384300  0.96318300  1
  C  1125  1  0.59177400  0.90488500  0.96091200  1
  C  1126  1  0.59259000  0.85012200  0.96082000  1
  C  1127  1  0.64236000  0.63058100  0.91496200  1
  C  1128  1  0.68904300  0.63691600  0.90789100  1
  C  1129  1  0.59562200  0.62345100  0.90797500  1
  C  1130  1  0.59559900  0.62269700  0.89428300  1
  C  1131  1  0.64222600  0.62937200  0.88713500  1
  C  1132  1  0.68885200  0.63631000  0.89418600  1
  C  1163  1  0.53449100  0.62408500  0.42947200  1
  C  1164  1  0.49665600  0.62424400  0.43898600  1
  C  1165  1  0.52104800  0.62218400  0.45111600  1
  C  1167  1  0.58310100  0.62258800  0.43552100  1
  C  1168  1  0.63168500  0.62189600  0.42886100  1
  C  1169  1  0.68097200  0.62184600  0.43511700  1
  C  1171  1  0.74282700  0.62289900  0.45052300  1
  C  1172  1  0.76733600  0.62208300  0.43840900  1
  C  1173  1  0.72931100  0.62165900  0.42893700  1
  C  1174  1  0.76806700  0.62362600  0.46281900  1
  C  1175  1  0.74179300  0.62371200  0.47501800  1
  C  1177  1  0.67978300  0.62366100  0.49061600  1
  C  1178  1  0.72842500  0.62457900  0.49666200  1
  C  1179  1  0.76625700  0.62490900  0.48714300  1
  C  1180  1  0.63116700  0.62317100  0.49726200  1
  C  1181  1  0.58188100  0.62210200  0.49100200  1
  C  1183  1  0.51995600  0.62119300  0.47560000  1
  C  1184  1  0.49552100  0.61999900  0.48772100  1
  C  1185  1  0.53355400  0.62102600  0.49718500  1
  C  1186  1  0.49466100  0.62121600  0.46330200  1
  C  1187  1  0.43897200  0.62058200  0.46320100  1
  C  1188  1  0.41028000  0.66576700  0.46631500  1
  C  1189  1  0.35553100  0.66534300  0.46604100  1
  C  1190  1  0.32783800  0.61979700  0.46258800  1
  C  1191  1  0.35664300  0.57494600  0.45931400  1
  C  1192  1  0.41140300  0.57509700  0.45972500  1
  C  1193  1  0.63175100  0.62412000  0.51117400  1
  C  1194  1  0.63993600  0.67117100  0.51796900  1
  C  1195  1  0.64003900  0.67215800  0.53166200  1
  C  1196  1  0.63193300  0.62637100  0.53896300  1
  C  1197  1  0.62360300  0.57931500  0.53212200  1
  C  1198  1  0.62366900  0.57817600  0.51842900  1
  C  1199  1  0.82368500  0.62460200  0.46289000  1
  C  1200  1  0.85254900  0.57884500  0.46528100  1
  C  1201  1  0.90731100  0.57993700  0.46541500  1
  C  1202  1  0.93477100  0.62674000  0.46308400  1
  C  1203  1  0.90572300  0.67236600  0.46072400  1
  C  1204  1  0.85096100  0.67142500  0.46062200  1
  C  1205  1  0.63105500  0.62192700  0.41494500  1
  C  1206  1  0.63730100  0.57527200  0.40785700  1
  C  1207  1  0.62389000  0.66870100  0.40797500  1
  C  1208  1  0.62303100  0.66878800  0.39428300  1
  C  1209  1  0.62961600  0.62218800  0.38711900  1
  C  1210  1  0.63658400  0.57552500  0.39415400  1
  C  1241  1  0.63430100  0.62331100  0.32434000  1
  C  1242  1  0.60223100  0.59154800  0.33234500  1
  C  1243  1  0.60038000  0.60099000  0.34604200  1
  C  1244  1  0.62995100  0.64143900  0.35184000  1
  C  1245  1  0.66085700  0.67275400  0.34359700  1
  C  1246  1  0.66344500  0.66358700  0.33014700  1
  C  1248  1  0.53981600  0.53116300  0.34853000  1
  C  1249  1  0.54136300  0.52175600  0.33511100  1
  C  1256  1  0.64254700  0.61300600  0.31128300  1
  C  1258  1  0.62817000  0.65369600  0.36504800  1
  C  1260  1  0.64146000  0.63432000  0.82435600  1
  C  1261  1  0.67321600  0.60229300  0.83237400  1
  C  1262  1  0.66367900  0.60042700  0.84606700  1
  C  1263  1  0.62311700  0.62991200  0.85184800  1
  C  1264  1  0.59180500  0.66075500  0.84358800  1
  C  1265  1  0.60105700  0.66335300  0.83014200  1
  C  1267  1  0.73357500  0.53996400  0.84858600  1
  C  1268  1  0.74307600  0.54152300  0.83517100  1
  C  1275  1  0.65177500  0.64243900  0.81129400  1
  C  1277  1  0.61081400  0.62816300  0.86505400  1
  C  1279  1  0.64333400  0.63829100  0.10219000  1
  C  1280  1  0.68553600  0.63245900  0.09331320  1
  C  1281  1  0.67542900  0.63036300  0.07963320  1
  C  1282  1  0.62398000  0.63334700  0.07457920  1
  C  1283  1  0.58298800  0.63773700  0.08370520  1
  C  1284  1  0.59231000  0.64039900  0.09714520  1
  C  1286  1  0.76685500  0.62257700  0.07553120  1
  C  1287  1  0.77690900  0.62372300  0.08890920  1
  C  1294  1  0.65109500  0.64675400  0.11543400  1
  C  1296  1  0.61106600  0.63270700  0.06129420  1
  C  1298  1  0.62491300  0.63472700  0.60212900  1
  C  1299  1  0.63076300  0.67603200  0.59299200  1
  C  1300  1  0.63258500  0.66459900  0.57937700  1
  C  1301  1  0.62929800  0.61268700  0.57463800  1
  C  1302  1  0.62486200  0.57261300  0.58401500  1
  C  1303  1  0.62245200  0.58324900  0.59739100  1
  C  1305  1  0.64065700  0.75557100  0.57471900  1
  C  1306  1  0.63977900  0.76691800  0.58802800  1
  C  1313  1  0.61669900  0.64377600  0.61533100  1
  C  1315  1  0.62957800  0.59849100  0.56143000  1
  C  1317  1  0.63478100  0.18653200  0.21125200  1
  C  1318  1  0.67612900  0.15006100  0.21275200  1
  C  1319  1  0.66475000  0.09560050  0.21322800  1
  C  1320  1  0.61286600  0.07658350  0.21239400  1
  C  1321  1  0.57274500  0.11402200  0.21124900  1
  C  1322  1  0.58332300  0.16753100  0.21062900  1
  C  1324  1  0.75572500  0.07707750  0.21530900  1
  C  1325  1  0.76701900  0.13032100  0.21506700  1
  C  1332  1  0.64378900  0.23935600  0.20922700  1
  C  1334  1  0.59872800  0.02374750  0.21254400  1
  C  1336  1  0.07764550  0.63464700  0.71125200  1
  C  1337  1  0.11413500  0.67598000  0.71275300  1
  C  1338  1  0.16858800  0.66457400  0.71324400  1
  C  1339  1  0.18758100  0.61267600  0.71242600  1
  C  1340  1  0.15012700  0.57257400  0.71127400  1
  C  1341  1  0.09662650  0.58317900  0.71063400  1
  C  1343  1  0.18715400  0.75554400  0.71531200  1
  C  1344  1  0.13391700  0.76686600  0.71505600  1
  C  1351  1  0.02482450  0.64365300  0.70921700  1
  C  1353  1  0.24040200  0.59849900  0.71259700  1
  C  1355  1  0.62953500  0.18628700  0.96513000  1
  C  1356  1  0.58821300  0.14982000  0.96360200  1
  C  1357  1  0.59962600  0.09537950  0.96310500  1
  C  1358  1  0.65153100  0.07640150  0.96394400  1
  C  1359  1  0.69162800  0.11385500  0.96510900  1
  C  1360  1  0.68101200  0.16735200  0.96574700  1
  C  1362  1  0.50865600  0.07683650  0.96100600  1
  C  1363  1  0.49734000  0.13007600  0.96127100  1
  C  1370  1  0.62046200  0.23902200  0.96722900  1
  C  1372  1  0.66568700  0.02358050  0.96383900  1
  C  1374  1  0.18721600  0.63493800  0.46514900  1
  C  1375  1  0.15074500  0.67625200  0.46361100  1
  C  1376  1  0.09630450  0.66482400  0.46309900  1
  C  1377  1  0.07734250  0.61291700  0.46393400  1
  C  1378  1  0.11479900  0.57282700  0.46510100  1
  C  1379  1  0.16828500  0.58345500  0.46575600  1
  C  1381  1  0.07774650  0.75579200  0.46100600  1
  C  1382  1  0.13098200  0.76712100  0.46127800  1
  C  1389  1  0.23994700  0.64401300  0.46726000  1
  C  1391  1  0.02452950  0.59874000  0.46382400  1
  N  4  1  0.99960500  0.95041500  0.15024800  1
  N  8  1  0.00023500  0.06873300  0.15050500  1
  N  14  1  0.00157200  0.06701600  0.12080700  1
  N  20  1  0.00037100  0.94864600  0.12056200  1
  N  75  1  0.00149800  0.00278800  0.04656600  1
  N  76  1  0.00933900  0.36377800  0.13513900  1
  N  77  1  0.99470700  0.01438600  0.22455700  1
  N  78  1  0.99465200  0.65335200  0.13694000  1
  N  82  1  0.06990600  0.99925900  0.65025500  1
  N  86  1  0.95158900  0.99985700  0.65054300  1
  N  92  1  0.95315900  0.00028100  0.62084300  1
  N  98  1  0.07153300  0.99898300  0.62056700  1
  N  153  1  0.01666700  0.99482000  0.54659500  1
  N  154  1  0.65647800  0.00907000  0.63519000  1
  N  155  1  0.00614700  0.99482700  0.72458000  1
  N  156  1  0.36689800  0.99444600  0.63690800  1
  N  160  1  0.02055300  0.94999900  0.87070000  1
  N  164  1  0.01938300  0.06843400  0.87032400  1
  N  170  1  0.01874400  0.06706700  0.89998500  1
  N  176  1  0.01961600  0.94856500  0.90033900  1
  N  231  1  0.02249000  0.00929200  0.97421900  1
  N  232  1  0.01117100  0.36363800  0.88553500  1
  N  233  1  0.02335700  0.00743400  0.79638500  1
  N  234  1  0.02525200  0.65314600  0.88395200  1
  N  238  1  0.95078800  0.99962000  0.37071500  1
  N  242  1  0.06922300  0.00072800  0.37027200  1
  N  248  1  0.06813700  0.00100000  0.39993000  1
  N  254  1  0.94963400  0.00033900  0.40035500  1
  N  309  1  0.00977000  0.00896900  0.47416200  1
  N  310  1  0.36456000  0.00927200  0.38544700  1
  N  311  1  0.00762800  0.99718700  0.29636800  1
  N  312  1  0.65407500  0.99516500  0.38402400  1
  N  319  1  0.94712600  0.94825000  0.27567800  1
  N  322  1  0.95034500  0.92990600  0.24973700  1
  N  338  1  0.07248600  0.94721600  0.77571600  1
  N  341  1  0.09100800  0.95046600  0.74978500  1
  N  357  1  0.09497900  0.00373300  0.99377200  1
  N  360  1  0.11442500  0.00657500  0.01956100  1
  N  376  1  0.01528900  0.08333600  0.49326400  1
  N  379  1  0.01299000  0.10527700  0.51892800  1
  N  395  1  0.08351400  0.44022000  0.13669400  1
  N  398  1  0.10535100  0.54288300  0.13607700  1
  N  414  1  0.58005700  0.08332000  0.63671200  1
  N  417  1  0.47740600  0.10521100  0.63606700  1
  N  433  1  0.93694200  0.43999500  0.88413100  1
  N  436  1  0.91506000  0.54264200  0.88479100  1
  N  452  1  0.44091200  0.08357000  0.38412200  1
  N  455  1  0.54355600  0.10547800  0.38480600  1
  N  468  1  0.31058800  0.26139800  0.18912100  1
  N  472  1  0.31121800  0.37971600  0.18937800  1
  N  478  1  0.31255500  0.37799900  0.15968000  1
  N  484  1  0.31135400  0.25962900  0.15943500  1
  N  539  1  0.31248100  0.31377100  0.08543910  1
  N  540  1  0.32032200  0.67476100  0.17401200  1
  N  541  1  0.30569000  0.32536900  0.26343000  1
  N  542  1  0.30563500  0.96433500  0.17581300  1
  N  546  1  0.38088900  0.31024200  0.68912800  1
  N  550  1  0.26257200  0.31084000  0.68941600  1
  N  556  1  0.26414200  0.31126400  0.65971600  1
  N  562  1  0.38251600  0.30996600  0.65944000  1
  N  617  1  0.32765000  0.30580300  0.58546800  1
  N  618  1  0.96746100  0.32005300  0.67406300  1
  N  619  1  0.31713000  0.30581000  0.76345300  1
  N  620  1  0.67788100  0.30542900  0.67578100  1
  N  624  1  0.33153600  0.26098200  0.90957300  1
  N  628  1  0.33036600  0.37941700  0.90919700  1
  N  634  1  0.32972700  0.37805000  0.93885800  1
  N  640  1  0.33059900  0.25954800  0.93921200  1
  N  695  1  0.33347300  0.32027500  0.01309210  1
  N  696  1  0.32215400  0.67462100  0.92440800  1
  N  697  1  0.33434000  0.31841700  0.83525800  1
  N  698  1  0.33623500  0.96412900  0.92282500  1
  N  702  1  0.26177100  0.31060300  0.40958800  1
  N  706  1  0.38020600  0.31171100  0.40914500  1
  N  712  1  0.37912000  0.31198300  0.43880300  1
  N  718  1  0.26061700  0.31132200  0.43922800  1
  N  773  1  0.32075300  0.31995200  0.51303500  1
  N  774  1  0.67554300  0.32025500  0.42432000  1
  N  775  1  0.31861100  0.30817000  0.33524100  1
  N  776  1  0.96505800  0.30614800  0.42289700  1
  N  783  1  0.25810900  0.25923300  0.31455100  1
  N  786  1  0.26132800  0.24088900  0.28861000  1
  N  802  1  0.38346900  0.25819900  0.81458900  1
  N  805  1  0.40199100  0.26144900  0.78865800  1
  N  821  1  0.40596200  0.31471600  0.03264510  1
  N  824  1  0.42540800  0.31755800  0.05843410  1
  N  840  1  0.32627200  0.39431900  0.53213700  1
  N  843  1  0.32397300  0.41626000  0.55780100  1
  N  859  1  0.39449700  0.75120300  0.17556700  1
  N  862  1  0.41633400  0.85386600  0.17495000  1
  N  878  1  0.89104000  0.39430300  0.67558500  1
  N  881  1  0.78838900  0.41619400  0.67494000  1
  N  897  1  0.24792500  0.75097800  0.92300400  1
  N  900  1  0.22604300  0.85362500  0.92366400  1
  N  916  1  0.75189500  0.39455300  0.42299500  1
  N  919  1  0.85453900  0.41646100  0.42367900  1
  N  932  1  0.62157000  0.57238000  0.22799400  1
  N  936  1  0.62220000  0.69069800  0.22825100  1
  N  942  1  0.62353700  0.68898100  0.19855300  1
  N  948  1  0.62233600  0.57061100  0.19830800  1
  N  1003  1  0.62346300  0.62475300  0.12431200  1
  N  1004  1  0.63130400  0.98574300  0.21288500  1
  N  1005  1  0.61667200  0.63635100  0.30230300  1
  N  1006  1  0.61661700  0.27531700  0.21468600  1
  N  1010  1  0.69187100  0.62122400  0.72800100  1
  N  1014  1  0.57355400  0.62182200  0.72828900  1
  N  1020  1  0.57512400  0.62224600  0.69858900  1
  N  1026  1  0.69349800  0.62094800  0.69831300  1
  N  1081  1  0.63863200  0.61678500  0.62434100  1
  N  1082  1  0.27844300  0.63103500  0.71293600  1
  N  1083  1  0.62811200  0.61679200  0.80232600  1
  N  1084  1  0.98886300  0.61641100  0.71465400  1
  N  1088  1  0.64251800  0.57196400  0.94844600  1
  N  1092  1  0.64134800  0.69039900  0.94807000  1
  N  1098  1  0.64070900  0.68903200  0.97773100  1
  N  1104  1  0.64158100  0.57053000  0.97808500  1
  N  1159  1  0.64445500  0.63125700  0.05196520  1
  N  1160  1  0.63313600  0.98560300  0.96328100  1
  N  1161  1  0.64532200  0.62939900  0.87413100  1
  N  1162  1  0.64721700  0.27511100  0.96169800  1
  N  1166  1  0.57275300  0.62158500  0.44846100  1
  N  1170  1  0.69118800  0.62269300  0.44801800  1
  N  1176  1  0.69010200  0.62296500  0.47767600  1
  N  1182  1  0.57159900  0.62230400  0.47810100  1
  N  1237  1  0.63173500  0.63093400  0.55190800  1
  N  1238  1  0.98652500  0.63123700  0.46319300  1
  N  1239  1  0.62959300  0.61915200  0.37411400  1
  N  1240  1  0.27604000  0.61713000  0.46177000  1
  N  1247  1  0.56909100  0.57021500  0.35342400  1
  N  1250  1  0.57231000  0.55187100  0.32748300  1
  N  1266  1  0.69445100  0.56918100  0.85346200  1
  N  1269  1  0.71297300  0.57243100  0.82753100  1
  N  1285  1  0.71694400  0.62569800  0.07151820  1
  N  1288  1  0.73639000  0.62854000  0.09730720  1
  N  1304  1  0.63725400  0.70530100  0.57101000  1
  N  1307  1  0.63495500  0.72724200  0.59667400  1
  N  1323  1  0.70547900  0.06218550  0.21444000  1
  N  1326  1  0.72731600  0.16484800  0.21382300  1
  N  1342  1  0.20202200  0.70528500  0.71445800  1
  N  1345  1  0.09937150  0.72717600  0.71381300  1
  N  1361  1  0.55890700  0.06196050  0.96187700  1
  N  1364  1  0.53702500  0.16460700  0.96253700  1
  N  1380  1  0.06287750  0.70553500  0.46186800  1
  N  1383  1  0.16552100  0.72744300  0.46255200  1
  O  326  1  0.89010400  0.86137300  0.25216400  1
  O  345  1  0.15960100  0.89031000  0.75224100  1
  O  364  1  0.20440100  0.99796000  0.01554400  1
  O  383  1  0.02186700  0.19480500  0.51435800  1
  O  402  1  0.19488000  0.52471800  0.13835400  1
  O  421  1  0.49561000  0.19473800  0.63833100  1
  O  440  1  0.82554400  0.52446500  0.88249500  1
  O  459  1  0.52536300  0.19499000  0.38250600  1
  O  790  1  0.20108700  0.17235600  0.29103700  1
  O  809  1  0.47058400  0.20129300  0.79111400  1
  O  828  1  0.51538400  0.30894300  0.05441710  1
  O  847  1  0.33285000  0.50578800  0.55323100  1
  O  866  1  0.50586300  0.83570100  0.17722700  1
  O  885  1  0.80659300  0.50572100  0.67720400  1
  O  904  1  0.13652700  0.83544800  0.92136800  1
  O  923  1  0.83634600  0.50597300  0.42137900  1
  O  1254  1  0.51206900  0.48333800  0.32991000  1
  O  1273  1  0.78156600  0.51227500  0.82998700  1
  O  1292  1  0.82636600  0.61992500  0.09329020  1
  O  1311  1  0.64383200  0.81677000  0.59210400  1
  O  1330  1  0.81684500  0.14668300  0.21610000  1
  O  1349  1  0.11757500  0.81670300  0.71607700  1
  O  1368  1  0.44750900  0.14643000  0.96024100  1
  O  1387  1  0.14732800  0.81695500  0.46025200  1
