# generated using pymatgen
data_H13C16N2O
_symmetry_space_group_name_H-M   'P 1'
_cell_length_a   45.17760000
_cell_length_b   45.17770000
_cell_length_c   57.75120000
_cell_angle_alpha   90.00000000
_cell_angle_beta   90.00000000
_cell_angle_gamma   90.81270000
_symmetry_Int_Tables_number   1
_chemical_formula_structural   H13C16N2O
_chemical_formula_sum   'H416 C512 N64 O32'
_cell_volume   117859.50034892
_cell_formula_units_Z   32
loop_
 _symmetry_equiv_pos_site_id
 _symmetry_equiv_pos_as_xyz
  1  'x, y, z'
loop_
 _atom_site_type_symbol
 _atom_site_label
 _atom_site_symmetry_multiplicity
 _atom_site_fract_x
 _atom_site_fract_y
 _atom_site_fract_z
 _atom_site_occupancy
  H  7  1  0.33699900  0.07967600  0.82582500  1
  H  8  1  0.41582000  0.03424900  0.81515500  1
  H  15  1  0.30409000  0.15550000  0.90760600  1
  H  16  1  0.36198500  0.08563100  0.89725400  1
  H  19  1  0.41546200  0.07851300  0.88908400  1
  H  20  1  0.31193800  0.12995500  0.82803200  1
  H  31  1  0.69114600  0.93391300  0.82586300  1
  H  32  1  0.61488600  0.98389400  0.81638000  1
  H  39  1  0.72280000  0.85794300  0.90777000  1
  H  40  1  0.66621500  0.92884900  0.89748400  1
  H  43  1  0.61441400  0.93788900  0.88973400  1
  H  44  1  0.71544300  0.88354200  0.82823700  1
  H  55  1  0.08558800  0.68626700  0.32574800  1
  H  56  1  0.04113400  0.60579900  0.31375500  1
  H  63  1  0.15731500  0.72096700  0.40964400  1
  H  64  1  0.08748200  0.66155400  0.39697400  1
  H  67  1  0.08258600  0.60756800  0.38870200  1
  H  68  1  0.13793400  0.71097100  0.32922300  1
  H  79  1  0.94473000  0.32694600  0.32572000  1
  H  80  1  0.99394100  0.40501200  0.31553700  1
  H  87  1  0.86913200  0.29460700  0.40830000  1
  H  88  1  0.94074100  0.35220500  0.39728200  1
  H  91  1  0.94861300  0.40446200  0.38915400  1
  H  92  1  0.89387300  0.30194800  0.32852900  1
  H  103  1  0.33315400  0.93749800  0.65513300  1
  H  104  1  0.41333400  0.98180700  0.66796900  1
  H  111  1  0.30033100  0.86353200  0.57235900  1
  H  112  1  0.36000000  0.93319100  0.58503400  1
  H  115  1  0.41399400  0.93743900  0.59418200  1
  H  116  1  0.30908200  0.88429000  0.65268400  1
  H  127  1  0.69478500  0.07638700  0.65508600  1
  H  128  1  0.61691400  0.02748600  0.66660800  1
  H  135  1  0.72650500  0.15018000  0.57212300  1
  H  136  1  0.66814100  0.07950900  0.58487800  1
  H  139  1  0.61562100  0.07383700  0.59347900  1
  H  140  1  0.71789400  0.12975800  0.65246100  1
  H  151  1  0.08518700  0.32821500  0.15433000  1
  H  152  1  0.04006000  0.40666100  0.16672600  1
  H  159  1  0.16274900  0.29792800  0.07353700  1
  H  160  1  0.09301200  0.35597500  0.08418900  1
  H  163  1  0.08621000  0.40936000  0.09355500  1
  H  164  1  0.13634700  0.30428900  0.15301900  1
  H  175  1  0.94319600  0.68549800  0.15497600  1
  H  176  1  0.99274300  0.60928700  0.16539300  1
  H  183  1  0.86512500  0.71491000  0.07414800  1
  H  184  1  0.93588400  0.65812400  0.08457500  1
  H  187  1  0.94393300  0.60631200  0.09325200  1
  H  188  1  0.89195600  0.70898200  0.15353700  1
  H  199  1  0.69034400  0.93318600  0.15582900  1
  H  200  1  0.61140400  0.97823500  0.16665200  1
  H  207  1  0.72852000  0.86200000  0.07446300  1
  H  208  1  0.66565300  0.92737500  0.08445600  1
  H  211  1  0.61209200  0.93446700  0.09250600  1
  H  212  1  0.71631800  0.88405400  0.15374800  1
  H  223  1  0.33649500  0.07956200  0.15577200  1
  H  224  1  0.41288300  0.02990100  0.16529600  1
  H  231  1  0.29938200  0.15097000  0.07431200  1
  H  232  1  0.36119700  0.08466600  0.08418200  1
  H  235  1  0.41323000  0.07571100  0.09189800  1
  H  236  1  0.31127200  0.12882200  0.15356300  1
  H  247  1  0.94427400  0.32570900  0.65589700  1
  H  248  1  0.99439000  0.40298700  0.66511000  1
  H  255  1  0.87119500  0.28916400  0.57420500  1
  H  256  1  0.93814200  0.35221300  0.58473400  1
  H  259  1  0.94489900  0.40548800  0.59351200  1
  H  260  1  0.89524300  0.29856700  0.65335800  1
  H  271  1  0.08262200  0.68771700  0.65635500  1
  H  272  1  0.03413800  0.60918600  0.66606100  1
  H  279  1  0.15498600  0.72524600  0.57439900  1
  H  280  1  0.08786000  0.66240900  0.58491100  1
  H  283  1  0.08058800  0.60971400  0.59299700  1
  H  284  1  0.13159400  0.71496900  0.65364700  1
  H  295  1  0.69628600  0.07270600  0.32674700  1
  H  296  1  0.61898300  0.02317600  0.31652900  1
  H  303  1  0.73136000  0.14639400  0.40768500  1
  H  304  1  0.66828500  0.07954400  0.39666100  1
  H  307  1  0.61466200  0.07442900  0.38718900  1
  H  308  1  0.72134300  0.12346200  0.32823300  1
  H  319  1  0.33082300  0.94005100  0.32693600  1
  H  320  1  0.40922400  0.98800700  0.31578400  1
  H  327  1  0.29605200  0.86564900  0.40787200  1
  H  328  1  0.35903400  0.93262600  0.39692700  1
  H  331  1  0.41171800  0.93876800  0.38761500  1
  H  332  1  0.30463500  0.89007500  0.32868400  1
  H  343  1  0.94268000  0.68520300  0.82728800  1
  H  344  1  0.98706800  0.60641000  0.81478300  1
  H  351  1  0.86930700  0.72070900  0.90761300  1
  H  352  1  0.93452500  0.65766700  0.89730600  1
  H  355  1  0.94096500  0.60411900  0.88802400  1
  H  356  1  0.89261300  0.71017400  0.82840100  1
  H  367  1  0.08509100  0.32784000  0.82657500  1
  H  368  1  0.03538300  0.40384900  0.81578100  1
  H  375  1  0.15797000  0.29301000  0.90705900  1
  H  376  1  0.09201700  0.35522800  0.89704000  1
  H  379  1  0.08342200  0.40705400  0.88826400  1
  H  380  1  0.15382900  0.33921400  0.83033100  1
  H  390  1  0.32053400  0.97659800  0.72515000  1
  H  392  1  0.39607600  0.04086000  0.75809000  1
  H  394  1  0.42263000  0.99924700  0.70789000  1
  H  395  1  0.43356300  0.00558200  0.73674800  1
  H  396  1  0.42315400  0.03552300  0.71878000  1
  H  398  1  0.29466700  0.01798600  0.77631800  1
  H  399  1  0.29398700  0.98176800  0.76517200  1
  H  400  1  0.28282800  0.01184800  0.74762300  1
  H  402  1  0.32979800  0.05647800  0.78318400  1
  H  404  1  0.38891100  0.95762000  0.70729800  1
  H  410  1  0.70887300  0.03668200  0.72469300  1
  H  412  1  0.63314700  0.97332200  0.75843600  1
  H  414  1  0.60659100  0.01428900  0.70790200  1
  H  415  1  0.59574600  0.00838200  0.73683500  1
  H  416  1  0.60596900  0.97815400  0.71909300  1
  H  418  1  0.73469200  0.99588300  0.77620000  1
  H  419  1  0.73553300  0.03198300  0.76480000  1
  H  420  1  0.74648200  0.00163800  0.74744600  1
  H  422  1  0.69910200  0.95734400  0.78331700  1
  H  424  1  0.64060700  0.05565100  0.70666900  1
  H  430  1  0.98387100  0.70040500  0.22407700  1
  H  432  1  0.04765100  0.62639900  0.25719500  1
  H  434  1  0.00643500  0.59899600  0.20667700  1
  H  435  1  0.01243200  0.58810400  0.23555400  1
  H  436  1  0.04260000  0.59932300  0.21780500  1
  H  438  1  0.02468600  0.72712100  0.27561000  1
  H  439  1  0.98861300  0.72686100  0.26419200  1
  H  440  1  0.01891600  0.73894100  0.24690800  1
  H  442  1  0.06292200  0.69315300  0.28269900  1
  H  444  1  0.96491700  0.63168900  0.20590600  1
  H  450  1  0.04634400  0.31348500  0.22349900  1
  H  452  1  0.98293900  0.38678100  0.25802600  1
  H  454  1  0.02349500  0.41520400  0.20749900  1
  H  455  1  0.01789600  0.42557000  0.23655000  1
  H  456  1  0.98749000  0.41465600  0.21893300  1
  H  458  1  0.00571600  0.28564200  0.27480500  1
  H  459  1  0.04179100  0.28606100  0.26335100  1
  H  460  1  0.01142300  0.27447500  0.24593300  1
  H  462  1  0.96727500  0.32009200  0.28249000  1
  H  464  1  0.06524000  0.38257000  0.20620900  1
  H  470  1  0.70984100  0.03248600  0.25722500  1
  H  472  1  0.63179600  0.97163400  0.22388200  1
  H  474  1  0.60721500  0.01314400  0.27478600  1
  H  475  1  0.59580400  0.00763300  0.24594300  1
  H  476  1  0.60533100  0.97704500  0.26355200  1
  H  478  1  0.73364200  0.99167800  0.20514800  1
  H  479  1  0.73565500  0.02756500  0.21687600  1
  H  480  1  0.74605500  0.99666000  0.23383100  1
  H  482  1  0.69721400  0.95436700  0.19820400  1
  H  484  1  0.64281000  0.05350200  0.27582000  1
  H  490  1  0.31711800  0.97936900  0.25738400  1
  H  492  1  0.39435900  0.04062300  0.22335900  1
  H  494  1  0.41980500  0.99955200  0.27421500  1
  H  495  1  0.43087600  0.00503700  0.24528900  1
  H  496  1  0.42127500  0.03561400  0.26288700  1
  H  498  1  0.29244600  0.02004400  0.20546500  1
  H  499  1  0.29076600  0.98410000  0.21713700  1
  H  500  1  0.28039500  0.01490000  0.23422200  1
  H  502  1  0.32900600  0.05775500  0.19821100  1
  H  504  1  0.38453000  0.95886800  0.27558800  1
  H  510  1  0.04511500  0.31130000  0.75821100  1
  H  512  1  0.98423400  0.38593200  0.72264700  1
  H  514  1  0.02512400  0.41390800  0.77316200  1
  H  515  1  0.01997500  0.42405300  0.74401100  1
  H  516  1  0.98919000  0.41416400  0.76158600  1
  H  518  1  0.00422600  0.28391500  0.70686700  1
  H  519  1  0.04016200  0.28339300  0.71856400  1
  H  520  1  0.00928300  0.27300800  0.73588100  1
  H  522  1  0.96647800  0.31938600  0.69905900  1
  H  524  1  0.06568400  0.37995300  0.77534700  1
  H  530  1  0.98124800  0.70031200  0.75851400  1
  H  532  1  0.04394700  0.62685100  0.72340900  1
  H  534  1  0.00287600  0.59808800  0.77357500  1
  H  535  1  0.00852700  0.58809300  0.74445200  1
  H  536  1  0.03894600  0.59843200  0.76226000  1
  H  538  1  0.02227200  0.72849400  0.70750900  1
  H  539  1  0.98618000  0.72830300  0.71892700  1
  H  540  1  0.01663700  0.73928500  0.73648000  1
  H  542  1  0.06044200  0.69377500  0.69967200  1
  H  544  1  0.96153000  0.63132600  0.77525500  1
  H  550  1  0.28605500  0.23068700  0.86548300  1
  H  552  1  0.17932900  0.22178200  0.86692500  1
  H  554  1  0.21643400  0.14983100  0.86367900  1
  H  555  1  0.18611000  0.16838700  0.85190400  1
  H  556  1  0.19077700  0.16687000  0.88238800  1
  H  558  1  0.24839600  0.30256000  0.86270000  1
  H  559  1  0.27796000  0.28409400  0.84960700  1
  H  560  1  0.27551400  0.28583000  0.88024700  1
  H  562  1  0.20442700  0.28794500  0.88598500  1
  H  564  1  0.26017500  0.16310400  0.88467400  1
  H  570  1  0.74095200  0.78298900  0.86610000  1
  H  572  1  0.84770100  0.79189400  0.86714100  1
  H  574  1  0.81056000  0.86381400  0.86348500  1
  H  575  1  0.84082300  0.84513000  0.85173500  1
  H  576  1  0.83633800  0.84701000  0.88222300  1
  H  578  1  0.77856500  0.71107700  0.86370900  1
  H  579  1  0.74897500  0.72942300  0.85055200  1
  H  580  1  0.75151600  0.72801200  0.88119800  1
  H  582  1  0.82264000  0.72578200  0.88666500  1
  H  584  1  0.76691400  0.85073300  0.88474700  1
  H  590  1  0.22404500  0.74877400  0.34283300  1
  H  592  1  0.23043100  0.83639900  0.39079100  1
  H  594  1  0.16109700  0.79492200  0.39950400  1
  H  595  1  0.17079200  0.83166900  0.39207900  1
  H  596  1  0.18947800  0.81308800  0.41469500  1
  H  598  1  0.29600800  0.78871200  0.33872600  1
  H  599  1  0.26957900  0.77178700  0.32045100  1
  H  600  1  0.28357400  0.75228400  0.34468100  1
  H  602  1  0.29399400  0.81663600  0.38208800  1
  H  604  1  0.15516700  0.76681100  0.36763100  1
  H  610  1  0.79538900  0.27535200  0.36561900  1
  H  612  1  0.80148100  0.16863300  0.36832200  1
  H  614  1  0.87023000  0.20063200  0.35456600  1
  H  615  1  0.85298800  0.16876100  0.36620200  1
  H  616  1  0.86580500  0.19682500  0.38501900  1
  H  618  1  0.72262000  0.23747000  0.36238400  1
  H  619  1  0.74215400  0.26681300  0.34919500  1
  H  620  1  0.73960600  0.26501400  0.37983000  1
  H  622  1  0.73529800  0.19389000  0.38598400  1
  H  624  1  0.86399600  0.24956900  0.38381900  1
  H  630  1  0.27292800  0.79652000  0.63820500  1
  H  632  1  0.18333100  0.79105400  0.59250600  1
  H  634  1  0.22425700  0.86062500  0.58362800  1
  H  635  1  0.18789100  0.85077000  0.59201000  1
  H  636  1  0.20538900  0.83253800  0.56864300  1
  H  638  1  0.23341500  0.72434000  0.64219300  1
  H  639  1  0.25109400  0.75034000  0.66041400  1
  H  640  1  0.26952100  0.73705300  0.63542600  1
  H  642  1  0.20403900  0.72727400  0.59967800  1
  H  644  1  0.25394300  0.86599300  0.61442000  1
  H  650  1  0.75434100  0.21686400  0.63869900  1
  H  652  1  0.84258300  0.22349700  0.59146500  1
  H  654  1  0.80148400  0.15402000  0.58243500  1
  H  655  1  0.83808100  0.16381900  0.59022500  1
  H  656  1  0.81980900  0.18244800  0.56742400  1
  H  658  1  0.79393900  0.28898500  0.64303400  1
  H  659  1  0.77690300  0.26251300  0.66121200  1
  H  660  1  0.75763500  0.27638400  0.63682000  1
  H  662  1  0.82227700  0.28703800  0.59988200  1
  H  664  1  0.77287400  0.14799500  0.61391300  1
  H  670  1  0.23776300  0.27946000  0.11567100  1
  H  672  1  0.22889900  0.17273400  0.11417300  1
  H  674  1  0.15691500  0.20982900  0.11710500  1
  H  675  1  0.17537600  0.17952600  0.12901300  1
  H  676  1  0.17410400  0.18413400  0.09851800  1
  H  678  1  0.30964000  0.24180300  0.11859500  1
  H  679  1  0.29113800  0.27134800  0.13169300  1
  H  680  1  0.29296200  0.26895900  0.10105300  1
  H  682  1  0.29494800  0.19773300  0.09515200  1
  H  684  1  0.17043200  0.25367700  0.09612800  1
  H  690  1  0.79032400  0.73342100  0.11592700  1
  H  692  1  0.79907500  0.84017300  0.11458700  1
  H  694  1  0.87108300  0.80312400  0.11785300  1
  H  695  1  0.85250300  0.83340000  0.12970000  1
  H  696  1  0.85402600  0.82884000  0.09920500  1
  H  698  1  0.71837400  0.77097000  0.11848500  1
  H  699  1  0.73681200  0.74145400  0.13167200  1
  H  700  1  0.73524500  0.74385100  0.10102500  1
  H  702  1  0.73309100  0.81508100  0.09525400  1
  H  704  1  0.85771600  0.75927800  0.09674000  1
  H  710  1  0.54444300  0.99301000  0.82612800  1
  H  712  1  0.47772700  0.00809600  0.89029600  1
  H  714  1  0.54665700  0.97162800  0.90766600  1
  H  715  1  0.50831400  0.96380900  0.90982500  1
  H  716  1  0.52270300  0.99943700  0.91681400  1
  H  718  1  0.47855700  0.03584100  0.81054300  1
  H  719  1  0.49666100  0.00384900  0.80066100  1
  H  720  1  0.51707100  0.03694300  0.80621000  1
  H  722  1  0.44190500  0.00805100  0.84575300  1
  H  724  1  0.56243200  0.94890500  0.87427600  1
  H  730  1  0.00453600  0.47456900  0.32594000  1
  H  732  1  0.01033400  0.54528100  0.38861200  1
  H  734  1  0.97392300  0.47518600  0.40573000  1
  H  735  1  0.96476000  0.51309000  0.40601300  1
  H  736  1  0.99981200  0.50127800  0.41596700  1
  H  738  1  0.04692200  0.54215000  0.31103100  1
  H  739  1  0.01692000  0.52135400  0.29966300  1
  H  740  1  0.04992400  0.50355600  0.30823500  1
  H  742  1  0.01404300  0.57934600  0.34472100  1
  H  744  1  0.95546000  0.45678000  0.37131200  1
  H  750  1  0.54411400  0.02120900  0.65825300  1
  H  752  1  0.47734800  0.00700800  0.59368000  1
  H  754  1  0.54779100  0.04301400  0.57681800  1
  H  755  1  0.50972800  0.05093100  0.57436200  1
  H  756  1  0.52308800  0.01528400  0.56740300  1
  H  758  1  0.47618200  0.97948700  0.67353400  1
  H  759  1  0.49567100  0.01114700  0.68348700  1
  H  760  1  0.51459400  0.97769200  0.67809000  1
  H  762  1  0.44100100  0.00741600  0.63750000  1
  H  764  1  0.56379600  0.06550300  0.61082600  1
  H  770  1  0.99865800  0.53645800  0.15752100  1
  H  772  1  0.01637200  0.47117500  0.09285400  1
  H  774  1  0.97989500  0.54020700  0.07566700  1
  H  775  1  0.97262100  0.50184600  0.07280300  1
  H  776  1  0.00830600  0.51680200  0.06674400  1
  H  778  1  0.04111300  0.47032000  0.17321900  1
  H  779  1  0.00871500  0.48812100  0.18261700  1
  H  780  1  0.04193900  0.50873800  0.17808500  1
  H  782  1  0.01500300  0.43453800  0.13737100  1
  H  784  1  0.95587000  0.55495200  0.10905300  1
  H  790  1  0.48234700  0.01897300  0.15521800  1
  H  792  1  0.55063300  0.00656300  0.09171300  1
  H  794  1  0.48229600  0.04398800  0.07426700  1
  H  795  1  0.52068800  0.05191500  0.07301000  1
  H  796  1  0.50653600  0.01664200  0.06475200  1
  H  798  1  0.54770400  0.97522700  0.17060500  1
  H  799  1  0.52942600  0.00680600  0.18108200  1
  H  800  1  0.50908400  0.97404200  0.17432900  1
  H  802  1  0.58540400  0.00467800  0.13631600  1
  H  804  1  0.46563100  0.06521300  0.10786800  1
  H  810  1  0.01262300  0.55046200  0.65280900  1
  H  812  1  0.01664300  0.46378200  0.60412400  1
  H  814  1  0.05967500  0.52631400  0.58031400  1
  H  815  1  0.06750000  0.48950900  0.58840700  1
  H  816  1  0.03543700  0.49775900  0.57205400  1
  H  818  1  0.95937800  0.49290400  0.67009000  1
  H  819  1  0.98893800  0.51213200  0.68379900  1
  H  820  1  0.96273700  0.53132000  0.66677900  1
  H  822  1  0.98570600  0.45156500  0.65875900  1
  H  824  1  0.07012200  0.55624500  0.60983200  1
  H  830  1  0.47119200  0.00496400  0.32583300  1
  H  832  1  0.55598600  0.00378300  0.37667500  1
  H  834  1  0.49268000  0.96133800  0.40003000  1
  H  835  1  0.53001200  0.95381100  0.39337200  1
  H  836  1  0.52041400  0.98644900  0.40851800  1
  H  838  1  0.52920400  0.05761600  0.30829700  1
  H  839  1  0.51069100  0.02726000  0.29506300  1
  H  840  1  0.49068800  0.05418600  0.31074200  1
  H  842  1  0.57014700  0.03229000  0.32146600  1
  H  844  1  0.46457700  0.94892000  0.36939200  1
  H  850  1  0.02764200  0.47630900  0.82403800  1
  H  852  1  0.01200500  0.54245200  0.88849900  1
  H  854  1  0.04916000  0.47374700  0.90551900  1
  H  855  1  0.05654600  0.51215000  0.90784900  1
  H  856  1  0.02109000  0.49731300  0.91482200  1
  H  858  1  0.98454200  0.54217000  0.80868800  1
  H  859  1  0.01664600  0.52428700  0.79878000  1
  H  860  1  0.98361600  0.50368700  0.80413900  1
  H  862  1  0.01207100  0.57853500  0.84408600  1
  H  864  1  0.07209200  0.45859200  0.87185500  1
  H  870  1  0.31284100  0.07550000  0.01657700  1
  H  872  1  0.37695000  0.13139800  0.96487100  1
  H  874  1  0.39131000  0.14696000  0.02664100  1
  H  875  1  0.38646200  0.16626000  0.00052700  1
  H  876  1  0.41188200  0.13674300  0.00201100  1
  H  878  1  0.29604300  0.06305500  0.95466900  1
  H  879  1  0.27717400  0.07079100  0.98056200  1
  H  880  1  0.30287300  0.04148100  0.97951200  1
  H  882  1  0.34579200  0.07665300  0.93627900  1
  H  884  1  0.37215100  0.10125100  0.04502000  1
  H  890  1  0.71459800  0.93731500  0.01697700  1
  H  892  1  0.65034300  0.88206900  0.96495800  1
  H  894  1  0.63611100  0.86577100  0.02663000  1
  H  895  1  0.64084600  0.84680900  0.00035200  1
  H  896  1  0.61547200  0.87634000  0.00212500  1
  H  898  1  0.73125400  0.95049800  0.95513400  1
  H  899  1  0.75020300  0.94240200  0.98092300  1
  H  900  1  0.72453300  0.97175400  0.98016300  1
  H  902  1  0.68147400  0.93703100  0.93667600  1
  H  904  1  0.65526600  0.91126000  0.04526700  1
  H  910  1  0.07770200  0.70965800  0.51706700  1
  H  912  1  0.13271000  0.64603700  0.46558200  1
  H  914  1  0.14905900  0.63319600  0.52738700  1
  H  915  1  0.16806300  0.63809400  0.50107600  1
  H  916  1  0.13851500  0.61192300  0.50305300  1
  H  918  1  0.06410900  0.72460800  0.45502500  1
  H  919  1  0.07252200  0.74447400  0.48045100  1
  H  920  1  0.04310800  0.71802400  0.48029700  1
  H  922  1  0.07858100  0.67339800  0.43685000  1
  H  924  1  0.10298300  0.65161600  0.54581400  1
  H  930  1  0.94745500  0.30447200  0.51711700  1
  H  932  1  0.89390600  0.36870700  0.46515800  1
  H  934  1  0.87735400  0.38221100  0.52684500  1
  H  935  1  0.85847800  0.37751200  0.50046100  1
  H  936  1  0.88846500  0.40316700  0.50249400  1
  H  938  1  0.96109600  0.28873500  0.45523600  1
  H  939  1  0.95228400  0.26930800  0.48078000  1
  H  940  1  0.98211800  0.29528200  0.48050600  1
  H  942  1  0.94823900  0.33934100  0.43695200  1
  H  944  1  0.92262000  0.36314000  0.54562000  1
  H  950  1  0.31134200  0.94243900  0.46500400  1
  H  952  1  0.37614600  0.88862400  0.51636200  1
  H  954  1  0.38915600  0.87260800  0.45451700  1
  H  955  1  0.38466500  0.85346800  0.48081100  1
  H  956  1  0.41028200  0.88349700  0.47883500  1
  H  958  1  0.29631100  0.95571700  0.52707200  1
  H  959  1  0.27652500  0.94693500  0.50168000  1
  H  960  1  0.30242100  0.97683700  0.50179200  1
  H  962  1  0.34797300  0.94213600  0.54515800  1
  H  964  1  0.36972000  0.91834100  0.43610700  1
  H  970  1  0.71622700  0.06970600  0.46494800  1
  H  972  1  0.65167800  0.12416600  0.51608100  1
  H  974  1  0.63857900  0.13966300  0.45417100  1
  H  975  1  0.64317000  0.15901200  0.48036100  1
  H  976  1  0.61747100  0.12903400  0.47856700  1
  H  978  1  0.73139300  0.05699500  0.52706800  1
  H  979  1  0.75112000  0.06547800  0.50159000  1
  H  980  1  0.72515300  0.03563900  0.50192800  1
  H  982  1  0.68005500  0.07073000  0.54511400  1
  H  984  1  0.65785400  0.09382900  0.43596000  1
  H  990  1  0.08329000  0.30651100  0.96478500  1
  H  992  1  0.13814300  0.37164700  0.01639000  1
  H  994  1  0.15348600  0.38607700  0.95459200  1
  H  995  1  0.17286200  0.38161900  0.98071800  1
  H  996  1  0.14293100  0.40654800  0.97918500  1
  H  998  1  0.07103100  0.28975200  0.02672200  1
  H  999  1  0.07911700  0.27090400  0.00088500  1
  H  1000  1  0.04939400  0.29613000  0.00183800  1
  H  1002  1  0.08396200  0.33982700  0.04505900  1
  H  1004  1  0.10809800  0.36609400  0.93621700  1
  H  1010  1  0.94402600  0.70700900  0.96507700  1
  H  1012  1  0.88967800  0.64171500  0.01688000  1
  H  1014  1  0.87378800  0.62743700  0.95514000  1
  H  1015  1  0.85465700  0.63178700  0.98138800  1
  H  1016  1  0.88460200  0.60689600  0.97962700  1
  H  1018  1  0.95681900  0.72363200  0.02697100  1
  H  1019  1  0.94846300  0.74255000  0.00122100  1
  H  1020  1  0.97822600  0.71735300  0.00195000  1
  H  1022  1  0.94408800  0.67346300  0.04529500  1
  H  1024  1  0.91911800  0.64741400  0.93660000  1
  C  1  1  0.36931500  0.08828300  0.85189700  1
  C  2  1  0.35805800  0.07529000  0.83116700  1
  C  3  1  0.37500200  0.05569900  0.81764000  1
  C  4  1  0.40341000  0.04802700  0.82527300  1
  C  5  1  0.41571400  0.05909600  0.84603800  1
  C  6  1  0.39869500  0.07993600  0.85878400  1
  C  9  1  0.35034300  0.10713300  0.86602400  1
  C  10  1  0.33099300  0.12958700  0.85733200  1
  C  11  1  0.31276400  0.14694200  0.87224800  1
  C  12  1  0.31548000  0.14227400  0.89638200  1
  C  13  1  0.33317400  0.11985300  0.90566500  1
  C  14  1  0.34967900  0.10222500  0.89030800  1
  C  25  1  0.65876800  0.92647200  0.85211700  1
  C  26  1  0.67035000  0.93910900  0.83135000  1
  C  27  1  0.65428100  0.95973500  0.81810800  1
  C  28  1  0.62642100  0.96877100  0.82601400  1
  C  29  1  0.61348000  0.95725200  0.84628500  1
  C  30  1  0.62970700  0.93581700  0.85909000  1
  C  33  1  0.67729500  0.90711900  0.86622300  1
  C  34  1  0.69632600  0.88438400  0.85752100  1
  C  35  1  0.71433700  0.86678100  0.87242700  1
  C  36  1  0.71159200  0.87135300  0.89656500  1
  C  37  1  0.69420700  0.89399100  0.90586700  1
  C  38  1  0.67807600  0.91196400  0.89051500  1
  C  49  1  0.09334300  0.65396700  0.35181100  1
  C  50  1  0.08112400  0.66498800  0.33084000  1
  C  51  1  0.06214500  0.64743800  0.31682000  1
  C  52  1  0.05455200  0.61864800  0.32413000  1
  C  53  1  0.06510900  0.60665400  0.34505500  1
  C  54  1  0.08517400  0.62427900  0.35840900  1
  C  57  1  0.11121100  0.67333400  0.36659400  1
  C  58  1  0.13472100  0.69245800  0.35861500  1
  C  59  1  0.15129000  0.71073900  0.37425600  1
  C  60  1  0.14473000  0.70893800  0.39809600  1
  C  61  1  0.12152300  0.69100900  0.40659500  1
  C  62  1  0.10464600  0.67412000  0.39065200  1
  C  73  1  0.93744700  0.35931100  0.35186800  1
  C  74  1  0.94987500  0.34796600  0.33106400  1
  C  75  1  0.97017700  0.36470200  0.31758900  1
  C  76  1  0.97907200  0.39293500  0.32532000  1
  C  77  1  0.96750500  0.40558300  0.34555300  1
  C  78  1  0.94640200  0.38876200  0.35860900  1
  C  81  1  0.91842300  0.34047800  0.36626500  1
  C  82  1  0.89533800  0.32119900  0.35775400  1
  C  83  1  0.87777900  0.30313200  0.37291400  1
  C  84  1  0.88259200  0.30601500  0.39701200  1
  C  85  1  0.90554300  0.32380700  0.40609600  1
  C  86  1  0.92362300  0.33999000  0.39052600  1
  C  97  1  0.36655200  0.92807800  0.63032800  1
  C  98  1  0.35479700  0.94129600  0.65066000  1
  C  99  1  0.37208200  0.96009200  0.66500500  1
  C  100  1  0.40108800  0.96753600  0.65792200  1
  C  101  1  0.41379500  0.95624600  0.63750900  1
  C  102  1  0.39653500  0.93576600  0.62424200  1
  C  105  1  0.34748300  0.91000000  0.61547800  1
  C  106  1  0.32812000  0.88669000  0.62347000  1
  C  107  1  0.31007400  0.86990500  0.60779000  1
  C  108  1  0.31225700  0.87619400  0.58392200  1
  C  109  1  0.33040000  0.89923700  0.57540800  1
  C  110  1  0.34719600  0.91620000  0.59136100  1
  C  121  1  0.66123400  0.08465800  0.63012200  1
  C  122  1  0.67334300  0.07177800  0.65046600  1
  C  123  1  0.65683800  0.05186000  0.66444400  1
  C  124  1  0.62832500  0.04305600  0.65706900  1
  C  125  1  0.61497700  0.05490700  0.63721600  1
  C  126  1  0.63150900  0.07602100  0.62394600  1
  C  129  1  0.67991600  0.10316500  0.61527700  1
  C  130  1  0.69890000  0.12680200  0.62324300  1
  C  131  1  0.71677200  0.14376900  0.60755800  1
  C  132  1  0.71471700  0.13740200  0.58369200  1
  C  133  1  0.69697500  0.11404200  0.57520200  1
  C  134  1  0.68046700  0.09684800  0.59117900  1
  C  145  1  0.09511900  0.36196800  0.12970500  1
  C  146  1  0.08137600  0.34970900  0.14977400  1
  C  147  1  0.06211500  0.36625600  0.16385000  1
  C  148  1  0.05452800  0.39498800  0.15673000  1
  C  149  1  0.06606500  0.40820700  0.13646200  1
  C  150  1  0.08713200  0.39169200  0.12353700  1
  C  153  1  0.11413100  0.34348900  0.11536800  1
  C  154  1  0.13647100  0.32396900  0.12396900  1
  C  155  1  0.15398400  0.30606900  0.10893700  1
  C  156  1  0.14947900  0.30918100  0.08481300  1
  C  157  1  0.12716500  0.32709500  0.07561300  1
  C  158  1  0.10948600  0.34343200  0.09105500  1
  C  169  1  0.93408500  0.65182300  0.13007400  1
  C  170  1  0.94767900  0.66423700  0.15017200  1
  C  171  1  0.96808300  0.64834600  0.16373900  1
  C  172  1  0.97685600  0.62018800  0.15612500  1
  C  173  1  0.96456500  0.60649600  0.13643900  1
  C  174  1  0.94283800  0.62237800  0.12367600  1
  C  177  1  0.91462000  0.67002100  0.11583900  1
  C  178  1  0.89205700  0.68926400  0.12449800  1
  C  179  1  0.87425700  0.70697100  0.10951900  1
  C  180  1  0.87860700  0.70383900  0.08538100  1
  C  181  1  0.90111200  0.68624000  0.07610800  1
  C  182  1  0.91915500  0.67024700  0.09150700  1
  C  193  1  0.65806200  0.92447200  0.12976400  1
  C  194  1  0.66925000  0.93743100  0.15051700  1
  C  195  1  0.65224200  0.95685900  0.16411000  1
  C  196  1  0.62383800  0.96454200  0.15648400  1
  C  197  1  0.61161000  0.95362400  0.13563800  1
  C  198  1  0.62869100  0.93285000  0.12285200  1
  C  201  1  0.67723000  0.90578300  0.11566000  1
  C  202  1  0.69731300  0.88401100  0.12440100  1
  C  203  1  0.71599700  0.86710800  0.10952200  1
  C  204  1  0.71482100  0.87312300  0.08550000  1
  C  205  1  0.69552700  0.89410300  0.07610500  1
  C  206  1  0.67783700  0.91066800  0.09138200  1
  C  217  1  0.36884600  0.08719600  0.12953000  1
  C  218  1  0.35733200  0.07452500  0.15030000  1
  C  219  1  0.37347000  0.05400600  0.16356400  1
  C  220  1  0.40131800  0.04498300  0.15564600  1
  C  221  1  0.41420200  0.05648200  0.13534500  1
  C  222  1  0.39792000  0.07789100  0.12253800  1
  C  225  1  0.35010700  0.10639400  0.11545400  1
  C  226  1  0.33031400  0.12843500  0.12421800  1
  C  227  1  0.31181600  0.14559100  0.10936800  1
  C  228  1  0.31295400  0.13966900  0.08533400  1
  C  229  1  0.33199600  0.11849700  0.07590400  1
  C  230  1  0.34940000  0.10160600  0.09115900  1
  C  241  1  0.93587300  0.35836500  0.63018600  1
  C  242  1  0.94904000  0.34682900  0.65062000  1
  C  243  1  0.96986900  0.36338300  0.66368200  1
  C  244  1  0.97844700  0.39168200  0.65593100  1
  C  245  1  0.96552600  0.40512500  0.63639200  1
  C  246  1  0.94437000  0.38801600  0.62361000  1
  C  249  1  0.91672000  0.33950000  0.61590100  1
  C  250  1  0.89493100  0.31882500  0.62451900  1
  C  251  1  0.87753300  0.30060000  0.60937100  1
  C  252  1  0.88282600  0.30270100  0.58530900  1
  C  253  1  0.90405400  0.32244100  0.57607800  1
  C  254  1  0.92123900  0.33972400  0.59156000  1
  C  265  1  0.09078100  0.65544900  0.63027500  1
  C  266  1  0.07789200  0.66666667  0.65096700  1
  C  267  1  0.05760500  0.64967500  0.66427000  1
  C  268  1  0.04905000  0.62141400  0.65642500  1
  C  269  1  0.06100000  0.60897100  0.63625900  1
  C  270  1  0.08220000  0.62591100  0.62343300  1
  C  273  1  0.10971300  0.67457000  0.61601700  1
  C  274  1  0.13163500  0.69509200  0.62464700  1
  C  275  1  0.14891100  0.71347300  0.60952900  1
  C  276  1  0.14340400  0.71164100  0.58548100  1
  C  277  1  0.12201300  0.69208300  0.57624100  1
  C  278  1  0.10490400  0.67471200  0.59171400  1
  C  289  1  0.66252000  0.08240600  0.35123300  1
  C  290  1  0.67477100  0.06854400  0.33136500  1
  C  291  1  0.65832300  0.04806900  0.31792100  1
  C  292  1  0.62976000  0.03971900  0.32538100  1
  C  293  1  0.61571600  0.05323400  0.34439700  1
  C  294  1  0.63257300  0.07447900  0.35727100  1
  C  297  1  0.68115100  0.10138000  0.36572800  1
  C  298  1  0.70150400  0.12349100  0.35723500  1
  C  299  1  0.71967600  0.14080000  0.37246500  1
  C  300  1  0.71789200  0.13487000  0.39647900  1
  C  301  1  0.69829400  0.11340500  0.40558300  1
  C  302  1  0.68089900  0.09647800  0.39000600  1
  C  313  1  0.36455300  0.93019900  0.35143600  1
  C  314  1  0.35237600  0.94406800  0.33151000  1
  C  315  1  0.36901800  0.96412000  0.31778800  1
  C  316  1  0.39765900  0.97236600  0.32514700  1
  C  317  1  0.41098800  0.95960400  0.34464100  1
  C  318  1  0.39450200  0.93812300  0.35751900  1
  C  321  1  0.34590500  0.91117100  0.36590300  1
  C  322  1  0.32517800  0.88941200  0.35738500  1
  C  323  1  0.30717200  0.87199100  0.37264500  1
  C  324  1  0.30947600  0.87729700  0.39669900  1
  C  325  1  0.32925300  0.89858800  0.40581500  1
  C  326  1  0.34643200  0.91572500  0.39022600  1
  C  337  1  0.93230900  0.65147500  0.85183600  1
  C  338  1  0.94622500  0.66365200  0.83181600  1
  C  339  1  0.96534700  0.64697400  0.81774600  1
  C  340  1  0.97269400  0.61816400  0.82480700  1
  C  341  1  0.96110500  0.60502600  0.84509600  1
  C  342  1  0.94012400  0.62169300  0.85801100  1
  C  345  1  0.91345300  0.67018800  0.86612700  1
  C  346  1  0.89185800  0.69049600  0.85746800  1
  C  347  1  0.87475100  0.70883300  0.87245300  1
  C  348  1  0.88051100  0.70718000  0.89649700  1
  C  349  1  0.90135500  0.68765800  0.90581400  1
  C  350  1  0.91798700  0.67014000  0.89044600  1
  C  361  1  0.09386500  0.36156900  0.85151300  1
  C  362  1  0.08048600  0.34908300  0.83137000  1
  C  363  1  0.06011300  0.36486700  0.81773000  1
  C  364  1  0.05118000  0.39302400  0.82520000  1
  C  365  1  0.06323900  0.40678800  0.84495400  1
  C  366  1  0.08491500  0.39098100  0.85785500  1
  C  369  1  0.11326500  0.34334200  0.86577100  1
  C  370  1  0.13535400  0.32354600  0.85708700  1
  C  371  1  0.15233300  0.30496100  0.87192900  1
  C  372  1  0.14671100  0.30656300  0.89599700  1
  C  373  1  0.12579200  0.32592700  0.90540400  1
  C  374  1  0.10884100  0.34322600  0.89010400  1
  C  385  1  0.35155000  0.02650200  0.76175600  1
  C  386  1  0.32926000  0.00799800  0.75159800  1
  C  387  1  0.33639900  0.99052000  0.73198700  1
  C  388  1  0.36505100  0.99070300  0.72214300  1
  C  389  1  0.38719900  0.00970400  0.73187800  1
  C  391  1  0.37989200  0.02730700  0.75122800  1
  C  393  1  0.41825300  0.01249400  0.72322800  1
  C  397  1  0.29858500  0.00488700  0.76080900  1
  C  401  1  0.34728000  0.04356100  0.78170000  1
  C  403  1  0.37183900  0.97091700  0.70454500  1
  C  405  1  0.67774600  0.98755000  0.76186100  1
  C  406  1  0.70008900  0.00577400  0.75148200  1
  C  407  1  0.69296300  0.02295900  0.73171000  1
  C  408  1  0.66427600  0.02273200  0.72192600  1
  C  409  1  0.64207200  0.00401000  0.73189700  1
  C  411  1  0.64936200  0.98669600  0.75140800  1
  C  413  1  0.61097600  0.00122700  0.72333800  1
  C  417  1  0.73080400  0.00883500  0.76060800  1
  C  421  1  0.68198800  0.97076300  0.78193700  1
  C  423  1  0.65753300  0.04211400  0.70405300  1
  C  425  1  0.03336600  0.67054100  0.26090200  1
  C  426  1  0.01497900  0.69238200  0.25070300  1
  C  427  1  0.99769800  0.68487600  0.23095500  1
  C  428  1  0.99794300  0.65628600  0.22101800  1
  C  429  1  0.01677500  0.63458700  0.23082300  1
  C  431  1  0.03420500  0.64226500  0.25030000  1
  C  433  1  0.01954300  0.60363700  0.22211700  1
  C  437  1  0.01178100  0.72292300  0.25999000  1
  C  441  1  0.05024100  0.67517700  0.28096800  1
  C  443  1  0.97835200  0.64906700  0.20326000  1
  C  445  1  0.99729900  0.34257600  0.26103700  1
  C  446  1  0.01549500  0.32092500  0.25040700  1
  C  447  1  0.03259600  0.32886600  0.23067300  1
  C  448  1  0.03228100  0.35769400  0.22115800  1
  C  449  1  0.01351700  0.37917100  0.23132700  1
  C  451  1  0.99631200  0.37107300  0.25082100  1
  C  453  1  0.01061200  0.41027800  0.22299700  1
  C  457  1  0.01862800  0.29016200  0.25923700  1
  C  461  1  0.98073000  0.33756800  0.28117900  1
  C  463  1  0.05170600  0.36530700  0.20340600  1
  C  465  1  0.67672600  0.98461400  0.22010000  1
  C  466  1  0.69974400  0.00211900  0.23033300  1
  C  467  1  0.69344400  0.01928600  0.25027900  1
  C  468  1  0.66494000  0.01974600  0.26034300  1
  C  469  1  0.64201900  0.00182000  0.25048500  1
  C  471  1  0.64850100  0.98446600  0.23082300  1
  C  473  1  0.61098500  0.99997500  0.25930200  1
  C  477  1  0.73036600  0.00448100  0.22090300  1
  C  481  1  0.68021900  0.96787400  0.19992400  1
  C  483  1  0.65909600  0.03917300  0.27834800  1
  C  485  1  0.34948700  0.02729000  0.21992300  1
  C  486  1  0.32669400  0.00971100  0.23036800  1
  C  487  1  0.33333333  0.99265000  0.25030000  1
  C  488  1  0.36198500  0.99240800  0.26015300  1
  C  489  1  0.38465600  0.01048000  0.25011000  1
  C  491  1  0.37782900  0.02770100  0.23045300  1
  C  493  1  0.41576700  0.01262300  0.25872400  1
  C  497  1  0.29597300  0.00719800  0.22116600  1
  C  501  1  0.34571000  0.04385000  0.19969800  1
  C  503  1  0.36819000  0.97312100  0.27817100  1
  C  505  1  0.99737700  0.34127300  0.72008400  1
  C  506  1  0.01483500  0.31925800  0.73100300  1
  C  507  1  0.03195400  0.32699300  0.75077400  1
  C  508  1  0.03232900  0.35595100  0.76005700  1
  C  509  1  0.01433300  0.37783700  0.74957400  1
  C  511  1  0.99711800  0.36995400  0.73003900  1
  C  513  1  0.01220700  0.40912300  0.75765400  1
  C  517  1  0.01710500  0.28826800  0.72248200  1
  C  521  1  0.98062100  0.33635200  0.70003100  1
  C  523  1  0.05153100  0.36316200  0.77804100  1
  C  525  1  0.03005200  0.67126000  0.72077800  1
  C  526  1  0.01205700  0.69294700  0.73156800  1
  C  527  1  0.99482700  0.68488700  0.75120000  1
  C  528  1  0.99482200  0.65590800  0.76044000  1
  C  529  1  0.01336100  0.63437000  0.75010800  1
  C  531  1  0.03070700  0.64258700  0.73072400  1
  C  533  1  0.01589700  0.60311000  0.75816600  1
  C  537  1  0.00928400  0.72388100  0.72302400  1
  C  541  1  0.04678300  0.67643100  0.70075300  1
  C  543  1  0.97539500  0.64829700  0.77816800  1
  C  545  1  0.21464200  0.25269200  0.86546900  1
  C  546  1  0.24621300  0.25469200  0.86448300  1
  C  547  1  0.26345100  0.22854900  0.86461000  1
  C  548  1  0.25072000  0.19974800  0.86551100  1
  C  549  1  0.21908900  0.19773500  0.86524200  1
  C  551  1  0.20188600  0.22388600  0.86539800  1
  C  553  1  0.20237800  0.16904800  0.86587400  1
  C  557  1  0.26274700  0.28346000  0.86429000  1
  C  561  1  0.19705400  0.27680200  0.87222900  1
  C  563  1  0.26842700  0.17551700  0.87191700  1
  C  565  1  0.81235700  0.76100300  0.86610500  1
  C  566  1  0.78078100  0.75896600  0.86518000  1
  C  567  1  0.76355200  0.78511800  0.86513900  1
  C  568  1  0.77631400  0.81391700  0.86578700  1
  C  569  1  0.80793400  0.81593500  0.86540200  1
  C  571  1  0.82513300  0.78978900  0.86572700  1
  C  573  1  0.82463900  0.84463000  0.86576700  1
  C  577  1  0.76423400  0.73020400  0.86520300  1
  C  581  1  0.82995200  0.73690500  0.87288200  1
  C  583  1  0.75861100  0.83819600  0.87208000  1
  C  585  1  0.25368400  0.81104600  0.36636000  1
  C  586  1  0.25175600  0.78472500  0.35282100  1
  C  587  1  0.22513400  0.76749600  0.35285000  1
  C  588  1  0.20028500  0.77474700  0.36660100  1
  C  589  1  0.20259800  0.80072800  0.38068700  1
  C  591  1  0.22884200  0.81837200  0.38000100  1
  C  593  1  0.17960300  0.81041400  0.39754900  1
  C  597  1  0.27670900  0.77393800  0.33843700  1
  C  601  1  0.28024600  0.82629700  0.37103900  1
  C  603  1  0.17454500  0.75674700  0.36637200  1
  C  605  1  0.77170700  0.20397700  0.36626600  1
  C  606  1  0.77038500  0.23548500  0.36492300  1
  C  607  1  0.79695000  0.25273700  0.36518100  1
  C  608  1  0.82533200  0.23998100  0.36671800  1
  C  609  1  0.82666200  0.20838300  0.36680300  1
  C  611  1  0.80010200  0.19114900  0.36654500  1
  C  613  1  0.85543400  0.19269000  0.36823300  1
  C  617  1  0.74204100  0.25191600  0.36407800  1
  C  621  1  0.74706200  0.18643800  0.37267800  1
  C  623  1  0.85018500  0.25792600  0.37219000  1
  C  625  1  0.20974700  0.76725800  0.61587500  1
  C  626  1  0.23664100  0.76896300  0.62872800  1
  C  627  1  0.25378200  0.79565000  0.62868200  1
  C  628  1  0.24591800  0.82084100  0.61553400  1
  C  629  1  0.21933900  0.81876000  0.60210900  1
  C  631  1  0.20178600  0.79244300  0.60285700  1
  C  633  1  0.20887400  0.84207700  0.58582000  1
  C  637  1  0.24814500  0.74367500  0.64238500  1
  C  641  1  0.19451100  0.74070100  0.61103700  1
  C  643  1  0.26397300  0.84659900  0.61562400  1
  C  645  1  0.81677800  0.24672800  0.61559100  1
  C  646  1  0.79031500  0.24469700  0.62896200  1
  C  647  1  0.77319000  0.21799800  0.62883000  1
  C  648  1  0.78068800  0.19313900  0.61517000  1
  C  649  1  0.80687200  0.19553900  0.60130900  1
  C  651  1  0.82441100  0.22185800  0.60209900  1
  C  653  1  0.81688700  0.17256900  0.58454600  1
  C  657  1  0.77924300  0.26962500  0.64323400  1
  C  661  1  0.83195800  0.27338500  0.61099700  1
  C  663  1  0.76273900  0.16732700  0.61525000  1
  C  665  1  0.25979000  0.20806400  0.11574200  1
  C  666  1  0.26178000  0.23963100  0.11673100  1
  C  667  1  0.23563100  0.25685500  0.11653500  1
  C  668  1  0.20684500  0.24410400  0.11553200  1
  C  669  1  0.20483100  0.21247800  0.11578200  1
  C  671  1  0.23098900  0.19529000  0.11572100  1
  C  673  1  0.17614900  0.19576700  0.11502700  1
  C  677  1  0.29054500  0.25616400  0.11699200  1
  C  681  1  0.28390100  0.19048700  0.10899600  1
  C  683  1  0.18265800  0.26180100  0.10904200  1
  C  685  1  0.76823800  0.80479300  0.11588000  1
  C  686  1  0.76625000  0.77322100  0.11686700  1
  C  687  1  0.79242700  0.75602600  0.11683300  1
  C  688  1  0.82120600  0.76882500  0.11601200  1
  C  689  1  0.82318500  0.80044900  0.11629200  1
  C  691  1  0.79701000  0.81760800  0.11607800  1
  C  693  1  0.85185700  0.81718000  0.11569500  1
  C  697  1  0.73750500  0.75664600  0.11697800  1
  C  701  1  0.74409500  0.82233100  0.10911700  1
  C  703  1  0.84544600  0.75112900  0.10962300  1
  C  705  1  0.48441900  0.01727500  0.85492500  1
  C  706  1  0.50449700  0.01280000  0.83625100  1
  C  707  1  0.53102400  0.99697900  0.84007700  1
  C  708  1  0.53883200  0.98494900  0.86190800  1
  C  709  1  0.51922500  0.99060300  0.88078500  1
  C  711  1  0.49239900  0.00595600  0.87685300  1
  C  713  1  0.52470200  0.98070000  0.90501000  1
  C  717  1  0.49868200  0.02296200  0.81214600  1
  C  721  1  0.45481000  0.02473300  0.85110700  1
  C  723  1  0.56356500  0.96615500  0.86369400  1
  C  725  1  0.02353700  0.53725900  0.35422200  1
  C  726  1  0.02196900  0.51608000  0.33598500  1
  C  727  1  0.00654600  0.48889200  0.33964500  1
  C  728  1  0.99229000  0.48158400  0.36083800  1
  C  729  1  0.99514500  0.50236500  0.37937800  1
  C  731  1  0.01010000  0.52981900  0.37558700  1
  C  733  1  0.98261100  0.49752600  0.40297600  1
  C  737  1  0.03466600  0.52127600  0.31249100  1
  C  741  1  0.03075500  0.56693300  0.35006200  1
  C  743  1  0.97396500  0.45606600  0.36211200  1
  C  745  1  0.48343400  0.99784000  0.62911400  1
  C  746  1  0.50343200  0.00198900  0.64794700  1
  C  747  1  0.53063200  0.01739600  0.64424700  1
  C  748  1  0.53904000  0.02925700  0.62242500  1
  C  749  1  0.51942400  0.02399100  0.60341800  1
  C  751  1  0.49199200  0.00897800  0.60720000  1
  C  753  1  0.52552300  0.03397400  0.57926400  1
  C  757  1  0.49691500  0.99198400  0.67203100  1
  C  761  1  0.45361700  0.99061100  0.63266400  1
  C  763  1  0.56446900  0.04764100  0.62077500  1
  C  765  1  0.02417400  0.47713800  0.12849800  1
  C  766  1  0.01895700  0.49677300  0.14734500  1
  C  767  1  0.00320800  0.52334400  0.14350400  1
  C  768  1  0.99195800  0.53155600  0.12151100  1
  C  769  1  0.99831800  0.51236600  0.10252100  1
  C  771  1  0.01368000  0.48554900  0.10642800  1
  C  773  1  0.98915300  0.51830600  0.07818800  1
  C  777  1  0.02824000  0.49044600  0.17159200  1
  C  781  1  0.03169000  0.44750700  0.13212600  1
  C  783  1  0.97312300  0.55621500  0.11963100  1
  C  785  1  0.54300700  0.99575000  0.12668500  1
  C  786  1  0.52246800  0.99947800  0.14515900  1
  C  787  1  0.49609600  0.01558400  0.14137100  1
  C  788  1  0.48886600  0.02864100  0.11977300  1
  C  789  1  0.50895800  0.02376700  0.10106700  1
  C  791  1  0.53562200  0.00812900  0.10498000  1
  C  793  1  0.50417800  0.03480800  0.07705000  1
  C  797  1  0.52765300  0.98822600  0.16905300  1
  C  801  1  0.57253500  0.98810100  0.13071800  1
  C  803  1  0.46425900  0.04765200  0.11811900  1
  C  805  1  0.99644900  0.48164800  0.63376400  1
  C  806  1  0.99493100  0.50785200  0.64747100  1
  C  807  1  0.01328000  0.53255500  0.64193700  1
  C  808  1  0.03283100  0.53332200  0.62267600  1
  C  809  1  0.03243300  0.50786100  0.60792000  1
  C  811  1  0.01505400  0.48251800  0.61405000  1
  C  813  1  0.04982600  0.50545600  0.58606900  1
  C  817  1  0.97540400  0.51099400  0.66815100  1
  C  821  1  0.98469900  0.45452300  0.64173900  1
  C  823  1  0.05240100  0.55790800  0.61978800  1
  C  825  1  0.53918200  0.02245600  0.34602300  1
  C  826  1  0.51352700  0.02315700  0.33164000  1
  C  827  1  0.48867400  0.00500900  0.33715000  1
  C  828  1  0.48723900  0.98653200  0.35701800  1
  C  829  1  0.51213400  0.98765600  0.37231300  1
  C  831  1  0.53763600  0.00482900  0.36626600  1
  C  833  1  0.51368000  0.97130200  0.39469500  1
  C  837  1  0.51112500  0.04159000  0.31028800  1
  C  841  1  0.56656700  0.03391300  0.33838300  1
  C  843  1  0.46261800  0.96711400  0.35998900  1
  C  845  1  0.00295300  0.53598400  0.85309000  1
  C  846  1  0.00758900  0.51608800  0.83430900  1
  C  847  1  0.02353100  0.48959800  0.83803700  1
  C  848  1  0.03556900  0.48171100  0.85984900  1
  C  849  1  0.02980200  0.50115900  0.87880000  1
  C  851  1  0.01424300  0.52789000  0.87499300  1
  C  853  1  0.03982500  0.49561300  0.90298300  1
  C  857  1  0.99749600  0.52208300  0.81021000  1
  C  861  1  0.99538400  0.56560300  0.84939000  1
  C  863  1  0.05457700  0.45713900  0.86155500  1
  C  865  1  0.34129600  0.10065700  0.96625900  1
  C  866  1  0.32228900  0.08445600  0.98144400  1
  C  867  1  0.32609200  0.08774400  0.00564600  1
  C  868  1  0.34812300  0.10665800  0.01518300  1
  C  869  1  0.36673600  0.12333200  0.99998700  1
  C  871  1  0.36300800  0.11993500  0.97579700  1
  C  873  1  0.39034100  0.14439900  0.00788800  1
  C  877  1  0.29836100  0.06385200  0.97345000  1
  C  881  1  0.34105000  0.09656100  0.94246600  1
  C  883  1  0.35231100  0.10658000  0.03897300  1
  C  885  1  0.68601000  0.91278100  0.96652600  1
  C  886  1  0.70507400  0.92877800  0.98179500  1
  C  887  1  0.70132700  0.92519900  0.00597800  1
  C  888  1  0.67930000  0.90618700  0.01540600  1
  C  889  1  0.66063200  0.88971900  0.00011800  1
  C  891  1  0.66430500  0.89340600  0.97595000  1
  C  893  1  0.63702300  0.86858000  0.00789700  1
  C  897  1  0.72899800  0.94945700  0.97391300  1
  C  901  1  0.68626900  0.91708900  0.94276000  1
  C  903  1  0.67511900  0.90602500  0.03919800  1
  C  905  1  0.10197800  0.68084200  0.46687400  1
  C  906  1  0.08606000  0.69974100  0.48195900  1
  C  907  1  0.08975100  0.69652600  0.50617200  1
  C  908  1  0.10878600  0.67517900  0.51576800  1
  C  909  1  0.12516800  0.65668100  0.50065100  1
  C  911  1  0.12139200  0.65984400  0.47646000  1
  C  913  1  0.14628300  0.63377000  0.50864100  1
  C  917  1  0.06534800  0.72290300  0.47383100  1
  C  921  1  0.09783200  0.68067500  0.44311100  1
  C  923  1  0.10897000  0.67132600  0.53957700  1
  C  925  1  0.92397900  0.33333333  0.46671100  1
  C  926  1  0.93947100  0.31428600  0.48194700  1
  C  927  1  0.93569400  0.31773600  0.50612800  1
  C  928  1  0.91697700  0.33947500  0.51557200  1
  C  929  1  0.90102500  0.35815400  0.50030500  1
  C  931  1  0.90488800  0.35476500  0.47613800  1
  C  933  1  0.88026500  0.38148900  0.50811600  1
  C  937  1  0.95982600  0.29068900  0.47402500  1
  C  941  1  0.92844900  0.33333333  0.44297600  1
  C  943  1  0.91668700  0.34341300  0.53938100  1
  C  945  1  0.34075800  0.91868800  0.51513400  1
  C  946  1  0.32151400  0.93425200  0.50008900  1
  C  947  1  0.32474000  0.93064100  0.47587100  1
  C  948  1  0.34642500  0.91202600  0.46623000  1
  C  949  1  0.36527700  0.89599500  0.48131000  1
  C  951  1  0.36210300  0.89968700  0.50550800  1
  C  953  1  0.38856800  0.87533300  0.47326500  1
  C  957  1  0.29798000  0.95451300  0.50826200  1
  C  961  1  0.34089100  0.92281300  0.53889600  1
  C  963  1  0.35018000  0.91191500  0.44241000  1
  C  965  1  0.68698600  0.09400700  0.51498200  1
  C  966  1  0.70615700  0.07825400  0.49999900  1
  C  967  1  0.70288500  0.08164200  0.47576400  1
  C  968  1  0.68122600  0.10021900  0.46604300  1
  C  969  1  0.66244700  0.11643600  0.48105900  1
  C  971  1  0.66566400  0.11296400  0.50527500  1
  C  973  1  0.63919700  0.13709200  0.47293200  1
  C  977  1  0.72966700  0.05801600  0.50825500  1
  C  981  1  0.68690200  0.09008700  0.53876800  1
  C  983  1  0.67744500  0.10016000  0.44222500  1
  C  985  1  0.10796000  0.33552400  0.01505500  1
  C  986  1  0.09206700  0.31621800  0.99990200  1
  C  987  1  0.09531600  0.31999000  0.97569300  1
  C  988  1  0.11388800  0.34228400  0.96611700  1
  C  989  1  0.13024900  0.36120900  0.98128600  1
  C  991  1  0.12689900  0.35750200  0.00548400  1
  C  993  1  0.15093700  0.38512000  0.97334700  1
  C  997  1  0.07182800  0.29200300  0.00793500  1
  C  1001  1  0.10389800  0.33524000  0.03885200  1
  C  1003  1  0.11376600  0.34638100  0.94231100  1
  C  1005  1  0.91983300  0.67785300  0.01543400  1
  C  1006  1  0.93555700  0.69722300  0.00022400  1
  C  1007  1  0.93209200  0.69350800  0.97602700  1
  C  1008  1  0.91345700  0.67122000  0.96651600  1
  C  1009  1  0.89725300  0.65224400  0.98174800  1
  C  1011  1  0.90081700  0.65588900  0.00593300  1
  C  1013  1  0.87651500  0.62833400  0.97388200  1
  C  1017  1  0.95584500  0.72143600  0.00818700  1
  C  1021  1  0.92410500  0.67809300  0.03920800  1
  C  1023  1  0.91344400  0.66711600  0.94270700  1
  N  21  1  0.33454200  0.11785700  0.92869600  1
  N  22  1  0.29465800  0.16875700  0.86448700  1
  N  23  1  0.44356700  0.05098500  0.85206400  1
  N  24  1  0.36730300  0.04378900  0.79747800  1
  N  45  1  0.69281900  0.89590600  0.92889900  1
  N  46  1  0.73234500  0.84488000  0.86468200  1
  N  47  1  0.58693100  0.96902100  0.85103600  1
  N  48  1  0.66216600  0.97123900  0.79785500  1
  N  69  1  0.11867800  0.68949000  0.42953600  1
  N  70  1  0.17469600  0.72830100  0.36892800  1
  N  71  1  0.05703600  0.57869900  0.35104600  1
  N  72  1  0.05050100  0.65499100  0.29661200  1
  N  93  1  0.90754000  0.32544700  0.42910800  1
  N  94  1  0.85560200  0.28488800  0.36547900  1
  N  95  1  0.97881700  0.43255900  0.35018200  1
  N  96  1  0.98138900  0.35721600  0.29723100  1
  N  117  1  0.33207800  0.90195700  0.55246200  1
  N  118  1  0.29243100  0.84652400  0.61310100  1
  N  119  1  0.44192700  0.96427000  0.63190400  1
  N  120  1  0.36154000  0.97367500  0.68383000  1
  N  141  1  0.69540500  0.11115600  0.55225900  1
  N  142  1  0.73425600  0.16726400  0.61288400  1
  N  143  1  0.58793800  0.04343900  0.63291700  1
  N  144  1  0.66760300  0.03867200  0.68333800  1
  N  165  1  0.12521100  0.32867400  0.05258800  1
  N  166  1  0.17574000  0.28789300  0.11665800  1
  N  167  1  0.05789500  0.43619600  0.13086400  1
  N  168  1  0.04860700  0.35521400  0.18264300  1
  N  189  1  0.90293100  0.68467700  0.05307100  1
  N  190  1  0.85240800  0.72504900  0.11725200  1
  N  191  1  0.97620700  0.57980500  0.13199300  1
  N  192  1  0.98154000  0.65938000  0.18256100  1
  N  213  1  0.69542900  0.89723200  0.05310400  1
  N  214  1  0.73663300  0.84786900  0.11745600  1
  N  215  1  0.58380800  0.96186700  0.12953200  1
  N  216  1  0.66000600  0.96858600  0.18431200  1
  N  237  1  0.33206300  0.11545200  0.05290000  1
  N  238  1  0.29126400  0.16491100  0.11731800  1
  N  239  1  0.44072000  0.04464600  0.13056200  1
  N  240  1  0.36558500  0.04263400  0.18385100  1
  N  261  1  0.90718800  0.32294500  0.55308800  1
  N  262  1  0.85923300  0.27860600  0.61675300  1
  N  263  1  0.97468200  0.43252500  0.62946400  1
  N  264  1  0.98151800  0.35585200  0.68387500  1
  N  285  1  0.11874800  0.69170000  0.55325500  1
  N  286  1  0.16732700  0.73533500  0.61698300  1
  N  287  1  0.04990600  0.58203100  0.63146400  1
  N  288  1  0.04614100  0.65695900  0.68457600  1
  N  309  1  0.69772900  0.11016800  0.42856800  1
  N  310  1  0.74048900  0.16031900  0.36476000  1
  N  311  1  0.58810700  0.04434000  0.35093900  1
  N  312  1  0.66877200  0.03465800  0.29904500  1
  N  333  1  0.32989500  0.90179700  0.42880000  1
  N  334  1  0.28524700  0.85361400  0.36532400  1
  N  335  1  0.43813200  0.97046300  0.34895900  1
  N  336  1  0.35852800  0.97745100  0.29889300  1
  N  357  1  0.90436600  0.68732400  0.92882600  1
  N  358  1  0.85553800  0.72953600  0.86458600  1
  N  359  1  0.96921600  0.57700800  0.85072300  1
  N  360  1  0.97890300  0.65799900  0.79899700  1
  N  381  1  0.12284800  0.32618600  0.92842000  1
  N  382  1  0.17145000  0.28421300  0.86397300  1
  N  383  1  0.05138900  0.43341600  0.84935400  1
  N  384  1  0.04702400  0.35374600  0.79883400  1
  O  17  1  0.41192700  0.09367600  0.87720100  1
  O  18  1  0.33130300  0.13614300  0.83430900  1
  O  41  1  0.61614300  0.92272000  0.87759800  1
  O  42  1  0.69593200  0.87781800  0.83449900  1
  O  65  1  0.09821200  0.61154200  0.37719300  1
  O  66  1  0.14310100  0.69173100  0.33597800  1
  O  89  1  0.93333200  0.40194800  0.37714200  1
  O  90  1  0.88842300  0.32137800  0.33479000  1
  O  113  1  0.40971300  0.92215800  0.60590800  1
  O  114  1  0.32837000  0.87876200  0.64621200  1
  O  137  1  0.61807600  0.08908200  0.60552400  1
  O  138  1  0.69847800  0.13480200  0.64596900  1
  O  161  1  0.10117200  0.40552200  0.10553400  1
  O  162  1  0.14268900  0.32376700  0.14705000  1
  O  185  1  0.92915300  0.60834700  0.10564500  1
  O  186  1  0.88593700  0.68939200  0.14759600  1
  O  209  1  0.61555200  0.91922700  0.10434500  1
  O  210  1  0.69713600  0.87738500  0.14741700  1
  O  233  1  0.41140200  0.09094500  0.10397400  1
  O  234  1  0.33059500  0.13506000  0.14723400  1
  O  257  1  0.93014400  0.40151100  0.60570200  1
  O  258  1  0.88876100  0.31792300  0.64760600  1
  O  281  1  0.09568400  0.61268400  0.60509400  1
  O  282  1  0.13804600  0.69569900  0.64769900  1
  O  305  1  0.61884400  0.08900400  0.37491000  1
  O  306  1  0.70207500  0.12991500  0.33418000  1
  O  329  1  0.40829400  0.92404400  0.37531000  1
  O  330  1  0.32399800  0.88339900  0.33427900  1
  O  353  1  0.92602000  0.60798200  0.87603800  1
  O  354  1  0.88569300  0.69088900  0.83437600  1
  O  377  1  0.09835500  0.40504800  0.87598000  1
  O  378  1  0.14104500  0.32204600  0.83398300  1
