# generated using pymatgen
data_H24C39(N4O)2
_symmetry_space_group_name_H-M   'P 1'
_cell_length_a   54.52720000
_cell_length_b   61.63240000
_cell_length_c   61.73880000
_cell_angle_alpha   90.00000000
_cell_angle_beta   89.98040000
_cell_angle_gamma   90.00000000
_symmetry_Int_Tables_number   1
_chemical_formula_structural   H24C39(N4O)2
_chemical_formula_sum   'H1152 C1872 N384 O96'
_cell_volume   207482.00459642
_cell_formula_units_Z   48
loop_
 _symmetry_equiv_pos_site_id
 _symmetry_equiv_pos_as_xyz
  1  'x, y, z'
loop_
 _atom_site_type_symbol
 _atom_site_label
 _atom_site_symmetry_multiplicity
 _atom_site_fract_x
 _atom_site_fract_y
 _atom_site_fract_z
 _atom_site_occupancy
  H  26  1  0.82410500  0.08955300  0.36921600  1
  H  27  1  0.83123800  0.12764800  0.36898800  1
  H  28  1  0.90030000  0.07829900  0.37106500  1
  H  29  1  0.90749500  0.11621800  0.37136200  1
  H  30  1  0.92075400  0.14949600  0.34784500  1
  H  31  1  0.92799500  0.15022100  0.30985000  1
  H  32  1  0.85185700  0.15266700  0.29849000  1
  H  33  1  0.84455000  0.15241300  0.33633200  1
  H  34  1  0.86750900  0.19235800  0.35624600  1
  H  35  1  0.83633100  0.21751400  0.36525200  1
  H  36  1  0.80852200  0.17419900  0.41193400  1
  H  37  1  0.84013200  0.14881700  0.40308200  1
  H  38  1  0.88467000  0.13451300  0.41177000  1
  H  39  1  0.91184300  0.18306100  0.36997500  1
  H  40  1  0.94351400  0.19094800  0.39546900  1
  H  45  1  0.91615900  0.14231100  0.43694900  1
  H  71  1  0.32410200  0.41339800  0.57163000  1
  H  72  1  0.33123600  0.37530600  0.57186800  1
  H  73  1  0.40029300  0.42465300  0.56966200  1
  H  74  1  0.40749000  0.38673500  0.56937100  1
  H  75  1  0.42071300  0.35356200  0.59298900  1
  H  76  1  0.42790000  0.35290700  0.63099600  1
  H  77  1  0.35174900  0.35032400  0.64230500  1
  H  78  1  0.34450300  0.35051500  0.60446200  1
  H  79  1  0.36754100  0.31057500  0.58454900  1
  H  80  1  0.33637100  0.28540700  0.57557700  1
  H  81  1  0.30847100  0.32874100  0.52897100  1
  H  82  1  0.34008000  0.35412900  0.53778300  1
  H  83  1  0.38461000  0.36834400  0.52900600  1
  H  84  1  0.41190600  0.31995000  0.57090200  1
  H  85  1  0.44358600  0.31205500  0.54540000  1
  H  90  1  0.41610900  0.36053800  0.50382000  1
  H  116  1  0.07079900  0.85086900  0.80858800  1
  H  117  1  0.07911300  0.85169800  0.84646000  1
  H  118  1  0.14663100  0.84948600  0.79555600  1
  H  119  1  0.15504000  0.84995400  0.83320500  1
  H  120  1  0.16951700  0.87345000  0.86672100  1
  H  121  1  0.17692200  0.91149400  0.86732600  1
  H  122  1  0.10084400  0.92314600  0.87011600  1
  H  123  1  0.09338200  0.88526200  0.87001500  1
  H  124  1  0.11641300  0.86605400  0.90984200  1
  H  125  1  0.08561000  0.85728900  0.93538700  1
  H  126  1  0.05819800  0.80912600  0.89352700  1
  H  127  1  0.08941700  0.81777300  0.86773800  1
  H  128  1  0.13363100  0.80970200  0.85180200  1
  H  129  1  0.16058900  0.85134800  0.90051800  1
  H  130  1  0.19255500  0.82598300  0.90805100  1
  H  135  1  0.16545500  0.78469100  0.85919600  1
  H  161  1  0.57100100  0.65176100  0.13234500  1
  H  162  1  0.57920400  0.65101800  0.09444500  1
  H  163  1  0.64686200  0.65375300  0.14513500  1
  H  164  1  0.65515300  0.65333200  0.10746800  1
  H  165  1  0.66945800  0.62956300  0.07422100  1
  H  166  1  0.67684900  0.59151300  0.07360200  1
  H  167  1  0.60079000  0.57989600  0.07043700  1
  H  168  1  0.59334200  0.61778000  0.07056000  1
  H  169  1  0.61655100  0.63721000  0.03085400  1
  H  170  1  0.58570700  0.64596900  0.00535000  1
  H  171  1  0.55788100  0.69368400  0.04752700  1
  H  172  1  0.58914000  0.68505500  0.07326700  1
  H  173  1  0.63340100  0.69341900  0.08875100  1
  H  174  1  0.66076000  0.65157300  0.04036100  1
  H  175  1  0.69271400  0.67695100  0.03283600  1
  H  180  1  0.66520300  0.71846500  0.08134400  1
  H  206  1  0.67773600  0.41165500  0.36901400  1
  H  207  1  0.67039200  0.37361200  0.36813800  1
  H  208  1  0.60160900  0.42322100  0.37099200  1
  H  209  1  0.59419300  0.38533100  0.37060700  1
  H  210  1  0.58084200  0.35246200  0.34604600  1
  H  211  1  0.57384000  0.35230500  0.30800100  1
  H  212  1  0.65007000  0.35050700  0.29693800  1
  H  213  1  0.65713400  0.35015200  0.33480500  1
  H  214  1  0.63435800  0.30967600  0.35302900  1
  H  215  1  0.66593700  0.28454200  0.36086500  1
  H  216  1  0.69289000  0.32609600  0.40957500  1
  H  217  1  0.66115600  0.35155000  0.40163700  1
  H  218  1  0.61704400  0.36551200  0.41068500  1
  H  219  1  0.58961500  0.31845400  0.36742200  1
  H  220  1  0.55805100  0.30967500  0.39285200  1
  H  225  1  0.58594600  0.35657400  0.43588300  1
  H  251  1  0.17767600  0.09133700  0.57199000  1
  H  252  1  0.17032200  0.12937900  0.57279900  1
  H  253  1  0.10156200  0.07977300  0.56961600  1
  H  254  1  0.09414700  0.11766100  0.56994400  1
  H  255  1  0.08087700  0.15028300  0.59477800  1
  H  256  1  0.07394400  0.15035900  0.63284100  1
  H  257  1  0.15017900  0.15263900  0.64374300  1
  H  258  1  0.15716700  0.15307400  0.60586600  1
  H  259  1  0.13410100  0.19340100  0.58749600  1
  H  260  1  0.16564600  0.21857500  0.57963900  1
  H  261  1  0.19300100  0.17681800  0.53126100  1
  H  262  1  0.16129200  0.15134200  0.53920500  1
  H  263  1  0.11714800  0.13768000  0.52999100  1
  H  264  1  0.08935200  0.18437200  0.57347900  1
  H  265  1  0.05778100  0.19313500  0.54807200  1
  H  270  1  0.08604200  0.14660800  0.50481200  1
  H  296  1  0.43072400  0.65189200  0.81045100  1
  H  297  1  0.42211200  0.65045200  0.84824800  1
  H  298  1  0.35500100  0.65349200  0.79701100  1
  H  299  1  0.34628600  0.65240700  0.83462000  1
  H  300  1  0.33172800  0.62775100  0.86765700  1
  H  301  1  0.32463200  0.58964100  0.86769800  1
  H  302  1  0.40081100  0.57843800  0.87008000  1
  H  303  1  0.40796300  0.61635900  0.87058400  1
  H  304  1  0.38500800  0.63393300  0.91080800  1
  H  305  1  0.41621600  0.64161900  0.93629700  1
  H  306  1  0.44277700  0.69165200  0.89609700  1
  H  307  1  0.41143500  0.68385300  0.87028300  1
  H  308  1  0.36761800  0.69228500  0.85476000  1
  H  309  1  0.34038900  0.64907600  0.90195100  1
  H  310  1  0.30851900  0.67434800  0.91040500  1
  H  315  1  0.33616200  0.71729800  0.86332300  1
  H  341  1  0.93074200  0.85112400  0.13046100  1
  H  342  1  0.92213500  0.85253800  0.09266500  1
  H  343  1  0.85501700  0.84950400  0.14393600  1
  H  344  1  0.84630900  0.85056500  0.10633300  1
  H  345  1  0.83173800  0.87520500  0.07329600  1
  H  346  1  0.82462800  0.91331200  0.07325500  1
  H  347  1  0.90080500  0.92453800  0.07083800  1
  H  348  1  0.90797200  0.88661800  0.07033000  1
  H  349  1  0.88503100  0.86902700  0.03011900  1
  H  350  1  0.91622800  0.86132300  0.00461000  1
  H  351  1  0.94280800  0.81131800  0.04481900  1
  H  352  1  0.91147300  0.81912900  0.07065400  1
  H  353  1  0.86763400  0.81067900  0.08619500  1
  H  354  1  0.84042000  0.85387500  0.03900600  1
  H  355  1  0.80855900  0.82860100  0.03056600  1
  H  360  1  0.83619300  0.78566000  0.07764100  1
  H  386  1  0.18108700  0.91287500  0.56994800  1
  H  387  1  0.17273700  0.87494200  0.57079900  1
  H  388  1  0.10525800  0.92595600  0.56855400  1
  H  389  1  0.09681300  0.88824400  0.56906200  1
  H  390  1  0.08231300  0.85454600  0.59239800  1
  H  391  1  0.07485400  0.85373900  0.63036400  1
  H  392  1  0.15091500  0.85094400  0.64205300  1
  H  393  1  0.15843700  0.85124900  0.60423500  1
  H  394  1  0.13566200  0.81146900  0.58493500  1
  H  395  1  0.16655000  0.78602200  0.57598600  1
  H  396  1  0.19352200  0.82818400  0.52789000  1
  H  397  1  0.16223400  0.85387500  0.53672200  1
  H  398  1  0.11807400  0.86980000  0.52888600  1
  H  399  1  0.09142600  0.82068700  0.57027800  1
  H  400  1  0.05954200  0.81304100  0.54491800  1
  H  405  1  0.08634100  0.86228200  0.50387400  1
  H  431  1  0.68112600  0.59013600  0.37095300  1
  H  432  1  0.67277000  0.62806700  0.37010500  1
  H  433  1  0.60529900  0.57704900  0.37245800  1
  H  434  1  0.59685000  0.61475900  0.37195200  1
  H  435  1  0.58238200  0.64834900  0.34853000  1
  H  436  1  0.57497300  0.64908400  0.31055500  1
  H  437  1  0.65104500  0.65202500  0.29890900  1
  H  438  1  0.65850900  0.65178400  0.33672700  1
  H  439  1  0.63565800  0.69155700  0.35602800  1
  H  440  1  0.66652900  0.71702000  0.36495800  1
  H  441  1  0.69358500  0.67483300  0.41298300  1
  H  442  1  0.66230600  0.64913600  0.40417900  1
  H  443  1  0.61815000  0.63329000  0.41209200  1
  H  444  1  0.59140500  0.68227300  0.37060800  1
  H  445  1  0.55951100  0.68993100  0.39597400  1
  H  450  1  0.58640400  0.64082200  0.43711200  1
  H  476  1  0.93106500  0.15085800  0.13161100  1
  H  477  1  0.92256300  0.14993200  0.09377200  1
  H  478  1  0.85531200  0.15296400  0.14491500  1
  H  479  1  0.84672200  0.15241200  0.10729500  1
  H  480  1  0.83129500  0.12984000  0.07321700  1
  H  481  1  0.82261300  0.09197700  0.07204800  1
  H  482  1  0.89828900  0.07841400  0.06950400  1
  H  483  1  0.90706200  0.11607700  0.07032400  1
  H  484  1  0.88550400  0.13549900  0.03074600  1
  H  485  1  0.91652900  0.14393400  0.00530900  1
  H  486  1  0.94368200  0.19252400  0.04680400  1
  H  487  1  0.91226700  0.18417700  0.07250000  1
  H  488  1  0.86811800  0.19235800  0.08912900  1
  H  489  1  0.84172400  0.15169900  0.03935300  1
  H  490  1  0.81009000  0.17736300  0.03180400  1
  H  495  1  0.83658900  0.21766300  0.08173500  1
  H  521  1  0.43087500  0.35245600  0.80921800  1
  H  522  1  0.42248600  0.35330900  0.84708700  1
  H  523  1  0.35509800  0.34977500  0.79616200  1
  H  524  1  0.34662700  0.35029500  0.83379900  1
  H  525  1  0.33135500  0.37313200  0.86763300  1
  H  526  1  0.32267700  0.41099800  0.86880300  1
  H  527  1  0.39834000  0.42454100  0.87165400  1
  H  528  1  0.40711200  0.38687900  0.87083000  1
  H  529  1  0.38541300  0.36727600  0.91031100  1
  H  530  1  0.41648700  0.35886300  0.93570100  1
  H  531  1  0.44399600  0.31065300  0.89392900  1
  H  532  1  0.41253100  0.31896500  0.86828700  1
  H  533  1  0.36833900  0.31051000  0.85208200  1
  H  534  1  0.34160200  0.35137500  0.90156600  1
  H  535  1  0.30997200  0.32571000  0.90912200  1
  H  540  1  0.33682400  0.28518400  0.85950300  1
  H  566  1  0.32199100  0.59188800  0.57030700  1
  H  567  1  0.33057400  0.62975500  0.57175800  1
  H  568  1  0.39773300  0.57845400  0.56873000  1
  H  569  1  0.40642100  0.61612400  0.56984900  1
  H  570  1  0.42105000  0.64945500  0.59417600  1
  H  571  1  0.42832200  0.64971700  0.63218000  1
  H  572  1  0.35218200  0.65188900  0.64366400  1
  H  573  1  0.34485100  0.65215800  0.60582600  1
  H  574  1  0.36733700  0.69240800  0.58813200  1
  H  575  1  0.33602500  0.71779800  0.58029000  1
  H  576  1  0.31001400  0.67736900  0.53025200  1
  H  577  1  0.34144000  0.65164400  0.53822100  1
  H  578  1  0.38514900  0.63601300  0.53000900  1
  H  579  1  0.41200900  0.68375900  0.57278700  1
  H  580  1  0.44374900  0.69229000  0.54744700  1
  H  585  1  0.41645400  0.64465900  0.50492400  1
  H  611  1  0.82205100  0.91107300  0.37048000  1
  H  612  1  0.83063800  0.87320500  0.36907600  1
  H  613  1  0.89779000  0.92449900  0.37223400  1
  H  614  1  0.90647400  0.88682700  0.37116200  1
  H  615  1  0.92105700  0.85360400  0.34672900  1
  H  616  1  0.92830500  0.85334000  0.30871800  1
  H  617  1  0.85216700  0.85090900  0.29732400  1
  H  618  1  0.84486400  0.85064200  0.33516900  1
  H  619  1  0.86752000  0.81047900  0.35298700  1
  H  620  1  0.83623900  0.78506900  0.36087700  1
  H  621  1  0.80998000  0.82566100  0.41069800  1
  H  622  1  0.84138500  0.85139600  0.40269200  1
  H  623  1  0.88510800  0.86686500  0.41097200  1
  H  624  1  0.91218100  0.81927700  0.36811000  1
  H  625  1  0.94391500  0.81077500  0.39344600  1
  H  630  1  0.91640600  0.85824500  0.43605500  1
  H  656  1  0.57233400  0.35244800  0.12975800  1
  H  657  1  0.58110800  0.35396300  0.09198900  1
  H  658  1  0.64798300  0.34999600  0.14340900  1
  H  659  1  0.65685100  0.35114200  0.10582800  1
  H  660  1  0.67230600  0.37494700  0.07228000  1
  H  661  1  0.68063400  0.41289500  0.07169200  1
  H  662  1  0.60483000  0.42592700  0.06935400  1
  H  663  1  0.59641700  0.38821100  0.06959400  1
  H  664  1  0.61798500  0.37028600  0.02970100  1
  H  665  1  0.58649800  0.36290600  0.00438800  1
  H  666  1  0.56010000  0.31265400  0.04439600  1
  H  667  1  0.59169100  0.32016900  0.07004800  1
  H  668  1  0.63541600  0.31156800  0.08614100  1
  H  669  1  0.66227100  0.35381400  0.03792500  1
  H  670  1  0.69380000  0.32820600  0.02951000  1
  H  675  1  0.66655700  0.28622800  0.07763800  1
  H  701  1  0.07253600  0.15014000  0.81107100  1
  H  702  1  0.08120700  0.14876200  0.84886300  1
  H  703  1  0.14820500  0.15312300  0.79756500  1
  H  704  1  0.15696200  0.15207500  0.83515000  1
  H  705  1  0.17230600  0.12808800  0.86848400  1
  H  706  1  0.18064900  0.09014200  0.86907800  1
  H  707  1  0.10486200  0.07709500  0.87178600  1
  H  708  1  0.09643700  0.11480800  0.87153800  1
  H  709  1  0.11812900  0.13295800  0.91131500  1
  H  710  1  0.08663100  0.14036100  0.93663400  1
  H  711  1  0.05987400  0.19021500  0.89633400  1
  H  712  1  0.09148100  0.18268800  0.87068600  1
  H  713  1  0.13526900  0.19152400  0.85492100  1
  H  714  1  0.16241300  0.14916200  0.90289000  1
  H  715  1  0.19391600  0.17479100  0.91127600  1
  H  720  1  0.16638000  0.21690000  0.86340700  1
  H  727  1  0.75582400  0.24372400  0.35413100  1
  H  730  1  0.74775800  0.27773500  0.43988500  1
  H  732  1  0.71819300  0.29321100  0.41535000  1
  H  734  1  0.78920000  0.21905200  0.36398600  1
  H  741  1  0.25624800  0.25870200  0.58675400  1
  H  744  1  0.24622900  0.22583900  0.50038700  1
  H  746  1  0.21845800  0.20951800  0.52555200  1
  H  748  1  0.28933200  0.28368800  0.57689500  1
  H  755  1  0.00620700  0.86781800  0.96339700  1
  H  758  1  0.99538700  0.78108400  0.99563900  1
  H  760  1  0.96825400  0.80628400  0.01220700  1
  H  762  1  0.03891200  0.85794300  0.93803700  1
  H  769  1  0.50621900  0.63516400  0.97746100  1
  H  772  1  0.49528800  0.72191400  0.94530800  1
  H  774  1  0.46815300  0.69671600  0.92874800  1
  H  776  1  0.53896700  0.64505800  0.00275900  1
  H  783  1  0.24661800  0.75916100  0.58638600  1
  H  786  1  0.25490900  0.72552700  0.50050600  1
  H  788  1  0.28463600  0.71013300  0.52494800  1
  H  790  1  0.21351300  0.78412000  0.57654000  1
  H  797  1  0.74618800  0.74438800  0.35450400  1
  H  800  1  0.75643100  0.77686200  0.44099000  1
  H  802  1  0.78440200  0.79309600  0.41592600  1
  H  804  1  0.71339800  0.71910100  0.36435400  1
  H  811  1  0.99569700  0.13348900  0.97696900  1
  H  814  1  0.00757700  0.22046500  0.94564300  1
  H  816  1  0.03436500  0.19517000  0.92884500  1
  H  818  1  0.96300700  0.14336400  0.00237400  1
  H  825  1  0.49573900  0.36954100  0.96393400  1
  H  828  1  0.50766000  0.28254900  0.99516900  1
  H  830  1  0.53459100  0.30779100  0.01187900  1
  H  832  1  0.46299100  0.35965500  0.93860200  1
  H  839  1  0.25576400  0.74385100  0.85224900  1
  H  842  1  0.24752400  0.77761800  0.93806100  1
  H  844  1  0.21782900  0.79305400  0.91359100  1
  H  846  1  0.28931600  0.71931600  0.86210900  1
  H  853  1  0.75617200  0.75862800  0.08868900  1
  H  856  1  0.74616800  0.72596100  0.00228200  1
  H  858  1  0.71806500  0.70977300  0.02730700  1
  H  860  1  0.78944200  0.78347400  0.07884400  1
  H  867  1  0.50626100  0.36764300  0.46315400  1
  H  870  1  0.49571000  0.28103100  0.49588200  1
  H  872  1  0.46901300  0.30640200  0.51266900  1
  H  874  1  0.53900600  0.35776000  0.43787900  1
  H  881  1  0.00631300  0.13529700  0.47757800  1
  H  884  1  0.99562900  0.22194200  0.44499100  1
  H  886  1  0.96888300  0.19659300  0.42823400  1
  H  888  1  0.03908900  0.14519600  0.50280500  1
  H  895  1  0.74647300  0.25886700  0.08823500  1
  H  898  1  0.75524600  0.22576400  0.00220500  1
  H  900  1  0.78485500  0.21021200  0.02667200  1
  H  902  1  0.71323400  0.28373900  0.07837100  1
  H  909  1  0.24592300  0.24478000  0.85265500  1
  H  912  1  0.25673200  0.27661300  0.93930100  1
  H  914  1  0.28463800  0.29298700  0.91424500  1
  H  916  1  0.21296700  0.21960500  0.86252300  1
  H  923  1  0.49606600  0.63388200  0.47757100  1
  H  926  1  0.50686600  0.72056900  0.44515800  1
  H  928  1  0.53392000  0.69531600  0.42859000  1
  H  930  1  0.46321400  0.64375200  0.50276600  1
  H  937  1  0.99600700  0.86915300  0.46343500  1
  H  940  1  0.00690600  0.78243900  0.49573200  1
  H  942  1  0.03399200  0.80767600  0.51228000  1
  H  944  1  0.96315500  0.85927000  0.43825500  1
  H  951  1  0.87513500  0.11834400  0.21297100  1
  H  954  1  0.93174200  0.18981100  0.24609400  1
  H  956  1  0.92681700  0.15942800  0.27096900  1
  H  958  1  0.87537200  0.13178300  0.17506900  1
  H  965  1  0.37247400  0.38320900  0.72779400  1
  H  968  1  0.43029300  0.31242000  0.69560100  1
  H  970  1  0.42667100  0.34392300  0.66996300  1
  H  972  1  0.37461500  0.37088600  0.76590600  1
  H  979  1  0.12249700  0.00896400  0.83745400  1
  H  982  1  0.17918400  0.97587900  0.90844900  1
  H  984  1  0.17585100  0.95049700  0.87674700  1
  H  986  1  0.12443900  0.04699100  0.85028800  1
  H  993  1  0.62244700  0.49411300  0.10343900  1
  H  996  1  0.67918700  0.52709800  0.03239600  1
  H  998  1  0.67581800  0.55252900  0.06409200  1
  H  1000  1  0.62446200  0.45605700  0.09071000  1
  H  1007  1  0.62690700  0.38497600  0.21136500  1
  H  1010  1  0.57145000  0.31265900  0.24419200  1
  H  1012  1  0.57544100  0.34315500  0.26905100  1
  H  1014  1  0.62747000  0.37135700  0.17350200  1
  H  1021  1  0.12964400  0.11934600  0.72928800  1
  H  1024  1  0.07281800  0.19091300  0.69746800  1
  H  1026  1  0.07555200  0.15930800  0.67187200  1
  H  1028  1  0.12827900  0.13189000  0.76738500  1
  H  1035  1  0.37919000  0.49254100  0.83691300  1
  H  1038  1  0.32397200  0.52527600  0.90900300  1
  H  1040  1  0.32615600  0.55059300  0.87715700  1
  H  1042  1  0.37818900  0.45453700  0.84999800  1
  H  1049  1  0.87908900  0.01040700  0.10408000  1
  H  1052  1  0.82397200  0.97770300  0.03195200  1
  H  1054  1  0.82613800  0.95235800  0.06380200  1
  H  1056  1  0.87804600  0.04842500  0.09105600  1
  H  1063  1  0.12676500  0.88473900  0.72784600  1
  H  1066  1  0.07106600  0.81322500  0.69363800  1
  H  1068  1  0.07584000  0.84393400  0.66914100  1
  H  1070  1  0.12638900  0.87092200  0.76559500  1
  H  1077  1  0.62948000  0.61964800  0.21315700  1
  H  1080  1  0.57253200  0.69048600  0.24643400  1
  H  1082  1  0.57599800  0.65865700  0.27168600  1
  H  1084  1  0.62717800  0.63236900  0.17519300  1
  H  1091  1  0.37636800  0.61782300  0.72944900  1
  H  1094  1  0.43238400  0.68960100  0.69540900  1
  H  1096  1  0.42705600  0.65921000  0.67102400  1
  H  1098  1  0.37576100  0.63190900  0.76713500  1
  H  1105  1  0.87630300  0.88512500  0.21151300  1
  H  1108  1  0.93241600  0.81339200  0.24548100  1
  H  1110  1  0.92705200  0.84379500  0.26988900  1
  H  1112  1  0.87573100  0.87106000  0.17381700  1
  H  1119  1  0.62353200  0.50890600  0.33861500  1
  H  1122  1  0.67866300  0.47630500  0.41047500  1
  H  1124  1  0.67647800  0.45060400  0.37859800  1
  H  1126  1  0.62542700  0.54698700  0.35123000  1
  H  1133  1  0.12357300  0.99410800  0.60238900  1
  H  1136  1  0.17933500  0.02697200  0.53069800  1
  H  1138  1  0.17651400  0.05239900  0.56247000  1
  H  1140  1  0.12540300  0.95602600  0.58974700  1
  H  1147  1  0.87844900  0.99257400  0.33810000  1
  H  1150  1  0.82353000  0.02512900  0.41045400  1
  H  1152  1  0.82565500  0.05055300  0.37869900  1
  H  1154  1  0.87729500  0.95451700  0.35093100  1
  H  1161  1  0.37842400  0.51035800  0.60270900  1
  H  1164  1  0.32346000  0.47785200  0.53039200  1
  H  1166  1  0.32563400  0.45239300  0.56213800  1
  H  1168  1  0.37718000  0.54843400  0.58997000  1
  H  1194  1  0.13587600  0.08955300  0.36921600  1
  H  1195  1  0.14300900  0.12764800  0.36898800  1
  H  1196  1  0.21207100  0.07829900  0.37106500  1
  H  1197  1  0.21926600  0.11621800  0.37136200  1
  H  1198  1  0.23252500  0.14949600  0.34784500  1
  H  1199  1  0.23976600  0.15022100  0.30985000  1
  H  1200  1  0.16362800  0.15266700  0.29849000  1
  H  1201  1  0.15632100  0.15241300  0.33633200  1
  H  1202  1  0.17928000  0.19235800  0.35624600  1
  H  1203  1  0.14810200  0.21751400  0.36525200  1
  H  1204  1  0.12029300  0.17419900  0.41193400  1
  H  1205  1  0.15190300  0.14881700  0.40308200  1
  H  1206  1  0.19644100  0.13451300  0.41177000  1
  H  1207  1  0.22361400  0.18306100  0.36997500  1
  H  1208  1  0.25528500  0.19094800  0.39546900  1
  H  1213  1  0.22793000  0.14231100  0.43694900  1
  H  1239  1  0.63587300  0.41339800  0.57163000  1
  H  1240  1  0.64300700  0.37530600  0.57186800  1
  H  1241  1  0.71206400  0.42465300  0.56966200  1
  H  1242  1  0.71926100  0.38673500  0.56937100  1
  H  1243  1  0.73248400  0.35356200  0.59298900  1
  H  1244  1  0.73967100  0.35290700  0.63099600  1
  H  1245  1  0.66352000  0.35032400  0.64230500  1
  H  1246  1  0.65627400  0.35051500  0.60446200  1
  H  1247  1  0.67931200  0.31057500  0.58454900  1
  H  1248  1  0.64814200  0.28540700  0.57557700  1
  H  1249  1  0.62024200  0.32874100  0.52897100  1
  H  1250  1  0.65185100  0.35412900  0.53778300  1
  H  1251  1  0.69638100  0.36834400  0.52900600  1
  H  1252  1  0.72367700  0.31995000  0.57090200  1
  H  1253  1  0.75535700  0.31205500  0.54540000  1
  H  1258  1  0.72788000  0.36053800  0.50382000  1
  H  1284  1  0.38257000  0.85086900  0.80858800  1
  H  1285  1  0.39088400  0.85169800  0.84646000  1
  H  1286  1  0.45840200  0.84948600  0.79555600  1
  H  1287  1  0.46681100  0.84995400  0.83320500  1
  H  1288  1  0.48128800  0.87345000  0.86672100  1
  H  1289  1  0.48869300  0.91149400  0.86732600  1
  H  1290  1  0.41261500  0.92314600  0.87011600  1
  H  1291  1  0.40515300  0.88526200  0.87001500  1
  H  1292  1  0.42818400  0.86605400  0.90984200  1
  H  1293  1  0.39738100  0.85728900  0.93538700  1
  H  1294  1  0.36996900  0.80912600  0.89352700  1
  H  1295  1  0.40118800  0.81777300  0.86773800  1
  H  1296  1  0.44540200  0.80970200  0.85180200  1
  H  1297  1  0.47236000  0.85134800  0.90051800  1
  H  1298  1  0.50432600  0.82598300  0.90805100  1
  H  1303  1  0.47722600  0.78469100  0.85919600  1
  H  1329  1  0.88277200  0.65176100  0.13234500  1
  H  1330  1  0.89097500  0.65101800  0.09444500  1
  H  1331  1  0.95863300  0.65375300  0.14513500  1
  H  1332  1  0.96692400  0.65333200  0.10746800  1
  H  1333  1  0.98122900  0.62956300  0.07422100  1
  H  1334  1  0.98862000  0.59151300  0.07360200  1
  H  1335  1  0.91256100  0.57989600  0.07043700  1
  H  1336  1  0.90511300  0.61778000  0.07056000  1
  H  1337  1  0.92832200  0.63721000  0.03085400  1
  H  1338  1  0.89747800  0.64596900  0.00535000  1
  H  1339  1  0.86965200  0.69368400  0.04752700  1
  H  1340  1  0.90091100  0.68505500  0.07326700  1
  H  1341  1  0.94517200  0.69341900  0.08875100  1
  H  1342  1  0.97253100  0.65157300  0.04036100  1
  H  1343  1  0.00448501  0.67695100  0.03283600  1
  H  1348  1  0.97697400  0.71846500  0.08134400  1
  H  1374  1  0.98950700  0.41165500  0.36901400  1
  H  1375  1  0.98216300  0.37361200  0.36813800  1
  H  1376  1  0.91338000  0.42322100  0.37099200  1
  H  1377  1  0.90596400  0.38533100  0.37060700  1
  H  1378  1  0.89261300  0.35246200  0.34604600  1
  H  1379  1  0.88561100  0.35230500  0.30800100  1
  H  1380  1  0.96184100  0.35050700  0.29693800  1
  H  1381  1  0.96890500  0.35015200  0.33480500  1
  H  1382  1  0.94612900  0.30967600  0.35302900  1
  H  1383  1  0.97770800  0.28454200  0.36086500  1
  H  1384  1  0.00466101  0.32609600  0.40957500  1
  H  1385  1  0.97292700  0.35155000  0.40163700  1
  H  1386  1  0.92881500  0.36551200  0.41068500  1
  H  1387  1  0.90138600  0.31845400  0.36742200  1
  H  1388  1  0.86982200  0.30967500  0.39285200  1
  H  1393  1  0.89771700  0.35657400  0.43588300  1
  H  1419  1  0.48944700  0.09133700  0.57199000  1
  H  1420  1  0.48209300  0.12937900  0.57279900  1
  H  1421  1  0.41333300  0.07977300  0.56961600  1
  H  1422  1  0.40591800  0.11766100  0.56994400  1
  H  1423  1  0.39264800  0.15028300  0.59477800  1
  H  1424  1  0.38571500  0.15035900  0.63284100  1
  H  1425  1  0.46195000  0.15263900  0.64374300  1
  H  1426  1  0.46893800  0.15307400  0.60586600  1
  H  1427  1  0.44587200  0.19340100  0.58749600  1
  H  1428  1  0.47741700  0.21857500  0.57963900  1
  H  1429  1  0.50477200  0.17681800  0.53126100  1
  H  1430  1  0.47306300  0.15134200  0.53920500  1
  H  1431  1  0.42891900  0.13768000  0.52999100  1
  H  1432  1  0.40112300  0.18437200  0.57347900  1
  H  1433  1  0.36955200  0.19313500  0.54807200  1
  H  1438  1  0.39781300  0.14660800  0.50481200  1
  H  1464  1  0.74249500  0.65189200  0.81045100  1
  H  1465  1  0.73388300  0.65045200  0.84824800  1
  H  1466  1  0.66677200  0.65349200  0.79701100  1
  H  1467  1  0.65805700  0.65240700  0.83462000  1
  H  1468  1  0.64349900  0.62775100  0.86765700  1
  H  1469  1  0.63640300  0.58964100  0.86769800  1
  H  1470  1  0.71258200  0.57843800  0.87008000  1
  H  1471  1  0.71973400  0.61635900  0.87058400  1
  H  1472  1  0.69677900  0.63393300  0.91080800  1
  H  1473  1  0.72798700  0.64161900  0.93629700  1
  H  1474  1  0.75454800  0.69165200  0.89609700  1
  H  1475  1  0.72320600  0.68385300  0.87028300  1
  H  1476  1  0.67938900  0.69228500  0.85476000  1
  H  1477  1  0.65216000  0.64907600  0.90195100  1
  H  1478  1  0.62029000  0.67434800  0.91040500  1
  H  1483  1  0.64793300  0.71729800  0.86332300  1
  H  1509  1  0.24251300  0.85112400  0.13046100  1
  H  1510  1  0.23390600  0.85253800  0.09266500  1
  H  1511  1  0.16678800  0.84950400  0.14393600  1
  H  1512  1  0.15808000  0.85056500  0.10633300  1
  H  1513  1  0.14350900  0.87520500  0.07329600  1
  H  1514  1  0.13639900  0.91331200  0.07325500  1
  H  1515  1  0.21257600  0.92453800  0.07083800  1
  H  1516  1  0.21974300  0.88661800  0.07033000  1
  H  1517  1  0.19680200  0.86902700  0.03011900  1
  H  1518  1  0.22799900  0.86132300  0.00461000  1
  H  1519  1  0.25457900  0.81131800  0.04481900  1
  H  1520  1  0.22324400  0.81912900  0.07065400  1
  H  1521  1  0.17940500  0.81067900  0.08619500  1
  H  1522  1  0.15219100  0.85387500  0.03900600  1
  H  1523  1  0.12033000  0.82860100  0.03056600  1
  H  1528  1  0.14796400  0.78566000  0.07764100  1
  H  1554  1  0.49285800  0.91287500  0.56994800  1
  H  1555  1  0.48450800  0.87494200  0.57079900  1
  H  1556  1  0.41702900  0.92595600  0.56855400  1
  H  1557  1  0.40858400  0.88824400  0.56906200  1
  H  1558  1  0.39408400  0.85454600  0.59239800  1
  H  1559  1  0.38662500  0.85373900  0.63036400  1
  H  1560  1  0.46268600  0.85094400  0.64205300  1
  H  1561  1  0.47020800  0.85124900  0.60423500  1
  H  1562  1  0.44743300  0.81146900  0.58493500  1
  H  1563  1  0.47832100  0.78602200  0.57598600  1
  H  1564  1  0.50529300  0.82818400  0.52789000  1
  H  1565  1  0.47400500  0.85387500  0.53672200  1
  H  1566  1  0.42984500  0.86980000  0.52888600  1
  H  1567  1  0.40319700  0.82068700  0.57027800  1
  H  1568  1  0.37131300  0.81304100  0.54491800  1
  H  1573  1  0.39811200  0.86228200  0.50387400  1
  H  1599  1  0.99289700  0.59013600  0.37095300  1
  H  1600  1  0.98454100  0.62806700  0.37010500  1
  H  1601  1  0.91707000  0.57704900  0.37245800  1
  H  1602  1  0.90862100  0.61475900  0.37195200  1
  H  1603  1  0.89415300  0.64834900  0.34853000  1
  H  1604  1  0.88674400  0.64908400  0.31055500  1
  H  1605  1  0.96281600  0.65202500  0.29890900  1
  H  1606  1  0.97028000  0.65178400  0.33672700  1
  H  1607  1  0.94742900  0.69155700  0.35602800  1
  H  1608  1  0.97830000  0.71702000  0.36495800  1
  H  1609  1  0.00535601  0.67483300  0.41298300  1
  H  1610  1  0.97407700  0.64913600  0.40417900  1
  H  1611  1  0.92992100  0.63329000  0.41209200  1
  H  1612  1  0.90317600  0.68227300  0.37060800  1
  H  1613  1  0.87128200  0.68993100  0.39597400  1
  H  1618  1  0.89817500  0.64082200  0.43711200  1
  H  1644  1  0.24283600  0.15085800  0.13161100  1
  H  1645  1  0.23433400  0.14993200  0.09377200  1
  H  1646  1  0.16708300  0.15296400  0.14491500  1
  H  1647  1  0.15849300  0.15241200  0.10729500  1
  H  1648  1  0.14306600  0.12984000  0.07321700  1
  H  1649  1  0.13438400  0.09197700  0.07204800  1
  H  1650  1  0.21006000  0.07841400  0.06950400  1
  H  1651  1  0.21883300  0.11607700  0.07032400  1
  H  1652  1  0.19727500  0.13549900  0.03074600  1
  H  1653  1  0.22830000  0.14393400  0.00530900  1
  H  1654  1  0.25545300  0.19252400  0.04680400  1
  H  1655  1  0.22403800  0.18417700  0.07250000  1
  H  1656  1  0.17988900  0.19235800  0.08912900  1
  H  1657  1  0.15349500  0.15169900  0.03935300  1
  H  1658  1  0.12186100  0.17736300  0.03180400  1
  H  1663  1  0.14836000  0.21766300  0.08173500  1
  H  1689  1  0.74264600  0.35245600  0.80921800  1
  H  1690  1  0.73425700  0.35330900  0.84708700  1
  H  1691  1  0.66686900  0.34977500  0.79616200  1
  H  1692  1  0.65839800  0.35029500  0.83379900  1
  H  1693  1  0.64312600  0.37313200  0.86763300  1
  H  1694  1  0.63444800  0.41099800  0.86880300  1
  H  1695  1  0.71011100  0.42454100  0.87165400  1
  H  1696  1  0.71888300  0.38687900  0.87083000  1
  H  1697  1  0.69718400  0.36727600  0.91031100  1
  H  1698  1  0.72825800  0.35886300  0.93570100  1
  H  1699  1  0.75576700  0.31065300  0.89392900  1
  H  1700  1  0.72430200  0.31896500  0.86828700  1
  H  1701  1  0.68011000  0.31051000  0.85208200  1
  H  1702  1  0.65337300  0.35137500  0.90156600  1
  H  1703  1  0.62174300  0.32571000  0.90912200  1
  H  1708  1  0.64859500  0.28518400  0.85950300  1
  H  1734  1  0.63376200  0.59188800  0.57030700  1
  H  1735  1  0.64234500  0.62975500  0.57175800  1
  H  1736  1  0.70950400  0.57845400  0.56873000  1
  H  1737  1  0.71819200  0.61612400  0.56984900  1
  H  1738  1  0.73282100  0.64945500  0.59417600  1
  H  1739  1  0.74009300  0.64971700  0.63218000  1
  H  1740  1  0.66395300  0.65188900  0.64366400  1
  H  1741  1  0.65662200  0.65215800  0.60582600  1
  H  1742  1  0.67910800  0.69240800  0.58813200  1
  H  1743  1  0.64779600  0.71779800  0.58029000  1
  H  1744  1  0.62178500  0.67736900  0.53025200  1
  H  1745  1  0.65321100  0.65164400  0.53822100  1
  H  1746  1  0.69692000  0.63601300  0.53000900  1
  H  1747  1  0.72378000  0.68375900  0.57278700  1
  H  1748  1  0.75552000  0.69229000  0.54744700  1
  H  1753  1  0.72822500  0.64465900  0.50492400  1
  H  1779  1  0.13382200  0.91107300  0.37048000  1
  H  1780  1  0.14240900  0.87320500  0.36907600  1
  H  1781  1  0.20956100  0.92449900  0.37223400  1
  H  1782  1  0.21824500  0.88682700  0.37116200  1
  H  1783  1  0.23282800  0.85360400  0.34672900  1
  H  1784  1  0.24007600  0.85334000  0.30871800  1
  H  1785  1  0.16393800  0.85090900  0.29732400  1
  H  1786  1  0.15663500  0.85064200  0.33516900  1
  H  1787  1  0.17929100  0.81047900  0.35298700  1
  H  1788  1  0.14801000  0.78506900  0.36087700  1
  H  1789  1  0.12175100  0.82566100  0.41069800  1
  H  1790  1  0.15315600  0.85139600  0.40269200  1
  H  1791  1  0.19687900  0.86686500  0.41097200  1
  H  1792  1  0.22395200  0.81927700  0.36811000  1
  H  1793  1  0.25568600  0.81077500  0.39344600  1
  H  1798  1  0.22817700  0.85824500  0.43605500  1
  H  1824  1  0.88410500  0.35244800  0.12975800  1
  H  1825  1  0.89287900  0.35396300  0.09198900  1
  H  1826  1  0.95975400  0.34999600  0.14340900  1
  H  1827  1  0.96862200  0.35114200  0.10582800  1
  H  1828  1  0.98407700  0.37494700  0.07228000  1
  H  1829  1  0.99240500  0.41289500  0.07169200  1
  H  1830  1  0.91660100  0.42592700  0.06935400  1
  H  1831  1  0.90818800  0.38821100  0.06959400  1
  H  1832  1  0.92975600  0.37028600  0.02970100  1
  H  1833  1  0.89826900  0.36290600  0.00438800  1
  H  1834  1  0.87187100  0.31265400  0.04439600  1
  H  1835  1  0.90346200  0.32016900  0.07004800  1
  H  1836  1  0.94718700  0.31156800  0.08614100  1
  H  1837  1  0.97404200  0.35381400  0.03792500  1
  H  1838  1  0.00557101  0.32820600  0.02951000  1
  H  1843  1  0.97832800  0.28622800  0.07763800  1
  H  1869  1  0.38430700  0.15014000  0.81107100  1
  H  1870  1  0.39297800  0.14876200  0.84886300  1
  H  1871  1  0.45997600  0.15312300  0.79756500  1
  H  1872  1  0.46873300  0.15207500  0.83515000  1
  H  1873  1  0.48407700  0.12808800  0.86848400  1
  H  1874  1  0.49242000  0.09014200  0.86907800  1
  H  1875  1  0.41663300  0.07709500  0.87178600  1
  H  1876  1  0.40820800  0.11480800  0.87153800  1
  H  1877  1  0.42990000  0.13295800  0.91131500  1
  H  1878  1  0.39840200  0.14036100  0.93663400  1
  H  1879  1  0.37164500  0.19021500  0.89633400  1
  H  1880  1  0.40325200  0.18268800  0.87068600  1
  H  1881  1  0.44704000  0.19152400  0.85492100  1
  H  1882  1  0.47418400  0.14916200  0.90289000  1
  H  1883  1  0.50568700  0.17479100  0.91127600  1
  H  1888  1  0.47815100  0.21690000  0.86340700  1
  H  1895  1  0.06759500  0.24372400  0.35413100  1
  H  1898  1  0.05952900  0.27773500  0.43988500  1
  H  1900  1  0.02996400  0.29321100  0.41535000  1
  H  1902  1  0.10097100  0.21905200  0.36398600  1
  H  1909  1  0.56801900  0.25870200  0.58675400  1
  H  1912  1  0.55800000  0.22583900  0.50038700  1
  H  1914  1  0.53022900  0.20951800  0.52555200  1
  H  1916  1  0.60110300  0.28368800  0.57689500  1
  H  1923  1  0.31797800  0.86781800  0.96339700  1
  H  1926  1  0.30715800  0.78108400  0.99563900  1
  H  1928  1  0.28002500  0.80628400  0.01220700  1
  H  1930  1  0.35068300  0.85794300  0.93803700  1
  H  1937  1  0.81799000  0.63516400  0.97746100  1
  H  1940  1  0.80705900  0.72191400  0.94530800  1
  H  1942  1  0.77992400  0.69671600  0.92874800  1
  H  1944  1  0.85073800  0.64505800  0.00275900  1
  H  1951  1  0.55838900  0.75916100  0.58638600  1
  H  1954  1  0.56668000  0.72552700  0.50050600  1
  H  1956  1  0.59640700  0.71013300  0.52494800  1
  H  1958  1  0.52528400  0.78412000  0.57654000  1
  H  1965  1  0.05795900  0.74438800  0.35450400  1
  H  1968  1  0.06820200  0.77686200  0.44099000  1
  H  1970  1  0.09617300  0.79309600  0.41592600  1
  H  1972  1  0.02516900  0.71910100  0.36435400  1
  H  1979  1  0.30746800  0.13348900  0.97696900  1
  H  1982  1  0.31934800  0.22046500  0.94564300  1
  H  1984  1  0.34613600  0.19517000  0.92884500  1
  H  1986  1  0.27477800  0.14336400  0.00237400  1
  H  1993  1  0.80751000  0.36954100  0.96393400  1
  H  1996  1  0.81943100  0.28254900  0.99516900  1
  H  1998  1  0.84636200  0.30779100  0.01187900  1
  H  2000  1  0.77476200  0.35965500  0.93860200  1
  H  2007  1  0.56753500  0.74385100  0.85224900  1
  H  2010  1  0.55929500  0.77761800  0.93806100  1
  H  2012  1  0.52960000  0.79305400  0.91359100  1
  H  2014  1  0.60108700  0.71931600  0.86210900  1
  H  2021  1  0.06794300  0.75862800  0.08868900  1
  H  2024  1  0.05793900  0.72596100  0.00228200  1
  H  2026  1  0.02983600  0.70977300  0.02730700  1
  H  2028  1  0.10121300  0.78347400  0.07884400  1
  H  2035  1  0.81803200  0.36764300  0.46315400  1
  H  2038  1  0.80748100  0.28103100  0.49588200  1
  H  2040  1  0.78078400  0.30640200  0.51266900  1
  H  2042  1  0.85077700  0.35776000  0.43787900  1
  H  2049  1  0.31808400  0.13529700  0.47757800  1
  H  2052  1  0.30740000  0.22194200  0.44499100  1
  H  2054  1  0.28065400  0.19659300  0.42823400  1
  H  2056  1  0.35086000  0.14519600  0.50280500  1
  H  2063  1  0.05824400  0.25886700  0.08823500  1
  H  2066  1  0.06701700  0.22576400  0.00220500  1
  H  2068  1  0.09662600  0.21021200  0.02667200  1
  H  2070  1  0.02500500  0.28373900  0.07837100  1
  H  2077  1  0.55769400  0.24478000  0.85265500  1
  H  2080  1  0.56850300  0.27661300  0.93930100  1
  H  2082  1  0.59640900  0.29298700  0.91424500  1
  H  2084  1  0.52473800  0.21960500  0.86252300  1
  H  2091  1  0.80783700  0.63388200  0.47757100  1
  H  2094  1  0.81863700  0.72056900  0.44515800  1
  H  2096  1  0.84569100  0.69531600  0.42859000  1
  H  2098  1  0.77498500  0.64375200  0.50276600  1
  H  2105  1  0.30777800  0.86915300  0.46343500  1
  H  2108  1  0.31867700  0.78243900  0.49573200  1
  H  2110  1  0.34576300  0.80767600  0.51228000  1
  H  2112  1  0.27492600  0.85927000  0.43825500  1
  H  2119  1  0.18690600  0.11834400  0.21297100  1
  H  2122  1  0.24351300  0.18981100  0.24609400  1
  H  2124  1  0.23858800  0.15942800  0.27096900  1
  H  2126  1  0.18714300  0.13178300  0.17506900  1
  H  2133  1  0.68424500  0.38320900  0.72779400  1
  H  2136  1  0.74206400  0.31242000  0.69560100  1
  H  2138  1  0.73844200  0.34392300  0.66996300  1
  H  2140  1  0.68638600  0.37088600  0.76590600  1
  H  2147  1  0.43426800  0.00896400  0.83745400  1
  H  2150  1  0.49095500  0.97587900  0.90844900  1
  H  2152  1  0.48762200  0.95049700  0.87674700  1
  H  2154  1  0.43621000  0.04699100  0.85028800  1
  H  2161  1  0.93421800  0.49411300  0.10343900  1
  H  2164  1  0.99095800  0.52709800  0.03239600  1
  H  2166  1  0.98758900  0.55252900  0.06409200  1
  H  2168  1  0.93623300  0.45605700  0.09071000  1
  H  2175  1  0.93867800  0.38497600  0.21136500  1
  H  2178  1  0.88322100  0.31265900  0.24419200  1
  H  2180  1  0.88721200  0.34315500  0.26905100  1
  H  2182  1  0.93924100  0.37135700  0.17350200  1
  H  2189  1  0.44141500  0.11934600  0.72928800  1
  H  2192  1  0.38458900  0.19091300  0.69746800  1
  H  2194  1  0.38732300  0.15930800  0.67187200  1
  H  2196  1  0.44005000  0.13189000  0.76738500  1
  H  2203  1  0.69096100  0.49254100  0.83691300  1
  H  2206  1  0.63574300  0.52527600  0.90900300  1
  H  2208  1  0.63792700  0.55059300  0.87715700  1
  H  2210  1  0.68996000  0.45453700  0.84999800  1
  H  2217  1  0.19086000  0.01040700  0.10408000  1
  H  2220  1  0.13574300  0.97770300  0.03195200  1
  H  2222  1  0.13790900  0.95235800  0.06380200  1
  H  2224  1  0.18981700  0.04842500  0.09105600  1
  H  2231  1  0.43853600  0.88473900  0.72784600  1
  H  2234  1  0.38283700  0.81322500  0.69363800  1
  H  2236  1  0.38761100  0.84393400  0.66914100  1
  H  2238  1  0.43816000  0.87092200  0.76559500  1
  H  2245  1  0.94125100  0.61964800  0.21315700  1
  H  2248  1  0.88430300  0.69048600  0.24643400  1
  H  2250  1  0.88776900  0.65865700  0.27168600  1
  H  2252  1  0.93894900  0.63236900  0.17519300  1
  H  2259  1  0.68813900  0.61782300  0.72944900  1
  H  2262  1  0.74415500  0.68960100  0.69540900  1
  H  2264  1  0.73882700  0.65921000  0.67102400  1
  H  2266  1  0.68753200  0.63190900  0.76713500  1
  H  2273  1  0.18807400  0.88512500  0.21151300  1
  H  2276  1  0.24418700  0.81339200  0.24548100  1
  H  2278  1  0.23882300  0.84379500  0.26988900  1
  H  2280  1  0.18750200  0.87106000  0.17381700  1
  H  2287  1  0.93530300  0.50890600  0.33861500  1
  H  2290  1  0.99043400  0.47630500  0.41047500  1
  H  2292  1  0.98824900  0.45060400  0.37859800  1
  H  2294  1  0.93719800  0.54698700  0.35123000  1
  H  2301  1  0.43534400  0.99410800  0.60238900  1
  H  2304  1  0.49110600  0.02697200  0.53069800  1
  H  2306  1  0.48828500  0.05239900  0.56247000  1
  H  2308  1  0.43717400  0.95602600  0.58974700  1
  H  2315  1  0.19022000  0.99257400  0.33810000  1
  H  2318  1  0.13530100  0.02512900  0.41045400  1
  H  2320  1  0.13742600  0.05055300  0.37869900  1
  H  2322  1  0.18906600  0.95451700  0.35093100  1
  H  2329  1  0.69019500  0.51035800  0.60270900  1
  H  2332  1  0.63523100  0.47785200  0.53039200  1
  H  2334  1  0.63740500  0.45239300  0.56213800  1
  H  2336  1  0.68895100  0.54843400  0.58997000  1
  H  2362  1  0.44764700  0.08955300  0.36921600  1
  H  2363  1  0.45478000  0.12764800  0.36898800  1
  H  2364  1  0.52384200  0.07829900  0.37106500  1
  H  2365  1  0.53103700  0.11621800  0.37136200  1
  H  2366  1  0.54429600  0.14949600  0.34784500  1
  H  2367  1  0.55153700  0.15022100  0.30985000  1
  H  2368  1  0.47539900  0.15266700  0.29849000  1
  H  2369  1  0.46809200  0.15241300  0.33633200  1
  H  2370  1  0.49105100  0.19235800  0.35624600  1
  H  2371  1  0.45987300  0.21751400  0.36525200  1
  H  2372  1  0.43206400  0.17419900  0.41193400  1
  H  2373  1  0.46367400  0.14881700  0.40308200  1
  H  2374  1  0.50821200  0.13451300  0.41177000  1
  H  2375  1  0.53538500  0.18306100  0.36997500  1
  H  2376  1  0.56705600  0.19094800  0.39546900  1
  H  2381  1  0.53970100  0.14231100  0.43694900  1
  H  2407  1  0.94764400  0.41339800  0.57163000  1
  H  2408  1  0.95477800  0.37530600  0.57186800  1
  H  2409  1  0.02383500  0.42465300  0.56966200  1
  H  2410  1  0.03103200  0.38673500  0.56937100  1
  H  2411  1  0.04425500  0.35356200  0.59298900  1
  H  2412  1  0.05144200  0.35290700  0.63099600  1
  H  2413  1  0.97529100  0.35032400  0.64230500  1
  H  2414  1  0.96804500  0.35051500  0.60446200  1
  H  2415  1  0.99108300  0.31057500  0.58454900  1
  H  2416  1  0.95991300  0.28540700  0.57557700  1
  H  2417  1  0.93201300  0.32874100  0.52897100  1
  H  2418  1  0.96362200  0.35412900  0.53778300  1
  H  2419  1  0.00815201  0.36834400  0.52900600  1
  H  2420  1  0.03544800  0.31995000  0.57090200  1
  H  2421  1  0.06712800  0.31205500  0.54540000  1
  H  2426  1  0.03965100  0.36053800  0.50382000  1
  H  2452  1  0.69434100  0.85086900  0.80858800  1
  H  2453  1  0.70265500  0.85169800  0.84646000  1
  H  2454  1  0.77017300  0.84948600  0.79555600  1
  H  2455  1  0.77858200  0.84995400  0.83320500  1
  H  2456  1  0.79305900  0.87345000  0.86672100  1
  H  2457  1  0.80046400  0.91149400  0.86732600  1
  H  2458  1  0.72438600  0.92314600  0.87011600  1
  H  2459  1  0.71692400  0.88526200  0.87001500  1
  H  2460  1  0.73995500  0.86605400  0.90984200  1
  H  2461  1  0.70915200  0.85728900  0.93538700  1
  H  2462  1  0.68174000  0.80912600  0.89352700  1
  H  2463  1  0.71295900  0.81777300  0.86773800  1
  H  2464  1  0.75717300  0.80970200  0.85180200  1
  H  2465  1  0.78413100  0.85134800  0.90051800  1
  H  2466  1  0.81609700  0.82598300  0.90805100  1
  H  2471  1  0.78899700  0.78469100  0.85919600  1
  H  2497  1  0.19454300  0.65176100  0.13234500  1
  H  2498  1  0.20274600  0.65101800  0.09444500  1
  H  2499  1  0.27040400  0.65375300  0.14513500  1
  H  2500  1  0.27869500  0.65333200  0.10746800  1
  H  2501  1  0.29300000  0.62956300  0.07422100  1
  H  2502  1  0.30039100  0.59151300  0.07360200  1
  H  2503  1  0.22433200  0.57989600  0.07043700  1
  H  2504  1  0.21688400  0.61778000  0.07056000  1
  H  2505  1  0.24009300  0.63721000  0.03085400  1
  H  2506  1  0.20924900  0.64596900  0.00535000  1
  H  2507  1  0.18142300  0.69368400  0.04752700  1
  H  2508  1  0.21268200  0.68505500  0.07326700  1
  H  2509  1  0.25694300  0.69341900  0.08875100  1
  H  2510  1  0.28430200  0.65157300  0.04036100  1
  H  2511  1  0.31625600  0.67695100  0.03283600  1
  H  2516  1  0.28874500  0.71846500  0.08134400  1
  H  2542  1  0.30127800  0.41165500  0.36901400  1
  H  2543  1  0.29393400  0.37361200  0.36813800  1
  H  2544  1  0.22515100  0.42322100  0.37099200  1
  H  2545  1  0.21773500  0.38533100  0.37060700  1
  H  2546  1  0.20438400  0.35246200  0.34604600  1
  H  2547  1  0.19738200  0.35230500  0.30800100  1
  H  2548  1  0.27361200  0.35050700  0.29693800  1
  H  2549  1  0.28067600  0.35015200  0.33480500  1
  H  2550  1  0.25790000  0.30967600  0.35302900  1
  H  2551  1  0.28947900  0.28454200  0.36086500  1
  H  2552  1  0.31643200  0.32609600  0.40957500  1
  H  2553  1  0.28469800  0.35155000  0.40163700  1
  H  2554  1  0.24058600  0.36551200  0.41068500  1
  H  2555  1  0.21315700  0.31845400  0.36742200  1
  H  2556  1  0.18159300  0.30967500  0.39285200  1
  H  2561  1  0.20948800  0.35657400  0.43588300  1
  H  2587  1  0.80121800  0.09133700  0.57199000  1
  H  2588  1  0.79386400  0.12937900  0.57279900  1
  H  2589  1  0.72510400  0.07977300  0.56961600  1
  H  2590  1  0.71768900  0.11766100  0.56994400  1
  H  2591  1  0.70441900  0.15028300  0.59477800  1
  H  2592  1  0.69748600  0.15035900  0.63284100  1
  H  2593  1  0.77372100  0.15263900  0.64374300  1
  H  2594  1  0.78070900  0.15307400  0.60586600  1
  H  2595  1  0.75764300  0.19340100  0.58749600  1
  H  2596  1  0.78918800  0.21857500  0.57963900  1
  H  2597  1  0.81654300  0.17681800  0.53126100  1
  H  2598  1  0.78483400  0.15134200  0.53920500  1
  H  2599  1  0.74069000  0.13768000  0.52999100  1
  H  2600  1  0.71289400  0.18437200  0.57347900  1
  H  2601  1  0.68132300  0.19313500  0.54807200  1
  H  2606  1  0.70958400  0.14660800  0.50481200  1
  H  2632  1  0.05426600  0.65189200  0.81045100  1
  H  2633  1  0.04565400  0.65045200  0.84824800  1
  H  2634  1  0.97854300  0.65349200  0.79701100  1
  H  2635  1  0.96982800  0.65240700  0.83462000  1
  H  2636  1  0.95527000  0.62775100  0.86765700  1
  H  2637  1  0.94817400  0.58964100  0.86769800  1
  H  2638  1  0.02435300  0.57843800  0.87008000  1
  H  2639  1  0.03150500  0.61635900  0.87058400  1
  H  2640  1  0.00855001  0.63393300  0.91080800  1
  H  2641  1  0.03975800  0.64161900  0.93629700  1
  H  2642  1  0.06631900  0.69165200  0.89609700  1
  H  2643  1  0.03497700  0.68385300  0.87028300  1
  H  2644  1  0.99116000  0.69228500  0.85476000  1
  H  2645  1  0.96393100  0.64907600  0.90195100  1
  H  2646  1  0.93206100  0.67434800  0.91040500  1
  H  2651  1  0.95970400  0.71729800  0.86332300  1
  H  2677  1  0.55428400  0.85112400  0.13046100  1
  H  2678  1  0.54567700  0.85253800  0.09266500  1
  H  2679  1  0.47855900  0.84950400  0.14393600  1
  H  2680  1  0.46985100  0.85056500  0.10633300  1
  H  2681  1  0.45528000  0.87520500  0.07329600  1
  H  2682  1  0.44817000  0.91331200  0.07325500  1
  H  2683  1  0.52434700  0.92453800  0.07083800  1
  H  2684  1  0.53151400  0.88661800  0.07033000  1
  H  2685  1  0.50857300  0.86902700  0.03011900  1
  H  2686  1  0.53977000  0.86132300  0.00461000  1
  H  2687  1  0.56635000  0.81131800  0.04481900  1
  H  2688  1  0.53501500  0.81912900  0.07065400  1
  H  2689  1  0.49117600  0.81067900  0.08619500  1
  H  2690  1  0.46396200  0.85387500  0.03900600  1
  H  2691  1  0.43210100  0.82860100  0.03056600  1
  H  2696  1  0.45973500  0.78566000  0.07764100  1
  H  2722  1  0.80462900  0.91287500  0.56994800  1
  H  2723  1  0.79627900  0.87494200  0.57079900  1
  H  2724  1  0.72880000  0.92595600  0.56855400  1
  H  2725  1  0.72035500  0.88824400  0.56906200  1
  H  2726  1  0.70585500  0.85454600  0.59239800  1
  H  2727  1  0.69839600  0.85373900  0.63036400  1
  H  2728  1  0.77445700  0.85094400  0.64205300  1
  H  2729  1  0.78197900  0.85124900  0.60423500  1
  H  2730  1  0.75920400  0.81146900  0.58493500  1
  H  2731  1  0.79009200  0.78602200  0.57598600  1
  H  2732  1  0.81706400  0.82818400  0.52789000  1
  H  2733  1  0.78577600  0.85387500  0.53672200  1
  H  2734  1  0.74161600  0.86980000  0.52888600  1
  H  2735  1  0.71496800  0.82068700  0.57027800  1
  H  2736  1  0.68308400  0.81304100  0.54491800  1
  H  2741  1  0.70988300  0.86228200  0.50387400  1
  H  2767  1  0.30466800  0.59013600  0.37095300  1
  H  2768  1  0.29631200  0.62806700  0.37010500  1
  H  2769  1  0.22884100  0.57704900  0.37245800  1
  H  2770  1  0.22039200  0.61475900  0.37195200  1
  H  2771  1  0.20592400  0.64834900  0.34853000  1
  H  2772  1  0.19851500  0.64908400  0.31055500  1
  H  2773  1  0.27458700  0.65202500  0.29890900  1
  H  2774  1  0.28205100  0.65178400  0.33672700  1
  H  2775  1  0.25920000  0.69155700  0.35602800  1
  H  2776  1  0.29007100  0.71702000  0.36495800  1
  H  2777  1  0.31712700  0.67483300  0.41298300  1
  H  2778  1  0.28584800  0.64913600  0.40417900  1
  H  2779  1  0.24169200  0.63329000  0.41209200  1
  H  2780  1  0.21494700  0.68227300  0.37060800  1
  H  2781  1  0.18305300  0.68993100  0.39597400  1
  H  2786  1  0.20994600  0.64082200  0.43711200  1
  H  2812  1  0.55460700  0.15085800  0.13161100  1
  H  2813  1  0.54610500  0.14993200  0.09377200  1
  H  2814  1  0.47885400  0.15296400  0.14491500  1
  H  2815  1  0.47026400  0.15241200  0.10729500  1
  H  2816  1  0.45483700  0.12984000  0.07321700  1
  H  2817  1  0.44615500  0.09197700  0.07204800  1
  H  2818  1  0.52183100  0.07841400  0.06950400  1
  H  2819  1  0.53060400  0.11607700  0.07032400  1
  H  2820  1  0.50904600  0.13549900  0.03074600  1
  H  2821  1  0.54007100  0.14393400  0.00530900  1
  H  2822  1  0.56722400  0.19252400  0.04680400  1
  H  2823  1  0.53580900  0.18417700  0.07250000  1
  H  2824  1  0.49166000  0.19235800  0.08912900  1
  H  2825  1  0.46526600  0.15169900  0.03935300  1
  H  2826  1  0.43363200  0.17736300  0.03180400  1
  H  2831  1  0.46013100  0.21766300  0.08173500  1
  H  2857  1  0.05441700  0.35245600  0.80921800  1
  H  2858  1  0.04602800  0.35330900  0.84708700  1
  H  2859  1  0.97864000  0.34977500  0.79616200  1
  H  2860  1  0.97016900  0.35029500  0.83379900  1
  H  2861  1  0.95489700  0.37313200  0.86763300  1
  H  2862  1  0.94621900  0.41099800  0.86880300  1
  H  2863  1  0.02188200  0.42454100  0.87165400  1
  H  2864  1  0.03065400  0.38687900  0.87083000  1
  H  2865  1  0.00895501  0.36727600  0.91031100  1
  H  2866  1  0.04002900  0.35886300  0.93570100  1
  H  2867  1  0.06753800  0.31065300  0.89392900  1
  H  2868  1  0.03607300  0.31896500  0.86828700  1
  H  2869  1  0.99188100  0.31051000  0.85208200  1
  H  2870  1  0.96514400  0.35137500  0.90156600  1
  H  2871  1  0.93351400  0.32571000  0.90912200  1
  H  2876  1  0.96036600  0.28518400  0.85950300  1
  H  2902  1  0.94553300  0.59188800  0.57030700  1
  H  2903  1  0.95411600  0.62975500  0.57175800  1
  H  2904  1  0.02127500  0.57845400  0.56873000  1
  H  2905  1  0.02996300  0.61612400  0.56984900  1
  H  2906  1  0.04459200  0.64945500  0.59417600  1
  H  2907  1  0.05186400  0.64971700  0.63218000  1
  H  2908  1  0.97572400  0.65188900  0.64366400  1
  H  2909  1  0.96839300  0.65215800  0.60582600  1
  H  2910  1  0.99087900  0.69240800  0.58813200  1
  H  2911  1  0.95956700  0.71779800  0.58029000  1
  H  2912  1  0.93355600  0.67736900  0.53025200  1
  H  2913  1  0.96498200  0.65164400  0.53822100  1
  H  2914  1  0.00869101  0.63601300  0.53000900  1
  H  2915  1  0.03555100  0.68375900  0.57278700  1
  H  2916  1  0.06729100  0.69229000  0.54744700  1
  H  2921  1  0.03999600  0.64465900  0.50492400  1
  H  2947  1  0.44559300  0.91107300  0.37048000  1
  H  2948  1  0.45418000  0.87320500  0.36907600  1
  H  2949  1  0.52133200  0.92449900  0.37223400  1
  H  2950  1  0.53001600  0.88682700  0.37116200  1
  H  2951  1  0.54459900  0.85360400  0.34672900  1
  H  2952  1  0.55184700  0.85334000  0.30871800  1
  H  2953  1  0.47570900  0.85090900  0.29732400  1
  H  2954  1  0.46840600  0.85064200  0.33516900  1
  H  2955  1  0.49106200  0.81047900  0.35298700  1
  H  2956  1  0.45978100  0.78506900  0.36087700  1
  H  2957  1  0.43352200  0.82566100  0.41069800  1
  H  2958  1  0.46492700  0.85139600  0.40269200  1
  H  2959  1  0.50865000  0.86686500  0.41097200  1
  H  2960  1  0.53572300  0.81927700  0.36811000  1
  H  2961  1  0.56745700  0.81077500  0.39344600  1
  H  2966  1  0.53994800  0.85824500  0.43605500  1
  H  2992  1  0.19587600  0.35244800  0.12975800  1
  H  2993  1  0.20465000  0.35396300  0.09198900  1
  H  2994  1  0.27152500  0.34999600  0.14340900  1
  H  2995  1  0.28039300  0.35114200  0.10582800  1
  H  2996  1  0.29584800  0.37494700  0.07228000  1
  H  2997  1  0.30417600  0.41289500  0.07169200  1
  H  2998  1  0.22837200  0.42592700  0.06935400  1
  H  2999  1  0.21995900  0.38821100  0.06959400  1
  H  3000  1  0.24152700  0.37028600  0.02970100  1
  H  3001  1  0.21004000  0.36290600  0.00438800  1
  H  3002  1  0.18364200  0.31265400  0.04439600  1
  H  3003  1  0.21523300  0.32016900  0.07004800  1
  H  3004  1  0.25895800  0.31156800  0.08614100  1
  H  3005  1  0.28581300  0.35381400  0.03792500  1
  H  3006  1  0.31734200  0.32820600  0.02951000  1
  H  3011  1  0.29009900  0.28622800  0.07763800  1
  H  3037  1  0.69607800  0.15014000  0.81107100  1
  H  3038  1  0.70474900  0.14876200  0.84886300  1
  H  3039  1  0.77174700  0.15312300  0.79756500  1
  H  3040  1  0.78050400  0.15207500  0.83515000  1
  H  3041  1  0.79584800  0.12808800  0.86848400  1
  H  3042  1  0.80419100  0.09014200  0.86907800  1
  H  3043  1  0.72840400  0.07709500  0.87178600  1
  H  3044  1  0.71997900  0.11480800  0.87153800  1
  H  3045  1  0.74167100  0.13295800  0.91131500  1
  H  3046  1  0.71017300  0.14036100  0.93663400  1
  H  3047  1  0.68341600  0.19021500  0.89633400  1
  H  3048  1  0.71502300  0.18268800  0.87068600  1
  H  3049  1  0.75881100  0.19152400  0.85492100  1
  H  3050  1  0.78595500  0.14916200  0.90289000  1
  H  3051  1  0.81745800  0.17479100  0.91127600  1
  H  3056  1  0.78992200  0.21690000  0.86340700  1
  H  3063  1  0.37936600  0.24372400  0.35413100  1
  H  3066  1  0.37130000  0.27773500  0.43988500  1
  H  3068  1  0.34173500  0.29321100  0.41535000  1
  H  3070  1  0.41274200  0.21905200  0.36398600  1
  H  3077  1  0.87979000  0.25870200  0.58675400  1
  H  3080  1  0.86977100  0.22583900  0.50038700  1
  H  3082  1  0.84200000  0.20951800  0.52555200  1
  H  3084  1  0.91287400  0.28368800  0.57689500  1
  H  3091  1  0.62974900  0.86781800  0.96339700  1
  H  3094  1  0.61892900  0.78108400  0.99563900  1
  H  3096  1  0.59179600  0.80628400  0.01220700  1
  H  3098  1  0.66245400  0.85794300  0.93803700  1
  H  3105  1  0.12976100  0.63516400  0.97746100  1
  H  3108  1  0.11883000  0.72191400  0.94530800  1
  H  3110  1  0.09169500  0.69671600  0.92874800  1
  H  3112  1  0.16250900  0.64505800  0.00275900  1
  H  3119  1  0.87016000  0.75916100  0.58638600  1
  H  3122  1  0.87845100  0.72552700  0.50050600  1
  H  3124  1  0.90817800  0.71013300  0.52494800  1
  H  3126  1  0.83705500  0.78412000  0.57654000  1
  H  3133  1  0.36973000  0.74438800  0.35450400  1
  H  3136  1  0.37997300  0.77686200  0.44099000  1
  H  3138  1  0.40794400  0.79309600  0.41592600  1
  H  3140  1  0.33694000  0.71910100  0.36435400  1
  H  3147  1  0.61923900  0.13348900  0.97696900  1
  H  3150  1  0.63111900  0.22046500  0.94564300  1
  H  3152  1  0.65790700  0.19517000  0.92884500  1
  H  3154  1  0.58654900  0.14336400  0.00237400  1
  H  3161  1  0.11928100  0.36954100  0.96393400  1
  H  3164  1  0.13120200  0.28254900  0.99516900  1
  H  3166  1  0.15813300  0.30779100  0.01187900  1
  H  3168  1  0.08653300  0.35965500  0.93860200  1
  H  3175  1  0.87930600  0.74385100  0.85224900  1
  H  3178  1  0.87106600  0.77761800  0.93806100  1
  H  3180  1  0.84137100  0.79305400  0.91359100  1
  H  3182  1  0.91285800  0.71931600  0.86210900  1
  H  3189  1  0.37971400  0.75862800  0.08868900  1
  H  3192  1  0.36971000  0.72596100  0.00228200  1
  H  3194  1  0.34160700  0.70977300  0.02730700  1
  H  3196  1  0.41298400  0.78347400  0.07884400  1
  H  3203  1  0.12980300  0.36764300  0.46315400  1
  H  3206  1  0.11925200  0.28103100  0.49588200  1
  H  3208  1  0.09255500  0.30640200  0.51266900  1
  H  3210  1  0.16254800  0.35776000  0.43787900  1
  H  3217  1  0.62985500  0.13529700  0.47757800  1
  H  3220  1  0.61917100  0.22194200  0.44499100  1
  H  3222  1  0.59242500  0.19659300  0.42823400  1
  H  3224  1  0.66263100  0.14519600  0.50280500  1
  H  3231  1  0.37001500  0.25886700  0.08823500  1
  H  3234  1  0.37878800  0.22576400  0.00220500  1
  H  3236  1  0.40839700  0.21021200  0.02667200  1
  H  3238  1  0.33677600  0.28373900  0.07837100  1
  H  3245  1  0.86946500  0.24478000  0.85265500  1
  H  3248  1  0.88027400  0.27661300  0.93930100  1
  H  3250  1  0.90818000  0.29298700  0.91424500  1
  H  3252  1  0.83650900  0.21960500  0.86252300  1
  H  3259  1  0.11960800  0.63388200  0.47757100  1
  H  3262  1  0.13040800  0.72056900  0.44515800  1
  H  3264  1  0.15746200  0.69531600  0.42859000  1
  H  3266  1  0.08675600  0.64375200  0.50276600  1
  H  3273  1  0.61954900  0.86915300  0.46343500  1
  H  3276  1  0.63044800  0.78243900  0.49573200  1
  H  3278  1  0.65753400  0.80767600  0.51228000  1
  H  3280  1  0.58669700  0.85927000  0.43825500  1
  H  3287  1  0.49867700  0.11834400  0.21297100  1
  H  3290  1  0.55528400  0.18981100  0.24609400  1
  H  3292  1  0.55035900  0.15942800  0.27096900  1
  H  3294  1  0.49891400  0.13178300  0.17506900  1
  H  3301  1  0.99601600  0.38320900  0.72779400  1
  H  3304  1  0.05383500  0.31242000  0.69560100  1
  H  3306  1  0.05021300  0.34392300  0.66996300  1
  H  3308  1  0.99815700  0.37088600  0.76590600  1
  H  3315  1  0.74603900  0.00896400  0.83745400  1
  H  3318  1  0.80272600  0.97587900  0.90844900  1
  H  3320  1  0.79939300  0.95049700  0.87674700  1
  H  3322  1  0.74798100  0.04699100  0.85028800  1
  H  3329  1  0.24598900  0.49411300  0.10343900  1
  H  3332  1  0.30272900  0.52709800  0.03239600  1
  H  3334  1  0.29936000  0.55252900  0.06409200  1
  H  3336  1  0.24800400  0.45605700  0.09071000  1
  H  3343  1  0.25044900  0.38497600  0.21136500  1
  H  3346  1  0.19499200  0.31265900  0.24419200  1
  H  3348  1  0.19898300  0.34315500  0.26905100  1
  H  3350  1  0.25101200  0.37135700  0.17350200  1
  H  3357  1  0.75318600  0.11934600  0.72928800  1
  H  3360  1  0.69636000  0.19091300  0.69746800  1
  H  3362  1  0.69909400  0.15930800  0.67187200  1
  H  3364  1  0.75182100  0.13189000  0.76738500  1
  H  3371  1  0.00273201  0.49254100  0.83691300  1
  H  3374  1  0.94751400  0.52527600  0.90900300  1
  H  3376  1  0.94969800  0.55059300  0.87715700  1
  H  3378  1  0.00173101  0.45453700  0.84999800  1
  H  3385  1  0.50263100  0.01040700  0.10408000  1
  H  3388  1  0.44751400  0.97770300  0.03195200  1
  H  3390  1  0.44968000  0.95235800  0.06380200  1
  H  3392  1  0.50158800  0.04842500  0.09105600  1
  H  3399  1  0.75030700  0.88473900  0.72784600  1
  H  3402  1  0.69460800  0.81322500  0.69363800  1
  H  3404  1  0.69938200  0.84393400  0.66914100  1
  H  3406  1  0.74993100  0.87092200  0.76559500  1
  H  3413  1  0.25302200  0.61964800  0.21315700  1
  H  3416  1  0.19607400  0.69048600  0.24643400  1
  H  3418  1  0.19954000  0.65865700  0.27168600  1
  H  3420  1  0.25072000  0.63236900  0.17519300  1
  H  3427  1  0.99991000  0.61782300  0.72944900  1
  H  3430  1  0.05592600  0.68960100  0.69540900  1
  H  3432  1  0.05059800  0.65921000  0.67102400  1
  H  3434  1  0.99930300  0.63190900  0.76713500  1
  H  3441  1  0.49984500  0.88512500  0.21151300  1
  H  3444  1  0.55595800  0.81339200  0.24548100  1
  H  3446  1  0.55059400  0.84379500  0.26988900  1
  H  3448  1  0.49927300  0.87106000  0.17381700  1
  H  3455  1  0.24707400  0.50890600  0.33861500  1
  H  3458  1  0.30220500  0.47630500  0.41047500  1
  H  3460  1  0.30002000  0.45060400  0.37859800  1
  H  3462  1  0.24896900  0.54698700  0.35123000  1
  H  3469  1  0.74711500  0.99410800  0.60238900  1
  H  3472  1  0.80287700  0.02697200  0.53069800  1
  H  3474  1  0.80005600  0.05239900  0.56247000  1
  H  3476  1  0.74894500  0.95602600  0.58974700  1
  H  3483  1  0.50199100  0.99257400  0.33810000  1
  H  3486  1  0.44707200  0.02512900  0.41045400  1
  H  3488  1  0.44919700  0.05055300  0.37869900  1
  H  3490  1  0.50083700  0.95451700  0.35093100  1
  H  3497  1  0.00196601  0.51035800  0.60270900  1
  H  3500  1  0.94700200  0.47785200  0.53039200  1
  H  3502  1  0.94917600  0.45239300  0.56213800  1
  H  3504  1  0.00072201  0.54843400  0.58997000  1
  C  1  1  0.93302700  0.16718500  0.41854400  1
  C  2  1  0.93114000  0.17900600  0.39901400  1
  C  3  1  0.91263900  0.17403700  0.38383100  1
  C  4  1  0.89599100  0.15658800  0.38708000  1
  C  5  1  0.89705300  0.14626600  0.40768100  1
  C  6  1  0.91551700  0.15098200  0.42280700  1
  C  7  1  0.87597500  0.15066400  0.37074800  1
  C  8  1  0.85587500  0.16676000  0.37713300  1
  C  9  1  0.83922800  0.16292600  0.39444000  1
  C  10  1  0.82072200  0.17796200  0.39991400  1
  C  11  1  0.81860200  0.19776000  0.38863600  1
  C  12  1  0.83658000  0.20283500  0.37298900  1
  C  13  1  0.85494100  0.18778800  0.36765100  1
  C  14  1  0.88188800  0.15248400  0.34654100  1
  C  15  1  0.87012300  0.12636200  0.37180000  1
  C  16  1  0.84604500  0.11763700  0.37048900  1
  C  17  1  0.84173300  0.09507600  0.37036500  1
  C  18  1  0.86151400  0.08028800  0.37096300  1
  C  19  1  0.88554100  0.08857700  0.37121000  1
  C  20  1  0.88967800  0.11105200  0.37145700  1
  C  21  1  0.90598900  0.15128800  0.33785200  1
  C  22  1  0.91036500  0.15147400  0.31533700  1
  C  23  1  0.89063200  0.15230900  0.30053400  1
  C  24  1  0.86658700  0.15265100  0.30877900  1
  C  25  1  0.86238200  0.15258200  0.33121200  1
  C  46  1  0.43305100  0.33575200  0.52228100  1
  C  47  1  0.43119400  0.32397400  0.54184300  1
  C  48  1  0.41267100  0.32893700  0.55701900  1
  C  49  1  0.39598600  0.34634900  0.55373900  1
  C  50  1  0.39701800  0.35662200  0.53311200  1
  C  51  1  0.41549100  0.35190100  0.51798500  1
  C  52  1  0.37595900  0.35228500  0.57006800  1
  C  53  1  0.35586800  0.33617900  0.56369700  1
  C  54  1  0.33920300  0.34001100  0.54641300  1
  C  55  1  0.32069500  0.32497000  0.54096300  1
  C  56  1  0.31859500  0.30516700  0.55223400  1
  C  57  1  0.33659500  0.30009200  0.56785100  1
  C  58  1  0.35495100  0.31514600  0.57317100  1
  C  59  1  0.38185700  0.35047100  0.59427300  1
  C  60  1  0.37012000  0.37658800  0.56900000  1
  C  61  1  0.34604000  0.38531500  0.57032000  1
  C  62  1  0.34172600  0.40787500  0.57043100  1
  C  63  1  0.36150900  0.42266400  0.56982900  1
  C  64  1  0.38553400  0.41437500  0.56954300  1
  C  65  1  0.38967300  0.39190100  0.56929700  1
  C  66  1  0.40593800  0.35175500  0.60297800  1
  C  67  1  0.41028300  0.35161000  0.62549700  1
  C  68  1  0.39052800  0.35074400  0.64028500  1
  C  69  1  0.36649800  0.35035300  0.63202700  1
  C  70  1  0.36232900  0.35038100  0.60959100  1
  C  91  1  0.18226300  0.80303000  0.88411500  1
  C  92  1  0.18017700  0.82244700  0.89613700  1
  C  93  1  0.16147300  0.83754100  0.89139700  1
  C  94  1  0.14480800  0.83435300  0.87398000  1
  C  95  1  0.14605400  0.81381900  0.86348600  1
  C  96  1  0.16471000  0.79877500  0.86797800  1
  C  97  1  0.12460800  0.85066100  0.86837100  1
  C  98  1  0.10487000  0.84441300  0.88486100  1
  C  99  1  0.08851900  0.82673900  0.88163100  1
  C  100  1  0.07022800  0.82140900  0.89690400  1
  C  101  1  0.06805800  0.83317900  0.91638800  1
  C  102  1  0.08583600  0.84919000  0.92092300  1
  C  103  1  0.10398200  0.85438500  0.90563700  1
  C  104  1  0.13067200  0.87490000  0.86989800  1
  C  105  1  0.11800900  0.84948600  0.84425800  1
  C  106  1  0.09364900  0.85043200  0.83612700  1
  C  107  1  0.08862800  0.85028000  0.81371900  1
  C  108  1  0.10786100  0.85016000  0.79846400  1
  C  109  1  0.13221700  0.84977700  0.80616100  1
  C  110  1  0.13706800  0.84984200  0.82848800  1
  C  111  1  0.15480000  0.88351900  0.86851600  1
  C  112  1  0.15927300  0.90606100  0.86863100  1
  C  113  1  0.13961000  0.92096000  0.86956500  1
  C  114  1  0.11553300  0.91278800  0.87000900  1
  C  115  1  0.11123600  0.89033200  0.87002500  1
  C  136  1  0.68219700  0.70003300  0.05657900  1
  C  137  1  0.68026000  0.68052500  0.04468500  1
  C  138  1  0.66156500  0.66542100  0.04942500  1
  C  139  1  0.64476600  0.66868900  0.06673200  1
  C  140  1  0.64589500  0.68927700  0.07712800  1
  C  141  1  0.66454100  0.70433600  0.07262900  1
  C  142  1  0.62459400  0.65236800  0.07239600  1
  C  143  1  0.60483000  0.65864000  0.05595400  1
  C  144  1  0.58832600  0.67617800  0.05931400  1
  C  145  1  0.57001200  0.68150200  0.04407100  1
  C  146  1  0.56796400  0.66985500  0.02450200  1
  C  147  1  0.58586100  0.65397600  0.01986600  1
  C  148  1  0.60403600  0.64879000  0.03511900  1
  C  149  1  0.63063700  0.62812600  0.07084000  1
  C  150  1  0.61808200  0.65351700  0.09653000  1
  C  151  1  0.59375600  0.65239200  0.10473700  1
  C  152  1  0.58880800  0.65248500  0.12716000  1
  C  153  1  0.60808900  0.65275200  0.14235700  1
  C  154  1  0.63241400  0.65334300  0.13458000  1
  C  155  1  0.63719300  0.65331500  0.11223900  1
  C  156  1  0.65475300  0.61950000  0.07231300  1
  C  157  1  0.65921400  0.59695700  0.07221000  1
  C  158  1  0.63955200  0.58206600  0.07115200  1
  C  159  1  0.61548300  0.59024800  0.07061700  1
  C  160  1  0.61119400  0.61270500  0.07060200  1
  C  181  1  0.56816400  0.33308800  0.41628100  1
  C  182  1  0.57025100  0.32173200  0.39654400  1
  C  183  1  0.58872400  0.32716700  0.38147400  1
  C  184  1  0.60538700  0.34450500  0.38521300  1
  C  185  1  0.60446100  0.35409000  0.40617000  1
  C  186  1  0.58613800  0.34879200  0.42124300  1
  C  187  1  0.62552200  0.35078100  0.36912300  1
  C  188  1  0.64549900  0.33441300  0.37512000  1
  C  189  1  0.66202000  0.33767000  0.39263100  1
  C  190  1  0.68057400  0.32252000  0.39762000  1
  C  191  1  0.68262000  0.30300300  0.38576300  1
  C  192  1  0.66518300  0.29868700  0.36954900  1
  C  193  1  0.64668000  0.31379300  0.36479700  1
  C  194  1  0.61973200  0.34967200  0.34485300  1
  C  195  1  0.63149900  0.37501500  0.37088500  1
  C  196  1  0.65563600  0.38365700  0.36982900  1
  C  197  1  0.66007900  0.40619500  0.37010600  1
  C  198  1  0.64038300  0.42106300  0.37090200  1
  C  199  1  0.61630800  0.41287500  0.37102100  1
  C  200  1  0.61203700  0.39041800  0.37087700  1
  C  201  1  0.59568200  0.35096100  0.33608500  1
  C  202  1  0.59145100  0.35114300  0.31354900  1
  C  203  1  0.61127800  0.35059300  0.29882200  1
  C  204  1  0.63527300  0.35032900  0.30716100  1
  C  205  1  0.63933400  0.35004300  0.32960800  1
  C  226  1  0.06808000  0.16989900  0.52452600  1
  C  227  1  0.07006300  0.18116000  0.54432400  1
  C  228  1  0.08854100  0.17573400  0.55938000  1
  C  229  1  0.10531300  0.15849400  0.55556400  1
  C  230  1  0.10450000  0.14903500  0.53454600  1
  C  231  1  0.08616400  0.15431600  0.51949000  1
  C  232  1  0.12547600  0.15221200  0.57160700  1
  C  233  1  0.14544000  0.16858000  0.56557300  1
  C  234  1  0.16207800  0.16526200  0.54815400  1
  C  235  1  0.18061900  0.18042500  0.54315800  1
  C  236  1  0.18252500  0.20002300  0.55489900  1
  C  237  1  0.16497600  0.20438800  0.57101900  1
  C  238  1  0.14648300  0.18926900  0.57577200  1
  C  239  1  0.11974600  0.15331400  0.59589000  1
  C  240  1  0.13145600  0.12798200  0.56981600  1
  C  241  1  0.15558000  0.11933300  0.57103800  1
  C  242  1  0.16002600  0.09679500  0.57080800  1
  C  243  1  0.14033400  0.08192900  0.56991700  1
  C  244  1  0.11626300  0.09011800  0.56965500  1
  C  245  1  0.11199300  0.11257700  0.56976200  1
  C  246  1  0.09572400  0.15185600  0.60471200  1
  C  247  1  0.09153200  0.15165100  0.62725700  1
  C  248  1  0.11138600  0.15228600  0.64194000  1
  C  249  1  0.13536100  0.15273500  0.63355100  1
  C  250  1  0.13937500  0.15307000  0.61109700  1
  C  271  1  0.31846500  0.69770800  0.88686100  1
  C  272  1  0.32072200  0.67804900  0.89836600  1
  C  273  1  0.33939200  0.66307600  0.89313800  1
  C  274  1  0.35611600  0.66681800  0.87586700  1
  C  275  1  0.35499900  0.68771900  0.86611900  1
  C  276  1  0.33646100  0.70269400  0.87120000  1
  C  277  1  0.37647400  0.65079400  0.86991100  1
  C  278  1  0.39605200  0.65671600  0.88666900  1
  C  279  1  0.41229300  0.67455700  0.88396100  1
  C  280  1  0.43062900  0.67944400  0.89932200  1
  C  281  1  0.43270300  0.66716000  0.91855200  1
  C  282  1  0.41546200  0.65062000  0.92236700  1
  C  283  1  0.39717200  0.64596700  0.90704900  1
  C  284  1  0.37058500  0.62648500  0.87074700  1
  C  285  1  0.38322900  0.65266300  0.84587400  1
  C  286  1  0.40765900  0.65194300  0.83786400  1
  C  287  1  0.41285400  0.65244100  0.81549200  1
  C  288  1  0.39374100  0.65277000  0.80013800  1
  C  289  1  0.36932400  0.65308500  0.80770000  1
  C  290  1  0.36429100  0.65266300  0.82999800  1
  C  291  1  0.34653100  0.61774300  0.86921200  1
  C  292  1  0.34224400  0.59517400  0.86897900  1
  C  293  1  0.36202600  0.58038600  0.86968600  1
  C  294  1  0.38603800  0.58870200  0.87012500  1
  C  295  1  0.39015200  0.61117800  0.87049000  1
  C  316  1  0.81849500  0.80524400  0.05410600  1
  C  317  1  0.82076000  0.82489900  0.04259700  1
  C  318  1  0.83942800  0.83987300  0.04781500  1
  C  319  1  0.85613900  0.83614100  0.06509100  1
  C  320  1  0.85501500  0.81524300  0.07484400  1
  C  321  1  0.83648600  0.80026400  0.06976600  1
  C  322  1  0.87649400  0.85217300  0.07102600  1
  C  323  1  0.89607300  0.84625000  0.05426100  1
  C  324  1  0.91231300  0.82840800  0.05696300  1
  C  325  1  0.93066300  0.82352900  0.04160200  1
  C  326  1  0.93271700  0.83578600  0.02235100  1
  C  327  1  0.91547600  0.85232800  0.01854400  1
  C  328  1  0.89719600  0.85699400  0.03387800  1
  C  329  1  0.87059800  0.87648000  0.07018900  1
  C  330  1  0.88325400  0.85030100  0.09505700  1
  C  331  1  0.90768000  0.85106800  0.10306000  1
  C  332  1  0.91287400  0.85058200  0.12542900  1
  C  333  1  0.89375900  0.85023800  0.14079300  1
  C  334  1  0.86934300  0.84991000  0.13324100  1
  C  335  1  0.86431700  0.85032200  0.11094400  1
  C  336  1  0.84653800  0.88521600  0.07172100  1
  C  337  1  0.84224100  0.90778500  0.07196700  1
  C  338  1  0.86202000  0.92257600  0.07126400  1
  C  339  1  0.88603600  0.91426900  0.07080000  1
  C  340  1  0.89015700  0.89179200  0.07043300  1
  C  361  1  0.06971400  0.83713900  0.52208000  1
  C  362  1  0.07183100  0.82506800  0.54144000  1
  C  363  1  0.09047300  0.82988200  0.55653800  1
  C  364  1  0.10704100  0.84741300  0.55340200  1
  C  365  1  0.10573100  0.85801100  0.53295400  1
  C  366  1  0.08712900  0.85344700  0.51790700  1
  C  367  1  0.12723400  0.85302400  0.56968400  1
  C  368  1  0.14698900  0.83657900  0.56333100  1
  C  369  1  0.16323000  0.83993100  0.54562400  1
  C  370  1  0.18155500  0.82472000  0.54018100  1
  C  371  1  0.18385900  0.80518800  0.55187800  1
  C  372  1  0.16619200  0.80052400  0.56792800  1
  C  373  1  0.14801200  0.81575400  0.57324100  1
  C  374  1  0.12115900  0.85139500  0.59387200  1
  C  375  1  0.13384100  0.87717500  0.56859900  1
  C  376  1  0.15821100  0.88530200  0.56954700  1
  C  377  1  0.16325100  0.90774200  0.56940000  1
  C  378  1  0.14402900  0.92302400  0.56924300  1
  C  379  1  0.11966300  0.91532800  0.56887300  1
  C  380  1  0.11478800  0.89296700  0.56896100  1
  C  381  1  0.09701700  0.85271200  0.60245600  1
  C  382  1  0.09251100  0.85246200  0.62495000  1
  C  383  1  0.11215300  0.85147600  0.63983800  1
  C  384  1  0.13624400  0.85109000  0.63170100  1
  C  385  1  0.14057700  0.85119800  0.60928600  1
  C  406  1  0.56971900  0.66588800  0.41885100  1
  C  407  1  0.57181300  0.67791900  0.39946400  1
  C  408  1  0.59047500  0.67311000  0.38437200  1
  C  409  1  0.60707100  0.65560600  0.38753500  1
  C  410  1  0.60577600  0.64504700  0.40800600  1
  C  411  1  0.58717400  0.64962400  0.42305600  1
  C  412  1  0.62727700  0.64998600  0.37126100  1
  C  413  1  0.64702200  0.66644000  0.37760100  1
  C  414  1  0.66327200  0.66309100  0.39529300  1
  C  415  1  0.68159700  0.67830700  0.40071900  1
  C  416  1  0.68388000  0.69784600  0.38902700  1
  C  417  1  0.66619400  0.70251200  0.37300500  1
  C  418  1  0.64802700  0.68727000  0.36769900  1
  C  419  1  0.62121600  0.65161200  0.34707500  1
  C  420  1  0.63387600  0.62583500  0.37235900  1
  C  421  1  0.65824700  0.61770700  0.37139600  1
  C  422  1  0.66329000  0.59526800  0.37155000  1
  C  423  1  0.64407100  0.57998500  0.37171300  1
  C  424  1  0.61970300  0.58767800  0.37212200  1
  C  425  1  0.61482700  0.61003900  0.37203400  1
  C  426  1  0.59709100  0.65022400  0.33847900  1
  C  427  1  0.59261800  0.65041300  0.31597900  1
  C  428  1  0.61227900  0.65142800  0.30110500  1
  C  429  1  0.63635700  0.65186800  0.30925300  1
  C  430  1  0.64065800  0.65180200  0.33166900  1
  C  451  1  0.82010000  0.19984500  0.05627800  1
  C  452  1  0.82229000  0.18064400  0.04393300  1
  C  453  1  0.84080900  0.16537900  0.04866400  1
  C  454  1  0.85713900  0.16813900  0.06640300  1
  C  455  1  0.85587300  0.18850500  0.07721500  1
  C  456  1  0.83740700  0.20373400  0.07271400  1
  C  457  1  0.87696900  0.15147800  0.07202500  1
  C  458  1  0.89689300  0.15737600  0.05557700  1
  C  459  1  0.91325700  0.17506200  0.05870700  1
  C  460  1  0.93167700  0.18020600  0.04349300  1
  C  461  1  0.93398100  0.16822600  0.02414700  1
  C  462  1  0.91622800  0.15216800  0.01969500  1
  C  463  1  0.89795300  0.14715800  0.03492800  1
  C  464  1  0.87013600  0.12739600  0.07050900  1
  C  465  1  0.88370300  0.15249800  0.09611300  1
  C  466  1  0.90808900  0.15134200  0.10415600  1
  C  467  1  0.91321700  0.15155100  0.12654300  1
  C  468  1  0.89406100  0.15193300  0.14186900  1
  C  469  1  0.86967400  0.15246600  0.13426100  1
  C  470  1  0.86471500  0.15234500  0.11195200  1
  C  471  1  0.84571300  0.11940600  0.07163000  1
  C  472  1  0.84047900  0.09699900  0.07127900  1
  C  473  1  0.85956300  0.08158800  0.07073500  1
  C  474  1  0.88398200  0.08913600  0.07009300  1
  C  475  1  0.88904700  0.11146700  0.07036300  1
  C  496  1  0.32017600  0.30309900  0.88482300  1
  C  497  1  0.32223500  0.32238900  0.89704700  1
  C  498  1  0.34074900  0.33765700  0.89230700  1
  C  499  1  0.35719800  0.33481200  0.87466100  1
  C  500  1  0.35603100  0.31439500  0.86394400  1
  C  501  1  0.33757300  0.29915800  0.86846000  1
  C  502  1  0.37699700  0.35148400  0.86897500  1
  C  503  1  0.39695400  0.34557600  0.88537700  1
  C  504  1  0.41345400  0.32801100  0.88212900  1
  C  505  1  0.43190200  0.32288500  0.89731200  1
  C  506  1  0.43411100  0.33476900  0.91672300  1
  C  507  1  0.41624700  0.35070500  0.92127000  1
  C  508  1  0.39793900  0.35569800  0.90607300  1
  C  509  1  0.37018000  0.37556900  0.87050400  1
  C  510  1  0.38364500  0.35047600  0.84486500  1
  C  511  1  0.40799400  0.35179400  0.83674600  1
  C  512  1  0.41304900  0.35163800  0.81434200  1
  C  513  1  0.39384700  0.35111700  0.79907400  1
  C  514  1  0.36949200  0.35038700  0.80676500  1
  C  515  1  0.36460500  0.35048000  0.82908800  1
  C  516  1  0.34576500  0.38356100  0.86930500  1
  C  517  1  0.34053600  0.40597000  0.86964000  1
  C  518  1  0.35962200  0.42137600  0.87026600  1
  C  519  1  0.38403600  0.41382300  0.87100200  1
  C  520  1  0.38909900  0.39149000  0.87073500  1
  C  541  1  0.43397200  0.66848600  0.52430100  1
  C  542  1  0.43165000  0.68012300  0.54385200  1
  C  543  1  0.41306100  0.67485100  0.55886400  1
  C  544  1  0.39650300  0.65739600  0.55527600  1
  C  545  1  0.39768000  0.64749500  0.53448000  1
  C  546  1  0.41612000  0.65263200  0.51945700  1
  C  547  1  0.37620300  0.65145800  0.57133900  1
  C  548  1  0.35655900  0.66815700  0.56536800  1
  C  549  1  0.34046800  0.66536300  0.54746700  1
  C  550  1  0.32208100  0.68066500  0.54248000  1
  C  551  1  0.31982400  0.69991700  0.55472900  1
  C  552  1  0.33692500  0.70383700  0.57132200  1
  C  553  1  0.35525200  0.68856600  0.57608600  1
  C  554  1  0.38218100  0.65241300  0.59557800  1
  C  555  1  0.36946500  0.62737600  0.56958400  1
  C  556  1  0.34503900  0.61935300  0.57031300  1
  C  557  1  0.33985800  0.59694400  0.56979500  1
  C  558  1  0.35898600  0.58157400  0.56944700  1
  C  559  1  0.38339900  0.58915300  0.56916100  1
  C  560  1  0.38841700  0.61148800  0.56961000  1
  C  561  1  0.40628500  0.65101800  0.60421500  1
  C  562  1  0.41067700  0.65090600  0.62672600  1
  C  563  1  0.39095900  0.65161700  0.64156400  1
  C  564  1  0.36690700  0.65193100  0.63335800  1
  C  565  1  0.36268700  0.65215500  0.61093200  1
  C  586  1  0.93403200  0.83450700  0.41663500  1
  C  587  1  0.93177300  0.82290300  0.39706000  1
  C  588  1  0.91318400  0.82815800  0.38205300  1
  C  589  1  0.89657200  0.84556800  0.38566100  1
  C  590  1  0.89767400  0.85541400  0.40648900  1
  C  591  1  0.91611800  0.85029900  0.42150500  1
  C  592  1  0.87625600  0.85149500  0.36962300  1
  C  593  1  0.85661600  0.83480600  0.37563400  1
  C  594  1  0.84045100  0.83765000  0.39348200  1
  C  595  1  0.82207700  0.82234300  0.39849100  1
  C  596  1  0.81991500  0.80302400  0.38633600  1
  C  597  1  0.83708400  0.79906200  0.36979600  1
  C  598  1  0.85540200  0.81434100  0.36501100  1
  C  599  1  0.88220100  0.85052300  0.34537500  1
  C  600  1  0.86951800  0.87557500  0.37138000  1
  C  601  1  0.84509700  0.88360800  0.37055500  1
  C  602  1  0.83991400  0.90601500  0.37105900  1
  C  603  1  0.85904400  0.92138200  0.37144000  1
  C  604  1  0.88345600  0.91380000  0.37178300  1
  C  605  1  0.88847100  0.89146400  0.37136700  1
  C  606  1  0.90629200  0.85198000  0.33670900  1
  C  607  1  0.91066800  0.85208100  0.31419000  1
  C  608  1  0.89094400  0.85131800  0.29937500  1
  C  609  1  0.86689700  0.85091900  0.30761100  1
  C  610  1  0.86269500  0.85069500  0.33004200  1
  C  631  1  0.68404300  0.30531200  0.05356400  1
  C  632  1  0.68174000  0.32476900  0.04173700  1
  C  633  1  0.66326300  0.33993300  0.04692700  1
  C  634  1  0.64681800  0.33661300  0.06449500  1
  C  635  1  0.64789600  0.31586600  0.07456300  1
  C  636  1  0.66623900  0.30069200  0.06951200  1
  C  637  1  0.62682200  0.35299800  0.07044900  1
  C  638  1  0.60705300  0.34737600  0.05376000  1
  C  639  1  0.59075800  0.32956500  0.05643900  1
  C  640  1  0.57226100  0.32485300  0.04117700  1
  C  641  1  0.57006200  0.33728700  0.02205300  1
  C  642  1  0.58733000  0.35381100  0.01825200  1
  C  643  1  0.60577800  0.35829400  0.03347900  1
  C  644  1  0.63345200  0.37715700  0.06957700  1
  C  645  1  0.61995100  0.35132200  0.09447200  1
  C  646  1  0.59550200  0.35231000  0.10241300  1
  C  647  1  0.59021500  0.35176800  0.12476700  1
  C  648  1  0.60926400  0.35114300  0.14017600  1
  C  649  1  0.63370500  0.35063700  0.13268300  1
  C  650  1  0.63882600  0.35110300  0.11040100  1
  C  651  1  0.65779200  0.38530200  0.07089000  1
  C  652  1  0.66281200  0.40775300  0.07090100  1
  C  653  1  0.64358800  0.42303400  0.07055700  1
  C  654  1  0.61924100  0.41531200  0.06983500  1
  C  655  1  0.61438800  0.39294600  0.06976300  1
  C  676  1  0.18400700  0.19776100  0.88734600  1
  C  677  1  0.18179100  0.17825800  0.89911500  1
  C  678  1  0.16332500  0.16308100  0.89394100  1
  C  679  1  0.14681200  0.16642900  0.87643800  1
  C  680  1  0.14780400  0.18721500  0.86644300  1
  C  681  1  0.16612800  0.20240600  0.87148300  1
  C  682  1  0.12684200  0.15003000  0.87047700  1
  C  683  1  0.10704000  0.15567300  0.88713700  1
  C  684  1  0.09063200  0.17338400  0.88436100  1
  C  685  1  0.07211000  0.17809300  0.89961200  1
  C  686  1  0.07002700  0.16579400  0.91883400  1
  C  687  1  0.08739600  0.14937300  0.92271300  1
  C  688  1  0.10585100  0.14487700  0.90748600  1
  C  689  1  0.13346900  0.12587300  0.87138400  1
  C  690  1  0.12002900  0.15168600  0.84644600  1
  C  691  1  0.09562000  0.15047900  0.83845700  1
  C  692  1  0.09039600  0.15094400  0.81609100  1
  C  693  1  0.10948400  0.15169200  0.80071500  1
  C  694  1  0.13389500  0.15239400  0.80825800  1
  C  695  1  0.13895000  0.15199000  0.83054900  1
  C  696  1  0.15780400  0.11773000  0.86996400  1
  C  697  1  0.16283100  0.09528200  0.86995500  1
  C  698  1  0.14361200  0.07999700  0.87041200  1
  C  699  1  0.11926800  0.08771300  0.87123400  1
  C  700  1  0.11440900  0.11007900  0.87130400  1
  C  721  1  0.73453200  0.26829200  0.39787000  1
  C  723  1  0.75432600  0.24706300  0.37029800  1
  C  724  1  0.76901900  0.23657200  0.38588900  1
  C  726  1  0.74920300  0.25778600  0.41382600  1
  C  728  1  0.74750500  0.26218800  0.43579800  1
  C  731  1  0.71732800  0.28450000  0.40186600  1
  C  733  1  0.78673700  0.22168200  0.37977000  1
  C  735  1  0.23457800  0.23461000  0.54291200  1
  C  737  1  0.25459600  0.25554900  0.57056400  1
  C  738  1  0.26909100  0.26626300  0.55497200  1
  C  740  1  0.24905900  0.24532400  0.52694500  1
  C  742  1  0.24708200  0.24122500  0.50492900  1
  C  745  1  0.21738100  0.21840800  0.53890800  1
  C  747  1  0.28680300  0.28114800  0.56110700  1
  C  749  1  0.98441400  0.82384700  0.98729900  1
  C  751  1  0.00448700  0.85158800  0.96646400  1
  C  752  1  0.01885400  0.83597900  0.95561400  1
  C  754  1  0.99878300  0.80787400  0.97645300  1
  C  756  1  0.99680800  0.78580100  0.98033700  1
  C  759  1  0.96727200  0.81978900  0.00352400  1
  C  761  1  0.03647500  0.84213200  0.94065200  1
  C  763  1  0.48435800  0.67913000  0.95361000  1
  C  765  1  0.50446500  0.65139600  0.97441600  1
  C  766  1  0.51880100  0.66701300  0.98527700  1
  C  768  1  0.49869400  0.69511300  0.96446800  1
  C  770  1  0.49668400  0.71718600  0.96060500  1
  C  773  1  0.46722500  0.68317600  0.93738400  1
  C  775  1  0.53643800  0.66087100  0.00021700  1
  C  777  1  0.26808800  0.73482600  0.54258400  1
  C  779  1  0.24815500  0.75588300  0.57021000  1
  C  780  1  0.23347400  0.76640800  0.55463200  1
  C  782  1  0.25342000  0.74536300  0.52664600  1
  C  784  1  0.25518100  0.74105700  0.50465700  1
  C  787  1  0.28534900  0.71867700  0.53854400  1
  C  789  1  0.21578400  0.78131300  0.56076500  1
  C  791  1  0.76805100  0.76824000  0.39840500  1
  C  793  1  0.74788700  0.74747500  0.37070400  1
  C  794  1  0.73341100  0.73672300  0.38628400  1
  C  796  1  0.75358300  0.75749100  0.41435800  1
  C  798  1  0.75562800  0.76149200  0.43638400  1
  C  801  1  0.78531000  0.78438100  0.40244800  1
  C  803  1  0.71572800  0.72182200  0.38013600  1
  C  805  1  0.01801400  0.17753500  0.95359300  1
  C  807  1  0.99757500  0.14973500  0.97406300  1
  C  808  1  0.98328800  0.16533800  0.98500500  1
  C  810  1  0.00372300  0.19350500  0.96452500  1
  C  812  1  0.00592500  0.21560200  0.96087800  1
  C  815  1  0.03528800  0.18163700  0.93749000  1
  C  817  1  0.96556000  0.15917600  0.99986400  1
  C  819  1  0.51813000  0.32549400  0.98724400  1
  C  821  1  0.49764700  0.35329300  0.96681500  1
  C  822  1  0.48338000  0.33768600  0.95586700  1
  C  824  1  0.50386000  0.30952100  0.97630200  1
  C  826  1  0.50608800  0.28742300  0.97992900  1
  C  829  1  0.53540900  0.32139300  0.00333100  1
  C  831  1  0.46563000  0.34384200  0.94103700  1
  C  833  1  0.23428300  0.76827400  0.89600100  1
  C  835  1  0.25421200  0.74714600  0.86841900  1
  C  836  1  0.26889500  0.73663000  0.88400900  1
  C  838  1  0.24893800  0.75773900  0.91195400  1
  C  840  1  0.24717900  0.76208300  0.93393300  1
  C  843  1  0.21703100  0.78444900  0.90003400  1
  C  845  1  0.28668600  0.72178700  0.87789600  1
  C  847  1  0.73435800  0.73466700  0.04482600  1
  C  849  1  0.75448200  0.75551600  0.07249300  1
  C  850  1  0.76898400  0.76624900  0.05691200  1
  C  852  1  0.74884000  0.74540300  0.02887100  1
  C  854  1  0.74683400  0.74134500  0.00685200  1
  C  857  1  0.71711300  0.71849900  0.04077700  1
  C  859  1  0.78677200  0.78107900  0.06305400  1
  C  861  1  0.48483700  0.32373700  0.48741900  1
  C  863  1  0.50461600  0.35142200  0.46630300  1
  C  864  1  0.51895200  0.33579600  0.45544800  1
  C  866  1  0.49917100  0.30773900  0.47657200  1
  C  868  1  0.49729300  0.28567900  0.48057300  1
  C  871  1  0.46782500  0.31974900  0.50376100  1
  C  873  1  0.53651200  0.34194200  0.44043800  1
  C  875  1  0.98479400  0.17920800  0.45339800  1
  C  877  1  0.00462900  0.15152000  0.47445900  1
  C  878  1  0.01893200  0.16715200  0.48533100  1
  C  880  1  0.99909700  0.19520900  0.46426200  1
  C  882  1  0.99717300  0.21727200  0.46029600  1
  C  885  1  0.96777100  0.18319700  0.43707400  1
  C  887  1  0.03650600  0.16101300  0.50032100  1
  C  889  1  0.76825500  0.23480000  0.04440100  1
  C  891  1  0.74812100  0.25568900  0.07204800  1
  C  892  1  0.73352500  0.26630800  0.05646600  1
  C  894  1  0.75368000  0.24543700  0.02845800  1
  C  896  1  0.75557600  0.24126800  0.00645400  1
  C  899  1  0.78554700  0.21867700  0.04032000  1
  C  901  1  0.71576000  0.28116500  0.06258900  1
  C  903  1  0.26816700  0.26829600  0.89659200  1
  C  905  1  0.24775300  0.24774800  0.86886600  1
  C  906  1  0.23337700  0.23688700  0.88444800  1
  C  908  1  0.25380500  0.25743300  0.91254500  1
  C  910  1  0.25601500  0.26127300  0.93458800  1
  C  913  1  0.28547000  0.28440100  0.90068100  1
  C  915  1  0.21559700  0.22205200  0.87830800  1
  C  917  1  0.51776500  0.67783000  0.45356600  1
  C  919  1  0.49776400  0.65010900  0.47447800  1
  C  920  1  0.48338400  0.66572400  0.48530400  1
  C  922  1  0.50338100  0.69381400  0.46438600  1
  C  924  1  0.50532500  0.71588100  0.46045900  1
  C  927  1  0.53492000  0.68186000  0.43734900  1
  C  929  1  0.46572500  0.65956700  0.50022400  1
  C  931  1  0.01777300  0.82520200  0.48737200  1
  C  933  1  0.99773600  0.85292500  0.46650400  1
  C  934  1  0.98338400  0.83730600  0.45566200  1
  C  936  1  0.00342000  0.80921500  0.47653900  1
  C  938  1  0.00539900  0.78714600  0.48043500  1
  C  941  1  0.03493300  0.82117000  0.50357500  1
  C  943  1  0.96572300  0.84345600  0.44075200  1
  C  945  1  0.90630500  0.15247400  0.24370100  1
  C  947  1  0.88625400  0.13125100  0.21638500  1
  C  948  1  0.89546400  0.14490000  0.19995800  1
  C  950  1  0.91601900  0.16625300  0.22729800  1
  C  952  1  0.92983800  0.18475200  0.23095900  1
  C  955  1  0.91041800  0.15483700  0.26570500  1
  C  957  1  0.88894600  0.14203900  0.17848800  1
  C  959  1  0.40593700  0.35066600  0.69720500  1
  C  961  1  0.38448300  0.37092200  0.72444100  1
  C  962  1  0.39484300  0.35804900  0.74094600  1
  C  964  1  0.41657000  0.33746700  0.71364200  1
  C  966  1  0.43240200  0.32032700  0.70944400  1
  C  969  1  0.41022100  0.34843700  0.67518400  1
  C  971  1  0.38840400  0.36086500  0.76244800  1
  C  973  1  0.15534400  0.97791100  0.87001800  1
  C  975  1  0.13431400  0.00545200  0.84981700  1
  C  976  1  0.14453100  0.02183400  0.86295500  1
  C  978  1  0.16583300  0.99422500  0.88346700  1
  C  980  1  0.18132000  0.98988300  0.90075100  1
  C  983  1  0.15948600  0.95581900  0.87211800  1
  C  985  1  0.13816000  0.04341100  0.86031700  1
  C  987  1  0.65530200  0.52512000  0.07081600  1
  C  989  1  0.63427700  0.49760700  0.09107300  1
  C  990  1  0.64451800  0.48120300  0.07796900  1
  C  992  1  0.66581800  0.50878400  0.05740400  1
  C  994  1  0.68130900  0.51310000  0.04010600  1
  C  997  1  0.65942800  0.54720700  0.06866800  1
  C  999  1  0.63816000  0.45962800  0.08064600  1
  C  1001  1  0.59606700  0.35043900  0.24191700  1
  C  1003  1  0.61601700  0.37189800  0.21472100  1
  C  1004  1  0.60729800  0.35805200  0.19825400  1
  C  1006  1  0.58685000  0.33645000  0.22547200  1
  C  1008  1  0.57339200  0.31773100  0.22906500  1
  C  1011  1  0.59178300  0.34803100  0.26389300  1
  C  1013  1  0.61399600  0.36096400  0.17683100  1
  C  1015  1  0.09643600  0.15230200  0.69894800  1
  C  1017  1  0.11783400  0.13180500  0.72602200  1
  C  1018  1  0.10791700  0.14487100  0.74259400  1
  C  1020  1  0.08626700  0.16571000  0.71545100  1
  C  1022  1  0.07073400  0.18308900  0.71136400  1
  C  1025  1  0.09197200  0.15457300  0.67696300  1
  C  1027  1  0.11455600  0.14201600  0.76404100  1
  C  1029  1  0.34680600  0.52335000  0.87008500  1
  C  1031  1  0.36766200  0.49597100  0.84951800  1
  C  1032  1  0.35802800  0.47952700  0.86292400  1
  C  1034  1  0.33691000  0.50697200  0.88381100  1
  C  1036  1  0.32185200  0.51120700  0.90142500  1
  C  1039  1  0.34248000  0.54540100  0.87225900  1
  C  1041  1  0.36460100  0.45800600  0.86021400  1
  C  1043  1  0.84676800  0.97961000  0.07087000  1
  C  1045  1  0.86757200  0.00698300  0.09147300  1
  C  1046  1  0.85793600  0.02343500  0.07808300  1
  C  1048  1  0.83686600  0.99599400  0.05716400  1
  C  1050  1  0.82183900  0.99176700  0.03953700  1
  C  1053  1  0.84246700  0.95755600  0.06867000  1
  C  1055  1  0.86448700  0.04495800  0.08081600  1
  C  1057  1  0.09612000  0.85072600  0.69658300  1
  C  1059  1  0.11580000  0.87178200  0.72423200  1
  C  1060  1  0.10664600  0.85786400  0.74045800  1
  C  1062  1  0.08646200  0.83667200  0.71278000  1
  C  1064  1  0.07285900  0.81810500  0.70884000  1
  C  1067  1  0.09216600  0.84857800  0.67453500  1
  C  1069  1  0.11300400  0.86053300  0.76199100  1
  C  1071  1  0.59650400  0.65207700  0.24427200  1
  C  1073  1  0.61761100  0.63198700  0.21670600  1
  C  1074  1  0.60728700  0.64513500  0.20039900  1
  C  1076  1  0.58591100  0.66555200  0.22803900  1
  C  1078  1  0.57026900  0.68276100  0.23250800  1
  C  1081  1  0.59237700  0.65408900  0.26633700  1
  C  1083  1  0.61357000  0.64251600  0.17883500  1
  C  1085  1  0.40663200  0.65228000  0.69836300  1
  C  1087  1  0.38706300  0.63097200  0.72589200  1
  C  1088  1  0.39561900  0.64514300  0.74214800  1
  C  1090  1  0.41566700  0.66666667  0.71458400  1
  C  1092  1  0.42888700  0.68539800  0.71059000  1
  C  1095  1  0.41074300  0.65443300  0.67633700  1
  C  1097  1  0.38903500  0.64244300  0.76362600  1
  C  1099  1  0.90661500  0.85068600  0.24256400  1
  C  1101  1  0.88703000  0.87199400  0.21505700  1
  C  1102  1  0.89561700  0.85784700  0.19878600  1
  C  1104  1  0.91570200  0.83637700  0.22632800  1
  C  1106  1  0.92890600  0.81759400  0.23030400  1
  C  1109  1  0.91071700  0.84851500  0.26458600  1
  C  1111  1  0.88903100  0.86054700  0.17731200  1
  C  1113  1  0.65605400  0.47798900  0.37155800  1
  C  1115  1  0.63520700  0.50544000  0.35109600  1
  C  1116  1  0.64524300  0.52186000  0.36429100  1
  C  1118  1  0.66638100  0.49434100  0.38505700  1
  C  1120  1  0.68171100  0.48999900  0.40248600  1
  C  1123  1  0.66018400  0.45591300  0.37375800  1
  C  1125  1  0.63890300  0.54341900  0.36152100  1
  C  1127  1  0.15603700  0.02501200  0.56937100  1
  C  1129  1  0.13521600  0.99756900  0.58987700  1
  C  1130  1  0.14520800  0.98114900  0.57665500  1
  C  1132  1  0.16630300  0.00866400  0.55582400  1
  C  1134  1  0.18162700  0.01301200  0.53838600  1
  C  1137  1  0.16017500  0.04708600  0.56719300  1
  C  1139  1  0.13886900  0.95959100  0.57943800  1
  C  1141  1  0.84621600  0.02330100  0.37145700  1
  C  1143  1  0.86697200  0.99597400  0.35074900  1
  C  1144  1  0.85737000  0.97950600  0.36414100  1
  C  1146  1  0.83634900  0.00689800  0.38516500  1
  C  1148  1  0.82134700  0.01109500  0.40282400  1
  C  1151  1  0.84193000  0.04534500  0.37369200  1
  C  1153  1  0.86389300  0.95799400  0.36133500  1
  C  1155  1  0.34618800  0.47965000  0.56935600  1
  C  1157  1  0.36693600  0.50696500  0.59007200  1
  C  1158  1  0.35730800  0.52344500  0.57671400  1
  C  1160  1  0.33628900  0.49606400  0.55568700  1
  C  1162  1  0.32127800  0.49187800  0.53803800  1
  C  1165  1  0.34192100  0.45760700  0.56709600  1
  C  1167  1  0.36380200  0.54496000  0.57955000  1
  C  1169  1  0.24479800  0.16718500  0.41854400  1
  C  1170  1  0.24291100  0.17900600  0.39901400  1
  C  1171  1  0.22441000  0.17403700  0.38383100  1
  C  1172  1  0.20776200  0.15658800  0.38708000  1
  C  1173  1  0.20882400  0.14626600  0.40768100  1
  C  1174  1  0.22728800  0.15098200  0.42280700  1
  C  1175  1  0.18774600  0.15066400  0.37074800  1
  C  1176  1  0.16764600  0.16676000  0.37713300  1
  C  1177  1  0.15099900  0.16292600  0.39444000  1
  C  1178  1  0.13249300  0.17796200  0.39991400  1
  C  1179  1  0.13037300  0.19776000  0.38863600  1
  C  1180  1  0.14835100  0.20283500  0.37298900  1
  C  1181  1  0.16671200  0.18778800  0.36765100  1
  C  1182  1  0.19365900  0.15248400  0.34654100  1
  C  1183  1  0.18189400  0.12636200  0.37180000  1
  C  1184  1  0.15781600  0.11763700  0.37048900  1
  C  1185  1  0.15350400  0.09507600  0.37036500  1
  C  1186  1  0.17328500  0.08028800  0.37096300  1
  C  1187  1  0.19731200  0.08857700  0.37121000  1
  C  1188  1  0.20144900  0.11105200  0.37145700  1
  C  1189  1  0.21776000  0.15128800  0.33785200  1
  C  1190  1  0.22213600  0.15147400  0.31533700  1
  C  1191  1  0.20240300  0.15230900  0.30053400  1
  C  1192  1  0.17835800  0.15265100  0.30877900  1
  C  1193  1  0.17415300  0.15258200  0.33121200  1
  C  1214  1  0.74482200  0.33575200  0.52228100  1
  C  1215  1  0.74296500  0.32397400  0.54184300  1
  C  1216  1  0.72444200  0.32893700  0.55701900  1
  C  1217  1  0.70775700  0.34634900  0.55373900  1
  C  1218  1  0.70878900  0.35662200  0.53311200  1
  C  1219  1  0.72726200  0.35190100  0.51798500  1
  C  1220  1  0.68773000  0.35228500  0.57006800  1
  C  1221  1  0.66763900  0.33617900  0.56369700  1
  C  1222  1  0.65097400  0.34001100  0.54641300  1
  C  1223  1  0.63246600  0.32497000  0.54096300  1
  C  1224  1  0.63036600  0.30516700  0.55223400  1
  C  1225  1  0.64836600  0.30009200  0.56785100  1
  C  1226  1  0.66666667  0.31514600  0.57317100  1
  C  1227  1  0.69362800  0.35047100  0.59427300  1
  C  1228  1  0.68189100  0.37658800  0.56900000  1
  C  1229  1  0.65781100  0.38531500  0.57032000  1
  C  1230  1  0.65349700  0.40787500  0.57043100  1
  C  1231  1  0.67328000  0.42266400  0.56982900  1
  C  1232  1  0.69730500  0.41437500  0.56954300  1
  C  1233  1  0.70144400  0.39190100  0.56929700  1
  C  1234  1  0.71770900  0.35175500  0.60297800  1
  C  1235  1  0.72205400  0.35161000  0.62549700  1
  C  1236  1  0.70229900  0.35074400  0.64028500  1
  C  1237  1  0.67826900  0.35035300  0.63202700  1
  C  1238  1  0.67410000  0.35038100  0.60959100  1
  C  1259  1  0.49403400  0.80303000  0.88411500  1
  C  1260  1  0.49194800  0.82244700  0.89613700  1
  C  1261  1  0.47324400  0.83754100  0.89139700  1
  C  1262  1  0.45657900  0.83435300  0.87398000  1
  C  1263  1  0.45782500  0.81381900  0.86348600  1
  C  1264  1  0.47648100  0.79877500  0.86797800  1
  C  1265  1  0.43637900  0.85066100  0.86837100  1
  C  1266  1  0.41664100  0.84441300  0.88486100  1
  C  1267  1  0.40029000  0.82673900  0.88163100  1
  C  1268  1  0.38199900  0.82140900  0.89690400  1
  C  1269  1  0.37982900  0.83317900  0.91638800  1
  C  1270  1  0.39760700  0.84919000  0.92092300  1
  C  1271  1  0.41575300  0.85438500  0.90563700  1
  C  1272  1  0.44244300  0.87490000  0.86989800  1
  C  1273  1  0.42978000  0.84948600  0.84425800  1
  C  1274  1  0.40542000  0.85043200  0.83612700  1
  C  1275  1  0.40039900  0.85028000  0.81371900  1
  C  1276  1  0.41963200  0.85016000  0.79846400  1
  C  1277  1  0.44398800  0.84977700  0.80616100  1
  C  1278  1  0.44883900  0.84984200  0.82848800  1
  C  1279  1  0.46657100  0.88351900  0.86851600  1
  C  1280  1  0.47104400  0.90606100  0.86863100  1
  C  1281  1  0.45138100  0.92096000  0.86956500  1
  C  1282  1  0.42730400  0.91278800  0.87000900  1
  C  1283  1  0.42300700  0.89033200  0.87002500  1
  C  1304  1  0.99396800  0.70003300  0.05657900  1
  C  1305  1  0.99203100  0.68052500  0.04468500  1
  C  1306  1  0.97333600  0.66542100  0.04942500  1
  C  1307  1  0.95653700  0.66868900  0.06673200  1
  C  1308  1  0.95766600  0.68927700  0.07712800  1
  C  1309  1  0.97631200  0.70433600  0.07262900  1
  C  1310  1  0.93636500  0.65236800  0.07239600  1
  C  1311  1  0.91660100  0.65864000  0.05595400  1
  C  1312  1  0.90009700  0.67617800  0.05931400  1
  C  1313  1  0.88178300  0.68150200  0.04407100  1
  C  1314  1  0.87973500  0.66985500  0.02450200  1
  C  1315  1  0.89763200  0.65397600  0.01986600  1
  C  1316  1  0.91580700  0.64879000  0.03511900  1
  C  1317  1  0.94240800  0.62812600  0.07084000  1
  C  1318  1  0.92985300  0.65351700  0.09653000  1
  C  1319  1  0.90552700  0.65239200  0.10473700  1
  C  1320  1  0.90057900  0.65248500  0.12716000  1
  C  1321  1  0.91986000  0.65275200  0.14235700  1
  C  1322  1  0.94418500  0.65334300  0.13458000  1
  C  1323  1  0.94896400  0.65331500  0.11223900  1
  C  1324  1  0.96652400  0.61950000  0.07231300  1
  C  1325  1  0.97098500  0.59695700  0.07221000  1
  C  1326  1  0.95132300  0.58206600  0.07115200  1
  C  1327  1  0.92725400  0.59024800  0.07061700  1
  C  1328  1  0.92296500  0.61270500  0.07060200  1
  C  1349  1  0.87993500  0.33308800  0.41628100  1
  C  1350  1  0.88202200  0.32173200  0.39654400  1
  C  1351  1  0.90049500  0.32716700  0.38147400  1
  C  1352  1  0.91715800  0.34450500  0.38521300  1
  C  1353  1  0.91623200  0.35409000  0.40617000  1
  C  1354  1  0.89790900  0.34879200  0.42124300  1
  C  1355  1  0.93729300  0.35078100  0.36912300  1
  C  1356  1  0.95727000  0.33441300  0.37512000  1
  C  1357  1  0.97379100  0.33767000  0.39263100  1
  C  1358  1  0.99234500  0.32252000  0.39762000  1
  C  1359  1  0.99439100  0.30300300  0.38576300  1
  C  1360  1  0.97695400  0.29868700  0.36954900  1
  C  1361  1  0.95845100  0.31379300  0.36479700  1
  C  1362  1  0.93150300  0.34967200  0.34485300  1
  C  1363  1  0.94327000  0.37501500  0.37088500  1
  C  1364  1  0.96740700  0.38365700  0.36982900  1
  C  1365  1  0.97185000  0.40619500  0.37010600  1
  C  1366  1  0.95215400  0.42106300  0.37090200  1
  C  1367  1  0.92807900  0.41287500  0.37102100  1
  C  1368  1  0.92380800  0.39041800  0.37087700  1
  C  1369  1  0.90745300  0.35096100  0.33608500  1
  C  1370  1  0.90322200  0.35114300  0.31354900  1
  C  1371  1  0.92304900  0.35059300  0.29882200  1
  C  1372  1  0.94704400  0.35032900  0.30716100  1
  C  1373  1  0.95110500  0.35004300  0.32960800  1
  C  1394  1  0.37985100  0.16989900  0.52452600  1
  C  1395  1  0.38183400  0.18116000  0.54432400  1
  C  1396  1  0.40031200  0.17573400  0.55938000  1
  C  1397  1  0.41708400  0.15849400  0.55556400  1
  C  1398  1  0.41627100  0.14903500  0.53454600  1
  C  1399  1  0.39793500  0.15431600  0.51949000  1
  C  1400  1  0.43724700  0.15221200  0.57160700  1
  C  1401  1  0.45721100  0.16858000  0.56557300  1
  C  1402  1  0.47384900  0.16526200  0.54815400  1
  C  1403  1  0.49239000  0.18042500  0.54315800  1
  C  1404  1  0.49429600  0.20002300  0.55489900  1
  C  1405  1  0.47674700  0.20438800  0.57101900  1
  C  1406  1  0.45825400  0.18926900  0.57577200  1
  C  1407  1  0.43151700  0.15331400  0.59589000  1
  C  1408  1  0.44322700  0.12798200  0.56981600  1
  C  1409  1  0.46735100  0.11933300  0.57103800  1
  C  1410  1  0.47179700  0.09679500  0.57080800  1
  C  1411  1  0.45210500  0.08192900  0.56991700  1
  C  1412  1  0.42803400  0.09011800  0.56965500  1
  C  1413  1  0.42376400  0.11257700  0.56976200  1
  C  1414  1  0.40749500  0.15185600  0.60471200  1
  C  1415  1  0.40330300  0.15165100  0.62725700  1
  C  1416  1  0.42315700  0.15228600  0.64194000  1
  C  1417  1  0.44713200  0.15273500  0.63355100  1
  C  1418  1  0.45114600  0.15307000  0.61109700  1
  C  1439  1  0.63023600  0.69770800  0.88686100  1
  C  1440  1  0.63249300  0.67804900  0.89836600  1
  C  1441  1  0.65116300  0.66307600  0.89313800  1
  C  1442  1  0.66788700  0.66681800  0.87586700  1
  C  1443  1  0.66677000  0.68771900  0.86611900  1
  C  1444  1  0.64823200  0.70269400  0.87120000  1
  C  1445  1  0.68824500  0.65079400  0.86991100  1
  C  1446  1  0.70782300  0.65671600  0.88666900  1
  C  1447  1  0.72406400  0.67455700  0.88396100  1
  C  1448  1  0.74240000  0.67944400  0.89932200  1
  C  1449  1  0.74447400  0.66716000  0.91855200  1
  C  1450  1  0.72723300  0.65062000  0.92236700  1
  C  1451  1  0.70894300  0.64596700  0.90704900  1
  C  1452  1  0.68235600  0.62648500  0.87074700  1
  C  1453  1  0.69500000  0.65266300  0.84587400  1
  C  1454  1  0.71943000  0.65194300  0.83786400  1
  C  1455  1  0.72462500  0.65244100  0.81549200  1
  C  1456  1  0.70551200  0.65277000  0.80013800  1
  C  1457  1  0.68109500  0.65308500  0.80770000  1
  C  1458  1  0.67606200  0.65266300  0.82999800  1
  C  1459  1  0.65830200  0.61774300  0.86921200  1
  C  1460  1  0.65401500  0.59517400  0.86897900  1
  C  1461  1  0.67379700  0.58038600  0.86968600  1
  C  1462  1  0.69780900  0.58870200  0.87012500  1
  C  1463  1  0.70192300  0.61117800  0.87049000  1
  C  1484  1  0.13026600  0.80524400  0.05410600  1
  C  1485  1  0.13253100  0.82489900  0.04259700  1
  C  1486  1  0.15119900  0.83987300  0.04781500  1
  C  1487  1  0.16791000  0.83614100  0.06509100  1
  C  1488  1  0.16678600  0.81524300  0.07484400  1
  C  1489  1  0.14825700  0.80026400  0.06976600  1
  C  1490  1  0.18826500  0.85217300  0.07102600  1
  C  1491  1  0.20784400  0.84625000  0.05426100  1
  C  1492  1  0.22408400  0.82840800  0.05696300  1
  C  1493  1  0.24243400  0.82352900  0.04160200  1
  C  1494  1  0.24448800  0.83578600  0.02235100  1
  C  1495  1  0.22724700  0.85232800  0.01854400  1
  C  1496  1  0.20896700  0.85699400  0.03387800  1
  C  1497  1  0.18236900  0.87648000  0.07018900  1
  C  1498  1  0.19502500  0.85030100  0.09505700  1
  C  1499  1  0.21945100  0.85106800  0.10306000  1
  C  1500  1  0.22464500  0.85058200  0.12542900  1
  C  1501  1  0.20553000  0.85023800  0.14079300  1
  C  1502  1  0.18111400  0.84991000  0.13324100  1
  C  1503  1  0.17608800  0.85032200  0.11094400  1
  C  1504  1  0.15830900  0.88521600  0.07172100  1
  C  1505  1  0.15401200  0.90778500  0.07196700  1
  C  1506  1  0.17379100  0.92257600  0.07126400  1
  C  1507  1  0.19780700  0.91426900  0.07080000  1
  C  1508  1  0.20192800  0.89179200  0.07043300  1
  C  1529  1  0.38148500  0.83713900  0.52208000  1
  C  1530  1  0.38360200  0.82506800  0.54144000  1
  C  1531  1  0.40224400  0.82988200  0.55653800  1
  C  1532  1  0.41881200  0.84741300  0.55340200  1
  C  1533  1  0.41750200  0.85801100  0.53295400  1
  C  1534  1  0.39890000  0.85344700  0.51790700  1
  C  1535  1  0.43900500  0.85302400  0.56968400  1
  C  1536  1  0.45876000  0.83657900  0.56333100  1
  C  1537  1  0.47500100  0.83993100  0.54562400  1
  C  1538  1  0.49332600  0.82472000  0.54018100  1
  C  1539  1  0.49563000  0.80518800  0.55187800  1
  C  1540  1  0.47796300  0.80052400  0.56792800  1
  C  1541  1  0.45978300  0.81575400  0.57324100  1
  C  1542  1  0.43293000  0.85139500  0.59387200  1
  C  1543  1  0.44561200  0.87717500  0.56859900  1
  C  1544  1  0.46998200  0.88530200  0.56954700  1
  C  1545  1  0.47502200  0.90774200  0.56940000  1
  C  1546  1  0.45580000  0.92302400  0.56924300  1
  C  1547  1  0.43143400  0.91532800  0.56887300  1
  C  1548  1  0.42655900  0.89296700  0.56896100  1
  C  1549  1  0.40878800  0.85271200  0.60245600  1
  C  1550  1  0.40428200  0.85246200  0.62495000  1
  C  1551  1  0.42392400  0.85147600  0.63983800  1
  C  1552  1  0.44801500  0.85109000  0.63170100  1
  C  1553  1  0.45234800  0.85119800  0.60928600  1
  C  1574  1  0.88149000  0.66588800  0.41885100  1
  C  1575  1  0.88358400  0.67791900  0.39946400  1
  C  1576  1  0.90224600  0.67311000  0.38437200  1
  C  1577  1  0.91884200  0.65560600  0.38753500  1
  C  1578  1  0.91754700  0.64504700  0.40800600  1
  C  1579  1  0.89894500  0.64962400  0.42305600  1
  C  1580  1  0.93904800  0.64998600  0.37126100  1
  C  1581  1  0.95879300  0.66644000  0.37760100  1
  C  1582  1  0.97504300  0.66309100  0.39529300  1
  C  1583  1  0.99336800  0.67830700  0.40071900  1
  C  1584  1  0.99565100  0.69784600  0.38902700  1
  C  1585  1  0.97796500  0.70251200  0.37300500  1
  C  1586  1  0.95979800  0.68727000  0.36769900  1
  C  1587  1  0.93298700  0.65161200  0.34707500  1
  C  1588  1  0.94564700  0.62583500  0.37235900  1
  C  1589  1  0.97001800  0.61770700  0.37139600  1
  C  1590  1  0.97506100  0.59526800  0.37155000  1
  C  1591  1  0.95584200  0.57998500  0.37171300  1
  C  1592  1  0.93147400  0.58767800  0.37212200  1
  C  1593  1  0.92659800  0.61003900  0.37203400  1
  C  1594  1  0.90886200  0.65022400  0.33847900  1
  C  1595  1  0.90438900  0.65041300  0.31597900  1
  C  1596  1  0.92405000  0.65142800  0.30110500  1
  C  1597  1  0.94812800  0.65186800  0.30925300  1
  C  1598  1  0.95242900  0.65180200  0.33166900  1
  C  1619  1  0.13187100  0.19984500  0.05627800  1
  C  1620  1  0.13406100  0.18064400  0.04393300  1
  C  1621  1  0.15258000  0.16537900  0.04866400  1
  C  1622  1  0.16891000  0.16813900  0.06640300  1
  C  1623  1  0.16764400  0.18850500  0.07721500  1
  C  1624  1  0.14917800  0.20373400  0.07271400  1
  C  1625  1  0.18874000  0.15147800  0.07202500  1
  C  1626  1  0.20866400  0.15737600  0.05557700  1
  C  1627  1  0.22502800  0.17506200  0.05870700  1
  C  1628  1  0.24344800  0.18020600  0.04349300  1
  C  1629  1  0.24575200  0.16822600  0.02414700  1
  C  1630  1  0.22799900  0.15216800  0.01969500  1
  C  1631  1  0.20972400  0.14715800  0.03492800  1
  C  1632  1  0.18190700  0.12739600  0.07050900  1
  C  1633  1  0.19547400  0.15249800  0.09611300  1
  C  1634  1  0.21986000  0.15134200  0.10415600  1
  C  1635  1  0.22498800  0.15155100  0.12654300  1
  C  1636  1  0.20583200  0.15193300  0.14186900  1
  C  1637  1  0.18144500  0.15246600  0.13426100  1
  C  1638  1  0.17648600  0.15234500  0.11195200  1
  C  1639  1  0.15748400  0.11940600  0.07163000  1
  C  1640  1  0.15225000  0.09699900  0.07127900  1
  C  1641  1  0.17133400  0.08158800  0.07073500  1
  C  1642  1  0.19575300  0.08913600  0.07009300  1
  C  1643  1  0.20081800  0.11146700  0.07036300  1
  C  1664  1  0.63194700  0.30309900  0.88482300  1
  C  1665  1  0.63400600  0.32238900  0.89704700  1
  C  1666  1  0.65252000  0.33765700  0.89230700  1
  C  1667  1  0.66896900  0.33481200  0.87466100  1
  C  1668  1  0.66780200  0.31439500  0.86394400  1
  C  1669  1  0.64934400  0.29915800  0.86846000  1
  C  1670  1  0.68876800  0.35148400  0.86897500  1
  C  1671  1  0.70872500  0.34557600  0.88537700  1
  C  1672  1  0.72522500  0.32801100  0.88212900  1
  C  1673  1  0.74367300  0.32288500  0.89731200  1
  C  1674  1  0.74588200  0.33476900  0.91672300  1
  C  1675  1  0.72801800  0.35070500  0.92127000  1
  C  1676  1  0.70971000  0.35569800  0.90607300  1
  C  1677  1  0.68195100  0.37556900  0.87050400  1
  C  1678  1  0.69541600  0.35047600  0.84486500  1
  C  1679  1  0.71976500  0.35179400  0.83674600  1
  C  1680  1  0.72482000  0.35163800  0.81434200  1
  C  1681  1  0.70561800  0.35111700  0.79907400  1
  C  1682  1  0.68126300  0.35038700  0.80676500  1
  C  1683  1  0.67637600  0.35048000  0.82908800  1
  C  1684  1  0.65753600  0.38356100  0.86930500  1
  C  1685  1  0.65230700  0.40597000  0.86964000  1
  C  1686  1  0.67139300  0.42137600  0.87026600  1
  C  1687  1  0.69580700  0.41382300  0.87100200  1
  C  1688  1  0.70087000  0.39149000  0.87073500  1
  C  1709  1  0.74574300  0.66848600  0.52430100  1
  C  1710  1  0.74342100  0.68012300  0.54385200  1
  C  1711  1  0.72483200  0.67485100  0.55886400  1
  C  1712  1  0.70827400  0.65739600  0.55527600  1
  C  1713  1  0.70945100  0.64749500  0.53448000  1
  C  1714  1  0.72789100  0.65263200  0.51945700  1
  C  1715  1  0.68797400  0.65145800  0.57133900  1
  C  1716  1  0.66833000  0.66815700  0.56536800  1
  C  1717  1  0.65223900  0.66536300  0.54746700  1
  C  1718  1  0.63385200  0.68066500  0.54248000  1
  C  1719  1  0.63159500  0.69991700  0.55472900  1
  C  1720  1  0.64869600  0.70383700  0.57132200  1
  C  1721  1  0.66702300  0.68856600  0.57608600  1
  C  1722  1  0.69395200  0.65241300  0.59557800  1
  C  1723  1  0.68123600  0.62737600  0.56958400  1
  C  1724  1  0.65681000  0.61935300  0.57031300  1
  C  1725  1  0.65162900  0.59694400  0.56979500  1
  C  1726  1  0.67075700  0.58157400  0.56944700  1
  C  1727  1  0.69517000  0.58915300  0.56916100  1
  C  1728  1  0.70018800  0.61148800  0.56961000  1
  C  1729  1  0.71805600  0.65101800  0.60421500  1
  C  1730  1  0.72244800  0.65090600  0.62672600  1
  C  1731  1  0.70273000  0.65161700  0.64156400  1
  C  1732  1  0.67867800  0.65193100  0.63335800  1
  C  1733  1  0.67445800  0.65215500  0.61093200  1
  C  1754  1  0.24580300  0.83450700  0.41663500  1
  C  1755  1  0.24354400  0.82290300  0.39706000  1
  C  1756  1  0.22495500  0.82815800  0.38205300  1
  C  1757  1  0.20834300  0.84556800  0.38566100  1
  C  1758  1  0.20944500  0.85541400  0.40648900  1
  C  1759  1  0.22788900  0.85029900  0.42150500  1
  C  1760  1  0.18802700  0.85149500  0.36962300  1
  C  1761  1  0.16838700  0.83480600  0.37563400  1
  C  1762  1  0.15222200  0.83765000  0.39348200  1
  C  1763  1  0.13384800  0.82234300  0.39849100  1
  C  1764  1  0.13168600  0.80302400  0.38633600  1
  C  1765  1  0.14885500  0.79906200  0.36979600  1
  C  1766  1  0.16717300  0.81434100  0.36501100  1
  C  1767  1  0.19397200  0.85052300  0.34537500  1
  C  1768  1  0.18128900  0.87557500  0.37138000  1
  C  1769  1  0.15686800  0.88360800  0.37055500  1
  C  1770  1  0.15168500  0.90601500  0.37105900  1
  C  1771  1  0.17081500  0.92138200  0.37144000  1
  C  1772  1  0.19522700  0.91380000  0.37178300  1
  C  1773  1  0.20024200  0.89146400  0.37136700  1
  C  1774  1  0.21806300  0.85198000  0.33670900  1
  C  1775  1  0.22243900  0.85208100  0.31419000  1
  C  1776  1  0.20271500  0.85131800  0.29937500  1
  C  1777  1  0.17866800  0.85091900  0.30761100  1
  C  1778  1  0.17446600  0.85069500  0.33004200  1
  C  1799  1  0.99581400  0.30531200  0.05356400  1
  C  1800  1  0.99351100  0.32476900  0.04173700  1
  C  1801  1  0.97503400  0.33993300  0.04692700  1
  C  1802  1  0.95858900  0.33661300  0.06449500  1
  C  1803  1  0.95966700  0.31586600  0.07456300  1
  C  1804  1  0.97801000  0.30069200  0.06951200  1
  C  1805  1  0.93859300  0.35299800  0.07044900  1
  C  1806  1  0.91882400  0.34737600  0.05376000  1
  C  1807  1  0.90252900  0.32956500  0.05643900  1
  C  1808  1  0.88403200  0.32485300  0.04117700  1
  C  1809  1  0.88183300  0.33728700  0.02205300  1
  C  1810  1  0.89910100  0.35381100  0.01825200  1
  C  1811  1  0.91754900  0.35829400  0.03347900  1
  C  1812  1  0.94522300  0.37715700  0.06957700  1
  C  1813  1  0.93172200  0.35132200  0.09447200  1
  C  1814  1  0.90727300  0.35231000  0.10241300  1
  C  1815  1  0.90198600  0.35176800  0.12476700  1
  C  1816  1  0.92103500  0.35114300  0.14017600  1
  C  1817  1  0.94547600  0.35063700  0.13268300  1
  C  1818  1  0.95059700  0.35110300  0.11040100  1
  C  1819  1  0.96956300  0.38530200  0.07089000  1
  C  1820  1  0.97458300  0.40775300  0.07090100  1
  C  1821  1  0.95535900  0.42303400  0.07055700  1
  C  1822  1  0.93101200  0.41531200  0.06983500  1
  C  1823  1  0.92615900  0.39294600  0.06976300  1
  C  1844  1  0.49577800  0.19776100  0.88734600  1
  C  1845  1  0.49356200  0.17825800  0.89911500  1
  C  1846  1  0.47509600  0.16308100  0.89394100  1
  C  1847  1  0.45858300  0.16642900  0.87643800  1
  C  1848  1  0.45957500  0.18721500  0.86644300  1
  C  1849  1  0.47789900  0.20240600  0.87148300  1
  C  1850  1  0.43861300  0.15003000  0.87047700  1
  C  1851  1  0.41881100  0.15567300  0.88713700  1
  C  1852  1  0.40240300  0.17338400  0.88436100  1
  C  1853  1  0.38388100  0.17809300  0.89961200  1
  C  1854  1  0.38179800  0.16579400  0.91883400  1
  C  1855  1  0.39916700  0.14937300  0.92271300  1
  C  1856  1  0.41762200  0.14487700  0.90748600  1
  C  1857  1  0.44524000  0.12587300  0.87138400  1
  C  1858  1  0.43180000  0.15168600  0.84644600  1
  C  1859  1  0.40739100  0.15047900  0.83845700  1
  C  1860  1  0.40216700  0.15094400  0.81609100  1
  C  1861  1  0.42125500  0.15169200  0.80071500  1
  C  1862  1  0.44566600  0.15239400  0.80825800  1
  C  1863  1  0.45072100  0.15199000  0.83054900  1
  C  1864  1  0.46957500  0.11773000  0.86996400  1
  C  1865  1  0.47460200  0.09528200  0.86995500  1
  C  1866  1  0.45538300  0.07999700  0.87041200  1
  C  1867  1  0.43103900  0.08771300  0.87123400  1
  C  1868  1  0.42618000  0.11007900  0.87130400  1
  C  1889  1  0.04630300  0.26829200  0.39787000  1
  C  1891  1  0.06609700  0.24706300  0.37029800  1
  C  1892  1  0.08079000  0.23657200  0.38588900  1
  C  1894  1  0.06097400  0.25778600  0.41382600  1
  C  1896  1  0.05927600  0.26218800  0.43579800  1
  C  1899  1  0.02909900  0.28450000  0.40186600  1
  C  1901  1  0.09850800  0.22168200  0.37977000  1
  C  1903  1  0.54634900  0.23461000  0.54291200  1
  C  1905  1  0.56636700  0.25554900  0.57056400  1
  C  1906  1  0.58086200  0.26626300  0.55497200  1
  C  1908  1  0.56083000  0.24532400  0.52694500  1
  C  1910  1  0.55885300  0.24122500  0.50492900  1
  C  1913  1  0.52915200  0.21840800  0.53890800  1
  C  1915  1  0.59857400  0.28114800  0.56110700  1
  C  1917  1  0.29618500  0.82384700  0.98729900  1
  C  1919  1  0.31625800  0.85158800  0.96646400  1
  C  1920  1  0.33062500  0.83597900  0.95561400  1
  C  1922  1  0.31055400  0.80787400  0.97645300  1
  C  1924  1  0.30857900  0.78580100  0.98033700  1
  C  1927  1  0.27904300  0.81978900  0.00352400  1
  C  1929  1  0.34824600  0.84213200  0.94065200  1
  C  1931  1  0.79612900  0.67913000  0.95361000  1
  C  1933  1  0.81623600  0.65139600  0.97441600  1
  C  1934  1  0.83057200  0.66701300  0.98527700  1
  C  1936  1  0.81046500  0.69511300  0.96446800  1
  C  1938  1  0.80845500  0.71718600  0.96060500  1
  C  1941  1  0.77899600  0.68317600  0.93738400  1
  C  1943  1  0.84820900  0.66087100  0.00021700  1
  C  1945  1  0.57985900  0.73482600  0.54258400  1
  C  1947  1  0.55992600  0.75588300  0.57021000  1
  C  1948  1  0.54524500  0.76640800  0.55463200  1
  C  1950  1  0.56519100  0.74536300  0.52664600  1
  C  1952  1  0.56695200  0.74105700  0.50465700  1
  C  1955  1  0.59712000  0.71867700  0.53854400  1
  C  1957  1  0.52755500  0.78131300  0.56076500  1
  C  1959  1  0.07982200  0.76824000  0.39840500  1
  C  1961  1  0.05965800  0.74747500  0.37070400  1
  C  1962  1  0.04518200  0.73672300  0.38628400  1
  C  1964  1  0.06535400  0.75749100  0.41435800  1
  C  1966  1  0.06739900  0.76149200  0.43638400  1
  C  1969  1  0.09708100  0.78438100  0.40244800  1
  C  1971  1  0.02749900  0.72182200  0.38013600  1
  C  1973  1  0.32978500  0.17753500  0.95359300  1
  C  1975  1  0.30934600  0.14973500  0.97406300  1
  C  1976  1  0.29505900  0.16533800  0.98500500  1
  C  1978  1  0.31549400  0.19350500  0.96452500  1
  C  1980  1  0.31769600  0.21560200  0.96087800  1
  C  1983  1  0.34705900  0.18163700  0.93749000  1
  C  1985  1  0.27733100  0.15917600  0.99986400  1
  C  1987  1  0.82990100  0.32549400  0.98724400  1
  C  1989  1  0.80941800  0.35329300  0.96681500  1
  C  1990  1  0.79515100  0.33768600  0.95586700  1
  C  1992  1  0.81563100  0.30952100  0.97630200  1
  C  1994  1  0.81785900  0.28742300  0.97992900  1
  C  1997  1  0.84718000  0.32139300  0.00333100  1
  C  1999  1  0.77740100  0.34384200  0.94103700  1
  C  2001  1  0.54605400  0.76827400  0.89600100  1
  C  2003  1  0.56598300  0.74714600  0.86841900  1
  C  2004  1  0.58066600  0.73663000  0.88400900  1
  C  2006  1  0.56070900  0.75773900  0.91195400  1
  C  2008  1  0.55895000  0.76208300  0.93393300  1
  C  2011  1  0.52880200  0.78444900  0.90003400  1
  C  2013  1  0.59845700  0.72178700  0.87789600  1
  C  2015  1  0.04612900  0.73466700  0.04482600  1
  C  2017  1  0.06625300  0.75551600  0.07249300  1
  C  2018  1  0.08075500  0.76624900  0.05691200  1
  C  2020  1  0.06061100  0.74540300  0.02887100  1
  C  2022  1  0.05860500  0.74134500  0.00685200  1
  C  2025  1  0.02888400  0.71849900  0.04077700  1
  C  2027  1  0.09854300  0.78107900  0.06305400  1
  C  2029  1  0.79660800  0.32373700  0.48741900  1
  C  2031  1  0.81638700  0.35142200  0.46630300  1
  C  2032  1  0.83072300  0.33579600  0.45544800  1
  C  2034  1  0.81094200  0.30773900  0.47657200  1
  C  2036  1  0.80906400  0.28567900  0.48057300  1
  C  2039  1  0.77959600  0.31974900  0.50376100  1
  C  2041  1  0.84828300  0.34194200  0.44043800  1
  C  2043  1  0.29656500  0.17920800  0.45339800  1
  C  2045  1  0.31640000  0.15152000  0.47445900  1
  C  2046  1  0.33070300  0.16715200  0.48533100  1
  C  2048  1  0.31086800  0.19520900  0.46426200  1
  C  2050  1  0.30894400  0.21727200  0.46029600  1
  C  2053  1  0.27954200  0.18319700  0.43707400  1
  C  2055  1  0.34827700  0.16101300  0.50032100  1
  C  2057  1  0.08002600  0.23480000  0.04440100  1
  C  2059  1  0.05989200  0.25568900  0.07204800  1
  C  2060  1  0.04529600  0.26630800  0.05646600  1
  C  2062  1  0.06545100  0.24543700  0.02845800  1
  C  2064  1  0.06734700  0.24126800  0.00645400  1
  C  2067  1  0.09731800  0.21867700  0.04032000  1
  C  2069  1  0.02753100  0.28116500  0.06258900  1
  C  2071  1  0.57993800  0.26829600  0.89659200  1
  C  2073  1  0.55952400  0.24774800  0.86886600  1
  C  2074  1  0.54514800  0.23688700  0.88444800  1
  C  2076  1  0.56557600  0.25743300  0.91254500  1
  C  2078  1  0.56778600  0.26127300  0.93458800  1
  C  2081  1  0.59724100  0.28440100  0.90068100  1
  C  2083  1  0.52736800  0.22205200  0.87830800  1
  C  2085  1  0.82953600  0.67783000  0.45356600  1
  C  2087  1  0.80953500  0.65010900  0.47447800  1
  C  2088  1  0.79515500  0.66572400  0.48530400  1
  C  2090  1  0.81515200  0.69381400  0.46438600  1
  C  2092  1  0.81709600  0.71588100  0.46045900  1
  C  2095  1  0.84669100  0.68186000  0.43734900  1
  C  2097  1  0.77749600  0.65956700  0.50022400  1
  C  2099  1  0.32954400  0.82520200  0.48737200  1
  C  2101  1  0.30950700  0.85292500  0.46650400  1
  C  2102  1  0.29515500  0.83730600  0.45566200  1
  C  2104  1  0.31519100  0.80921500  0.47653900  1
  C  2106  1  0.31717000  0.78714600  0.48043500  1
  C  2109  1  0.34670400  0.82117000  0.50357500  1
  C  2111  1  0.27749400  0.84345600  0.44075200  1
  C  2113  1  0.21807600  0.15247400  0.24370100  1
  C  2115  1  0.19802500  0.13125100  0.21638500  1
  C  2116  1  0.20723500  0.14490000  0.19995800  1
  C  2118  1  0.22779000  0.16625300  0.22729800  1
  C  2120  1  0.24160900  0.18475200  0.23095900  1
  C  2123  1  0.22218900  0.15483700  0.26570500  1
  C  2125  1  0.20071700  0.14203900  0.17848800  1
  C  2127  1  0.71770800  0.35066600  0.69720500  1
  C  2129  1  0.69625400  0.37092200  0.72444100  1
  C  2130  1  0.70661400  0.35804900  0.74094600  1
  C  2132  1  0.72834100  0.33746700  0.71364200  1
  C  2134  1  0.74417300  0.32032700  0.70944400  1
  C  2137  1  0.72199200  0.34843700  0.67518400  1
  C  2139  1  0.70017500  0.36086500  0.76244800  1
  C  2141  1  0.46711500  0.97791100  0.87001800  1
  C  2143  1  0.44608500  0.00545200  0.84981700  1
  C  2144  1  0.45630200  0.02183400  0.86295500  1
  C  2146  1  0.47760400  0.99422500  0.88346700  1
  C  2148  1  0.49309100  0.98988300  0.90075100  1
  C  2151  1  0.47125700  0.95581900  0.87211800  1
  C  2153  1  0.44993100  0.04341100  0.86031700  1
  C  2155  1  0.96707300  0.52512000  0.07081600  1
  C  2157  1  0.94604800  0.49760700  0.09107300  1
  C  2158  1  0.95628900  0.48120300  0.07796900  1
  C  2160  1  0.97758900  0.50878400  0.05740400  1
  C  2162  1  0.99308000  0.51310000  0.04010600  1
  C  2165  1  0.97119900  0.54720700  0.06866800  1
  C  2167  1  0.94993100  0.45962800  0.08064600  1
  C  2169  1  0.90783800  0.35043900  0.24191700  1
  C  2171  1  0.92778800  0.37189800  0.21472100  1
  C  2172  1  0.91906900  0.35805200  0.19825400  1
  C  2174  1  0.89862100  0.33645000  0.22547200  1
  C  2176  1  0.88516300  0.31773100  0.22906500  1
  C  2179  1  0.90355400  0.34803100  0.26389300  1
  C  2181  1  0.92576700  0.36096400  0.17683100  1
  C  2183  1  0.40820700  0.15230200  0.69894800  1
  C  2185  1  0.42960500  0.13180500  0.72602200  1
  C  2186  1  0.41968800  0.14487100  0.74259400  1
  C  2188  1  0.39803800  0.16571000  0.71545100  1
  C  2190  1  0.38250500  0.18308900  0.71136400  1
  C  2193  1  0.40374300  0.15457300  0.67696300  1
  C  2195  1  0.42632700  0.14201600  0.76404100  1
  C  2197  1  0.65857700  0.52335000  0.87008500  1
  C  2199  1  0.67943300  0.49597100  0.84951800  1
  C  2200  1  0.66979900  0.47952700  0.86292400  1
  C  2202  1  0.64868100  0.50697200  0.88381100  1
  C  2204  1  0.63362300  0.51120700  0.90142500  1
  C  2207  1  0.65425100  0.54540100  0.87225900  1
  C  2209  1  0.67637200  0.45800600  0.86021400  1
  C  2211  1  0.15853900  0.97961000  0.07087000  1
  C  2213  1  0.17934300  0.00698300  0.09147300  1
  C  2214  1  0.16970700  0.02343500  0.07808300  1
  C  2216  1  0.14863700  0.99599400  0.05716400  1
  C  2218  1  0.13361000  0.99176700  0.03953700  1
  C  2221  1  0.15423800  0.95755600  0.06867000  1
  C  2223  1  0.17625800  0.04495800  0.08081600  1
  C  2225  1  0.40789100  0.85072600  0.69658300  1
  C  2227  1  0.42757100  0.87178200  0.72423200  1
  C  2228  1  0.41841700  0.85786400  0.74045800  1
  C  2230  1  0.39823300  0.83667200  0.71278000  1
  C  2232  1  0.38463000  0.81810500  0.70884000  1
  C  2235  1  0.40393700  0.84857800  0.67453500  1
  C  2237  1  0.42477500  0.86053300  0.76199100  1
  C  2239  1  0.90827500  0.65207700  0.24427200  1
  C  2241  1  0.92938200  0.63198700  0.21670600  1
  C  2242  1  0.91905800  0.64513500  0.20039900  1
  C  2244  1  0.89768200  0.66555200  0.22803900  1
  C  2246  1  0.88204000  0.68276100  0.23250800  1
  C  2249  1  0.90414800  0.65408900  0.26633700  1
  C  2251  1  0.92534100  0.64251600  0.17883500  1
  C  2253  1  0.71840300  0.65228000  0.69836300  1
  C  2255  1  0.69883400  0.63097200  0.72589200  1
  C  2256  1  0.70739000  0.64514300  0.74214800  1
  C  2258  1  0.72743800  0.66666667  0.71458400  1
  C  2260  1  0.74065800  0.68539800  0.71059000  1
  C  2263  1  0.72251400  0.65443300  0.67633700  1
  C  2265  1  0.70080600  0.64244300  0.76362600  1
  C  2267  1  0.21838600  0.85068600  0.24256400  1
  C  2269  1  0.19880100  0.87199400  0.21505700  1
  C  2270  1  0.20738800  0.85784700  0.19878600  1
  C  2272  1  0.22747300  0.83637700  0.22632800  1
  C  2274  1  0.24067700  0.81759400  0.23030400  1
  C  2277  1  0.22248800  0.84851500  0.26458600  1
  C  2279  1  0.20080200  0.86054700  0.17731200  1
  C  2281  1  0.96782500  0.47798900  0.37155800  1
  C  2283  1  0.94697800  0.50544000  0.35109600  1
  C  2284  1  0.95701400  0.52186000  0.36429100  1
  C  2286  1  0.97815200  0.49434100  0.38505700  1
  C  2288  1  0.99348200  0.48999900  0.40248600  1
  C  2291  1  0.97195500  0.45591300  0.37375800  1
  C  2293  1  0.95067400  0.54341900  0.36152100  1
  C  2295  1  0.46780800  0.02501200  0.56937100  1
  C  2297  1  0.44698700  0.99756900  0.58987700  1
  C  2298  1  0.45697900  0.98114900  0.57665500  1
  C  2300  1  0.47807400  0.00866400  0.55582400  1
  C  2302  1  0.49339800  0.01301200  0.53838600  1
  C  2305  1  0.47194600  0.04708600  0.56719300  1
  C  2307  1  0.45064000  0.95959100  0.57943800  1
  C  2309  1  0.15798700  0.02330100  0.37145700  1
  C  2311  1  0.17874300  0.99597400  0.35074900  1
  C  2312  1  0.16914100  0.97950600  0.36414100  1
  C  2314  1  0.14812000  0.00689800  0.38516500  1
  C  2316  1  0.13311800  0.01109500  0.40282400  1
  C  2319  1  0.15370100  0.04534500  0.37369200  1
  C  2321  1  0.17566400  0.95799400  0.36133500  1
  C  2323  1  0.65795900  0.47965000  0.56935600  1
  C  2325  1  0.67870700  0.50696500  0.59007200  1
  C  2326  1  0.66907900  0.52344500  0.57671400  1
  C  2328  1  0.64806000  0.49606400  0.55568700  1
  C  2330  1  0.63304900  0.49187800  0.53803800  1
  C  2333  1  0.65369200  0.45760700  0.56709600  1
  C  2335  1  0.67557300  0.54496000  0.57955000  1
  C  2337  1  0.55656900  0.16718500  0.41854400  1
  C  2338  1  0.55468200  0.17900600  0.39901400  1
  C  2339  1  0.53618100  0.17403700  0.38383100  1
  C  2340  1  0.51953300  0.15658800  0.38708000  1
  C  2341  1  0.52059500  0.14626600  0.40768100  1
  C  2342  1  0.53905900  0.15098200  0.42280700  1
  C  2343  1  0.49951700  0.15066400  0.37074800  1
  C  2344  1  0.47941700  0.16676000  0.37713300  1
  C  2345  1  0.46277000  0.16292600  0.39444000  1
  C  2346  1  0.44426400  0.17796200  0.39991400  1
  C  2347  1  0.44214400  0.19776000  0.38863600  1
  C  2348  1  0.46012200  0.20283500  0.37298900  1
  C  2349  1  0.47848300  0.18778800  0.36765100  1
  C  2350  1  0.50543000  0.15248400  0.34654100  1
  C  2351  1  0.49366500  0.12636200  0.37180000  1
  C  2352  1  0.46958700  0.11763700  0.37048900  1
  C  2353  1  0.46527500  0.09507600  0.37036500  1
  C  2354  1  0.48505600  0.08028800  0.37096300  1
  C  2355  1  0.50908300  0.08857700  0.37121000  1
  C  2356  1  0.51322000  0.11105200  0.37145700  1
  C  2357  1  0.52953100  0.15128800  0.33785200  1
  C  2358  1  0.53390700  0.15147400  0.31533700  1
  C  2359  1  0.51417400  0.15230900  0.30053400  1
  C  2360  1  0.49012900  0.15265100  0.30877900  1
  C  2361  1  0.48592400  0.15258200  0.33121200  1
  C  2382  1  0.05659300  0.33575200  0.52228100  1
  C  2383  1  0.05473600  0.32397400  0.54184300  1
  C  2384  1  0.03621300  0.32893700  0.55701900  1
  C  2385  1  0.01952800  0.34634900  0.55373900  1
  C  2386  1  0.02056000  0.35662200  0.53311200  1
  C  2387  1  0.03903300  0.35190100  0.51798500  1
  C  2388  1  0.99950100  0.35228500  0.57006800  1
  C  2389  1  0.97941000  0.33617900  0.56369700  1
  C  2390  1  0.96274500  0.34001100  0.54641300  1
  C  2391  1  0.94423700  0.32497000  0.54096300  1
  C  2392  1  0.94213700  0.30516700  0.55223400  1
  C  2393  1  0.96013700  0.30009200  0.56785100  1
  C  2394  1  0.97849300  0.31514600  0.57317100  1
  C  2395  1  0.00539901  0.35047100  0.59427300  1
  C  2396  1  0.99366200  0.37658800  0.56900000  1
  C  2397  1  0.96958200  0.38531500  0.57032000  1
  C  2398  1  0.96526800  0.40787500  0.57043100  1
  C  2399  1  0.98505100  0.42266400  0.56982900  1
  C  2400  1  0.00907601  0.41437500  0.56954300  1
  C  2401  1  0.01321500  0.39190100  0.56929700  1
  C  2402  1  0.02948000  0.35175500  0.60297800  1
  C  2403  1  0.03382500  0.35161000  0.62549700  1
  C  2404  1  0.01407000  0.35074400  0.64028500  1
  C  2405  1  0.99004000  0.35035300  0.63202700  1
  C  2406  1  0.98587100  0.35038100  0.60959100  1
  C  2427  1  0.80580500  0.80303000  0.88411500  1
  C  2428  1  0.80371900  0.82244700  0.89613700  1
  C  2429  1  0.78501500  0.83754100  0.89139700  1
  C  2430  1  0.76835000  0.83435300  0.87398000  1
  C  2431  1  0.76959600  0.81381900  0.86348600  1
  C  2432  1  0.78825200  0.79877500  0.86797800  1
  C  2433  1  0.74815000  0.85066100  0.86837100  1
  C  2434  1  0.72841200  0.84441300  0.88486100  1
  C  2435  1  0.71206100  0.82673900  0.88163100  1
  C  2436  1  0.69377000  0.82140900  0.89690400  1
  C  2437  1  0.69160000  0.83317900  0.91638800  1
  C  2438  1  0.70937800  0.84919000  0.92092300  1
  C  2439  1  0.72752400  0.85438500  0.90563700  1
  C  2440  1  0.75421400  0.87490000  0.86989800  1
  C  2441  1  0.74155100  0.84948600  0.84425800  1
  C  2442  1  0.71719100  0.85043200  0.83612700  1
  C  2443  1  0.71217000  0.85028000  0.81371900  1
  C  2444  1  0.73140300  0.85016000  0.79846400  1
  C  2445  1  0.75575900  0.84977700  0.80616100  1
  C  2446  1  0.76061000  0.84984200  0.82848800  1
  C  2447  1  0.77834200  0.88351900  0.86851600  1
  C  2448  1  0.78281500  0.90606100  0.86863100  1
  C  2449  1  0.76315200  0.92096000  0.86956500  1
  C  2450  1  0.73907500  0.91278800  0.87000900  1
  C  2451  1  0.73477800  0.89033200  0.87002500  1
  C  2472  1  0.30573900  0.70003300  0.05657900  1
  C  2473  1  0.30380200  0.68052500  0.04468500  1
  C  2474  1  0.28510700  0.66542100  0.04942500  1
  C  2475  1  0.26830800  0.66868900  0.06673200  1
  C  2476  1  0.26943700  0.68927700  0.07712800  1
  C  2477  1  0.28808300  0.70433600  0.07262900  1
  C  2478  1  0.24813600  0.65236800  0.07239600  1
  C  2479  1  0.22837200  0.65864000  0.05595400  1
  C  2480  1  0.21186800  0.67617800  0.05931400  1
  C  2481  1  0.19355400  0.68150200  0.04407100  1
  C  2482  1  0.19150600  0.66985500  0.02450200  1
  C  2483  1  0.20940300  0.65397600  0.01986600  1
  C  2484  1  0.22757800  0.64879000  0.03511900  1
  C  2485  1  0.25417900  0.62812600  0.07084000  1
  C  2486  1  0.24162400  0.65351700  0.09653000  1
  C  2487  1  0.21729800  0.65239200  0.10473700  1
  C  2488  1  0.21235000  0.65248500  0.12716000  1
  C  2489  1  0.23163100  0.65275200  0.14235700  1
  C  2490  1  0.25595600  0.65334300  0.13458000  1
  C  2491  1  0.26073500  0.65331500  0.11223900  1
  C  2492  1  0.27829500  0.61950000  0.07231300  1
  C  2493  1  0.28275600  0.59695700  0.07221000  1
  C  2494  1  0.26309400  0.58206600  0.07115200  1
  C  2495  1  0.23902500  0.59024800  0.07061700  1
  C  2496  1  0.23473600  0.61270500  0.07060200  1
  C  2517  1  0.19170600  0.33308800  0.41628100  1
  C  2518  1  0.19379300  0.32173200  0.39654400  1
  C  2519  1  0.21226600  0.32716700  0.38147400  1
  C  2520  1  0.22892900  0.34450500  0.38521300  1
  C  2521  1  0.22800300  0.35409000  0.40617000  1
  C  2522  1  0.20968000  0.34879200  0.42124300  1
  C  2523  1  0.24906400  0.35078100  0.36912300  1
  C  2524  1  0.26904100  0.33441300  0.37512000  1
  C  2525  1  0.28556200  0.33767000  0.39263100  1
  C  2526  1  0.30411600  0.32252000  0.39762000  1
  C  2527  1  0.30616200  0.30300300  0.38576300  1
  C  2528  1  0.28872500  0.29868700  0.36954900  1
  C  2529  1  0.27022200  0.31379300  0.36479700  1
  C  2530  1  0.24327400  0.34967200  0.34485300  1
  C  2531  1  0.25504100  0.37501500  0.37088500  1
  C  2532  1  0.27917800  0.38365700  0.36982900  1
  C  2533  1  0.28362100  0.40619500  0.37010600  1
  C  2534  1  0.26392500  0.42106300  0.37090200  1
  C  2535  1  0.23985000  0.41287500  0.37102100  1
  C  2536  1  0.23557900  0.39041800  0.37087700  1
  C  2537  1  0.21922400  0.35096100  0.33608500  1
  C  2538  1  0.21499300  0.35114300  0.31354900  1
  C  2539  1  0.23482000  0.35059300  0.29882200  1
  C  2540  1  0.25881500  0.35032900  0.30716100  1
  C  2541  1  0.26287600  0.35004300  0.32960800  1
  C  2562  1  0.69162200  0.16989900  0.52452600  1
  C  2563  1  0.69360500  0.18116000  0.54432400  1
  C  2564  1  0.71208300  0.17573400  0.55938000  1
  C  2565  1  0.72885500  0.15849400  0.55556400  1
  C  2566  1  0.72804200  0.14903500  0.53454600  1
  C  2567  1  0.70970600  0.15431600  0.51949000  1
  C  2568  1  0.74901800  0.15221200  0.57160700  1
  C  2569  1  0.76898200  0.16858000  0.56557300  1
  C  2570  1  0.78562000  0.16526200  0.54815400  1
  C  2571  1  0.80416100  0.18042500  0.54315800  1
  C  2572  1  0.80606700  0.20002300  0.55489900  1
  C  2573  1  0.78851800  0.20438800  0.57101900  1
  C  2574  1  0.77002500  0.18926900  0.57577200  1
  C  2575  1  0.74328800  0.15331400  0.59589000  1
  C  2576  1  0.75499800  0.12798200  0.56981600  1
  C  2577  1  0.77912200  0.11933300  0.57103800  1
  C  2578  1  0.78356800  0.09679500  0.57080800  1
  C  2579  1  0.76387600  0.08192900  0.56991700  1
  C  2580  1  0.73980500  0.09011800  0.56965500  1
  C  2581  1  0.73553500  0.11257700  0.56976200  1
  C  2582  1  0.71926600  0.15185600  0.60471200  1
  C  2583  1  0.71507400  0.15165100  0.62725700  1
  C  2584  1  0.73492800  0.15228600  0.64194000  1
  C  2585  1  0.75890300  0.15273500  0.63355100  1
  C  2586  1  0.76291700  0.15307000  0.61109700  1
  C  2607  1  0.94200700  0.69770800  0.88686100  1
  C  2608  1  0.94426400  0.67804900  0.89836600  1
  C  2609  1  0.96293400  0.66307600  0.89313800  1
  C  2610  1  0.97965800  0.66681800  0.87586700  1
  C  2611  1  0.97854100  0.68771900  0.86611900  1
  C  2612  1  0.96000300  0.70269400  0.87120000  1
  C  2613  1  0.00001601  0.65079400  0.86991100  1
  C  2614  1  0.01959400  0.65671600  0.88666900  1
  C  2615  1  0.03583500  0.67455700  0.88396100  1
  C  2616  1  0.05417100  0.67944400  0.89932200  1
  C  2617  1  0.05624500  0.66716000  0.91855200  1
  C  2618  1  0.03900400  0.65062000  0.92236700  1
  C  2619  1  0.02071400  0.64596700  0.90704900  1
  C  2620  1  0.99412700  0.62648500  0.87074700  1
  C  2621  1  0.00677101  0.65266300  0.84587400  1
  C  2622  1  0.03120100  0.65194300  0.83786400  1
  C  2623  1  0.03639600  0.65244100  0.81549200  1
  C  2624  1  0.01728300  0.65277000  0.80013800  1
  C  2625  1  0.99286600  0.65308500  0.80770000  1
  C  2626  1  0.98783300  0.65266300  0.82999800  1
  C  2627  1  0.97007300  0.61774300  0.86921200  1
  C  2628  1  0.96578600  0.59517400  0.86897900  1
  C  2629  1  0.98556800  0.58038600  0.86968600  1
  C  2630  1  0.00958001  0.58870200  0.87012500  1
  C  2631  1  0.01369400  0.61117800  0.87049000  1
  C  2652  1  0.44203700  0.80524400  0.05410600  1
  C  2653  1  0.44430200  0.82489900  0.04259700  1
  C  2654  1  0.46297000  0.83987300  0.04781500  1
  C  2655  1  0.47968100  0.83614100  0.06509100  1
  C  2656  1  0.47855700  0.81524300  0.07484400  1
  C  2657  1  0.46002800  0.80026400  0.06976600  1
  C  2658  1  0.50003600  0.85217300  0.07102600  1
  C  2659  1  0.51961500  0.84625000  0.05426100  1
  C  2660  1  0.53585500  0.82840800  0.05696300  1
  C  2661  1  0.55420500  0.82352900  0.04160200  1
  C  2662  1  0.55625900  0.83578600  0.02235100  1
  C  2663  1  0.53901800  0.85232800  0.01854400  1
  C  2664  1  0.52073800  0.85699400  0.03387800  1
  C  2665  1  0.49414000  0.87648000  0.07018900  1
  C  2666  1  0.50679600  0.85030100  0.09505700  1
  C  2667  1  0.53122200  0.85106800  0.10306000  1
  C  2668  1  0.53641600  0.85058200  0.12542900  1
  C  2669  1  0.51730100  0.85023800  0.14079300  1
  C  2670  1  0.49288500  0.84991000  0.13324100  1
  C  2671  1  0.48785900  0.85032200  0.11094400  1
  C  2672  1  0.47008000  0.88521600  0.07172100  1
  C  2673  1  0.46578300  0.90778500  0.07196700  1
  C  2674  1  0.48556200  0.92257600  0.07126400  1
  C  2675  1  0.50957800  0.91426900  0.07080000  1
  C  2676  1  0.51369900  0.89179200  0.07043300  1
  C  2697  1  0.69325600  0.83713900  0.52208000  1
  C  2698  1  0.69537300  0.82506800  0.54144000  1
  C  2699  1  0.71401500  0.82988200  0.55653800  1
  C  2700  1  0.73058300  0.84741300  0.55340200  1
  C  2701  1  0.72927300  0.85801100  0.53295400  1
  C  2702  1  0.71067100  0.85344700  0.51790700  1
  C  2703  1  0.75077600  0.85302400  0.56968400  1
  C  2704  1  0.77053100  0.83657900  0.56333100  1
  C  2705  1  0.78677200  0.83993100  0.54562400  1
  C  2706  1  0.80509700  0.82472000  0.54018100  1
  C  2707  1  0.80740100  0.80518800  0.55187800  1
  C  2708  1  0.78973400  0.80052400  0.56792800  1
  C  2709  1  0.77155400  0.81575400  0.57324100  1
  C  2710  1  0.74470100  0.85139500  0.59387200  1
  C  2711  1  0.75738300  0.87717500  0.56859900  1
  C  2712  1  0.78175300  0.88530200  0.56954700  1
  C  2713  1  0.78679300  0.90774200  0.56940000  1
  C  2714  1  0.76757100  0.92302400  0.56924300  1
  C  2715  1  0.74320500  0.91532800  0.56887300  1
  C  2716  1  0.73833000  0.89296700  0.56896100  1
  C  2717  1  0.72055900  0.85271200  0.60245600  1
  C  2718  1  0.71605300  0.85246200  0.62495000  1
  C  2719  1  0.73569500  0.85147600  0.63983800  1
  C  2720  1  0.75978600  0.85109000  0.63170100  1
  C  2721  1  0.76411900  0.85119800  0.60928600  1
  C  2742  1  0.19326100  0.66588800  0.41885100  1
  C  2743  1  0.19535500  0.67791900  0.39946400  1
  C  2744  1  0.21401700  0.67311000  0.38437200  1
  C  2745  1  0.23061300  0.65560600  0.38753500  1
  C  2746  1  0.22931800  0.64504700  0.40800600  1
  C  2747  1  0.21071600  0.64962400  0.42305600  1
  C  2748  1  0.25081900  0.64998600  0.37126100  1
  C  2749  1  0.27056400  0.66644000  0.37760100  1
  C  2750  1  0.28681400  0.66309100  0.39529300  1
  C  2751  1  0.30513900  0.67830700  0.40071900  1
  C  2752  1  0.30742200  0.69784600  0.38902700  1
  C  2753  1  0.28973600  0.70251200  0.37300500  1
  C  2754  1  0.27156900  0.68727000  0.36769900  1
  C  2755  1  0.24475800  0.65161200  0.34707500  1
  C  2756  1  0.25741800  0.62583500  0.37235900  1
  C  2757  1  0.28178900  0.61770700  0.37139600  1
  C  2758  1  0.28683200  0.59526800  0.37155000  1
  C  2759  1  0.26761300  0.57998500  0.37171300  1
  C  2760  1  0.24324500  0.58767800  0.37212200  1
  C  2761  1  0.23836900  0.61003900  0.37203400  1
  C  2762  1  0.22063300  0.65022400  0.33847900  1
  C  2763  1  0.21616000  0.65041300  0.31597900  1
  C  2764  1  0.23582100  0.65142800  0.30110500  1
  C  2765  1  0.25989900  0.65186800  0.30925300  1
  C  2766  1  0.26420000  0.65180200  0.33166900  1
  C  2787  1  0.44364200  0.19984500  0.05627800  1
  C  2788  1  0.44583200  0.18064400  0.04393300  1
  C  2789  1  0.46435100  0.16537900  0.04866400  1
  C  2790  1  0.48068100  0.16813900  0.06640300  1
  C  2791  1  0.47941500  0.18850500  0.07721500  1
  C  2792  1  0.46094900  0.20373400  0.07271400  1
  C  2793  1  0.50051100  0.15147800  0.07202500  1
  C  2794  1  0.52043500  0.15737600  0.05557700  1
  C  2795  1  0.53679900  0.17506200  0.05870700  1
  C  2796  1  0.55521900  0.18020600  0.04349300  1
  C  2797  1  0.55752300  0.16822600  0.02414700  1
  C  2798  1  0.53977000  0.15216800  0.01969500  1
  C  2799  1  0.52149500  0.14715800  0.03492800  1
  C  2800  1  0.49367800  0.12739600  0.07050900  1
  C  2801  1  0.50724500  0.15249800  0.09611300  1
  C  2802  1  0.53163100  0.15134200  0.10415600  1
  C  2803  1  0.53675900  0.15155100  0.12654300  1
  C  2804  1  0.51760300  0.15193300  0.14186900  1
  C  2805  1  0.49321600  0.15246600  0.13426100  1
  C  2806  1  0.48825700  0.15234500  0.11195200  1
  C  2807  1  0.46925500  0.11940600  0.07163000  1
  C  2808  1  0.46402100  0.09699900  0.07127900  1
  C  2809  1  0.48310500  0.08158800  0.07073500  1
  C  2810  1  0.50752400  0.08913600  0.07009300  1
  C  2811  1  0.51258900  0.11146700  0.07036300  1
  C  2832  1  0.94371800  0.30309900  0.88482300  1
  C  2833  1  0.94577700  0.32238900  0.89704700  1
  C  2834  1  0.96429100  0.33765700  0.89230700  1
  C  2835  1  0.98074000  0.33481200  0.87466100  1
  C  2836  1  0.97957300  0.31439500  0.86394400  1
  C  2837  1  0.96111500  0.29915800  0.86846000  1
  C  2838  1  0.00053901  0.35148400  0.86897500  1
  C  2839  1  0.02049600  0.34557600  0.88537700  1
  C  2840  1  0.03699600  0.32801100  0.88212900  1
  C  2841  1  0.05544400  0.32288500  0.89731200  1
  C  2842  1  0.05765300  0.33476900  0.91672300  1
  C  2843  1  0.03978900  0.35070500  0.92127000  1
  C  2844  1  0.02148100  0.35569800  0.90607300  1
  C  2845  1  0.99372200  0.37556900  0.87050400  1
  C  2846  1  0.00718701  0.35047600  0.84486500  1
  C  2847  1  0.03153600  0.35179400  0.83674600  1
  C  2848  1  0.03659100  0.35163800  0.81434200  1
  C  2849  1  0.01738900  0.35111700  0.79907400  1
  C  2850  1  0.99303400  0.35038700  0.80676500  1
  C  2851  1  0.98814700  0.35048000  0.82908800  1
  C  2852  1  0.96930700  0.38356100  0.86930500  1
  C  2853  1  0.96407800  0.40597000  0.86964000  1
  C  2854  1  0.98316400  0.42137600  0.87026600  1
  C  2855  1  0.00757801  0.41382300  0.87100200  1
  C  2856  1  0.01264100  0.39149000  0.87073500  1
  C  2877  1  0.05751400  0.66848600  0.52430100  1
  C  2878  1  0.05519200  0.68012300  0.54385200  1
  C  2879  1  0.03660300  0.67485100  0.55886400  1
  C  2880  1  0.02004500  0.65739600  0.55527600  1
  C  2881  1  0.02122200  0.64749500  0.53448000  1
  C  2882  1  0.03966200  0.65263200  0.51945700  1
  C  2883  1  0.99974500  0.65145800  0.57133900  1
  C  2884  1  0.98010100  0.66815700  0.56536800  1
  C  2885  1  0.96401000  0.66536300  0.54746700  1
  C  2886  1  0.94562300  0.68066500  0.54248000  1
  C  2887  1  0.94336600  0.69991700  0.55472900  1
  C  2888  1  0.96046700  0.70383700  0.57132200  1
  C  2889  1  0.97879400  0.68856600  0.57608600  1
  C  2890  1  0.00572301  0.65241300  0.59557800  1
  C  2891  1  0.99300700  0.62737600  0.56958400  1
  C  2892  1  0.96858100  0.61935300  0.57031300  1
  C  2893  1  0.96340000  0.59694400  0.56979500  1
  C  2894  1  0.98252800  0.58157400  0.56944700  1
  C  2895  1  0.00694101  0.58915300  0.56916100  1
  C  2896  1  0.01195900  0.61148800  0.56961000  1
  C  2897  1  0.02982700  0.65101800  0.60421500  1
  C  2898  1  0.03421900  0.65090600  0.62672600  1
  C  2899  1  0.01450100  0.65161700  0.64156400  1
  C  2900  1  0.99044900  0.65193100  0.63335800  1
  C  2901  1  0.98622900  0.65215500  0.61093200  1
  C  2922  1  0.55757400  0.83450700  0.41663500  1
  C  2923  1  0.55531500  0.82290300  0.39706000  1
  C  2924  1  0.53672600  0.82815800  0.38205300  1
  C  2925  1  0.52011400  0.84556800  0.38566100  1
  C  2926  1  0.52121600  0.85541400  0.40648900  1
  C  2927  1  0.53966000  0.85029900  0.42150500  1
  C  2928  1  0.49979800  0.85149500  0.36962300  1
  C  2929  1  0.48015800  0.83480600  0.37563400  1
  C  2930  1  0.46399300  0.83765000  0.39348200  1
  C  2931  1  0.44561900  0.82234300  0.39849100  1
  C  2932  1  0.44345700  0.80302400  0.38633600  1
  C  2933  1  0.46062600  0.79906200  0.36979600  1
  C  2934  1  0.47894400  0.81434100  0.36501100  1
  C  2935  1  0.50574300  0.85052300  0.34537500  1
  C  2936  1  0.49306000  0.87557500  0.37138000  1
  C  2937  1  0.46863900  0.88360800  0.37055500  1
  C  2938  1  0.46345600  0.90601500  0.37105900  1
  C  2939  1  0.48258600  0.92138200  0.37144000  1
  C  2940  1  0.50699800  0.91380000  0.37178300  1
  C  2941  1  0.51201300  0.89146400  0.37136700  1
  C  2942  1  0.52983400  0.85198000  0.33670900  1
  C  2943  1  0.53421000  0.85208100  0.31419000  1
  C  2944  1  0.51448600  0.85131800  0.29937500  1
  C  2945  1  0.49043900  0.85091900  0.30761100  1
  C  2946  1  0.48623700  0.85069500  0.33004200  1
  C  2967  1  0.30758500  0.30531200  0.05356400  1
  C  2968  1  0.30528200  0.32476900  0.04173700  1
  C  2969  1  0.28680500  0.33993300  0.04692700  1
  C  2970  1  0.27036000  0.33661300  0.06449500  1
  C  2971  1  0.27143800  0.31586600  0.07456300  1
  C  2972  1  0.28978100  0.30069200  0.06951200  1
  C  2973  1  0.25036400  0.35299800  0.07044900  1
  C  2974  1  0.23059500  0.34737600  0.05376000  1
  C  2975  1  0.21430000  0.32956500  0.05643900  1
  C  2976  1  0.19580300  0.32485300  0.04117700  1
  C  2977  1  0.19360400  0.33728700  0.02205300  1
  C  2978  1  0.21087200  0.35381100  0.01825200  1
  C  2979  1  0.22932000  0.35829400  0.03347900  1
  C  2980  1  0.25699400  0.37715700  0.06957700  1
  C  2981  1  0.24349300  0.35132200  0.09447200  1
  C  2982  1  0.21904400  0.35231000  0.10241300  1
  C  2983  1  0.21375700  0.35176800  0.12476700  1
  C  2984  1  0.23280600  0.35114300  0.14017600  1
  C  2985  1  0.25724700  0.35063700  0.13268300  1
  C  2986  1  0.26236800  0.35110300  0.11040100  1
  C  2987  1  0.28133400  0.38530200  0.07089000  1
  C  2988  1  0.28635400  0.40775300  0.07090100  1
  C  2989  1  0.26713000  0.42303400  0.07055700  1
  C  2990  1  0.24278300  0.41531200  0.06983500  1
  C  2991  1  0.23793000  0.39294600  0.06976300  1
  C  3012  1  0.80754900  0.19776100  0.88734600  1
  C  3013  1  0.80533300  0.17825800  0.89911500  1
  C  3014  1  0.78686700  0.16308100  0.89394100  1
  C  3015  1  0.77035400  0.16642900  0.87643800  1
  C  3016  1  0.77134600  0.18721500  0.86644300  1
  C  3017  1  0.78967000  0.20240600  0.87148300  1
  C  3018  1  0.75038400  0.15003000  0.87047700  1
  C  3019  1  0.73058200  0.15567300  0.88713700  1
  C  3020  1  0.71417400  0.17338400  0.88436100  1
  C  3021  1  0.69565200  0.17809300  0.89961200  1
  C  3022  1  0.69356900  0.16579400  0.91883400  1
  C  3023  1  0.71093800  0.14937300  0.92271300  1
  C  3024  1  0.72939300  0.14487700  0.90748600  1
  C  3025  1  0.75701100  0.12587300  0.87138400  1
  C  3026  1  0.74357100  0.15168600  0.84644600  1
  C  3027  1  0.71916200  0.15047900  0.83845700  1
  C  3028  1  0.71393800  0.15094400  0.81609100  1
  C  3029  1  0.73302600  0.15169200  0.80071500  1
  C  3030  1  0.75743700  0.15239400  0.80825800  1
  C  3031  1  0.76249200  0.15199000  0.83054900  1
  C  3032  1  0.78134600  0.11773000  0.86996400  1
  C  3033  1  0.78637300  0.09528200  0.86995500  1
  C  3034  1  0.76715400  0.07999700  0.87041200  1
  C  3035  1  0.74281000  0.08771300  0.87123400  1
  C  3036  1  0.73795100  0.11007900  0.87130400  1
  C  3057  1  0.35807400  0.26829200  0.39787000  1
  C  3059  1  0.37786800  0.24706300  0.37029800  1
  C  3060  1  0.39256100  0.23657200  0.38588900  1
  C  3062  1  0.37274500  0.25778600  0.41382600  1
  C  3064  1  0.37104700  0.26218800  0.43579800  1
  C  3067  1  0.34087000  0.28450000  0.40186600  1
  C  3069  1  0.41027900  0.22168200  0.37977000  1
  C  3071  1  0.85812000  0.23461000  0.54291200  1
  C  3073  1  0.87813800  0.25554900  0.57056400  1
  C  3074  1  0.89263300  0.26626300  0.55497200  1
  C  3076  1  0.87260100  0.24532400  0.52694500  1
  C  3078  1  0.87062400  0.24122500  0.50492900  1
  C  3081  1  0.84092300  0.21840800  0.53890800  1
  C  3083  1  0.91034500  0.28114800  0.56110700  1
  C  3085  1  0.60795600  0.82384700  0.98729900  1
  C  3087  1  0.62802900  0.85158800  0.96646400  1
  C  3088  1  0.64239600  0.83597900  0.95561400  1
  C  3090  1  0.62232500  0.80787400  0.97645300  1
  C  3092  1  0.62035000  0.78580100  0.98033700  1
  C  3095  1  0.59081400  0.81978900  0.00352400  1
  C  3097  1  0.66001700  0.84213200  0.94065200  1
  C  3099  1  0.10790000  0.67913000  0.95361000  1
  C  3101  1  0.12800700  0.65139600  0.97441600  1
  C  3102  1  0.14234300  0.66701300  0.98527700  1
  C  3104  1  0.12223600  0.69511300  0.96446800  1
  C  3106  1  0.12022600  0.71718600  0.96060500  1
  C  3109  1  0.09076700  0.68317600  0.93738400  1
  C  3111  1  0.15998000  0.66087100  0.00021700  1
  C  3113  1  0.89163000  0.73482600  0.54258400  1
  C  3115  1  0.87169700  0.75588300  0.57021000  1
  C  3116  1  0.85701600  0.76640800  0.55463200  1
  C  3118  1  0.87696200  0.74536300  0.52664600  1
  C  3120  1  0.87872300  0.74105700  0.50465700  1
  C  3123  1  0.90889100  0.71867700  0.53854400  1
  C  3125  1  0.83932600  0.78131300  0.56076500  1
  C  3127  1  0.39159300  0.76824000  0.39840500  1
  C  3129  1  0.37142900  0.74747500  0.37070400  1
  C  3130  1  0.35695300  0.73672300  0.38628400  1
  C  3132  1  0.37712500  0.75749100  0.41435800  1
  C  3134  1  0.37917000  0.76149200  0.43638400  1
  C  3137  1  0.40885200  0.78438100  0.40244800  1
  C  3139  1  0.33927000  0.72182200  0.38013600  1
  C  3141  1  0.64155600  0.17753500  0.95359300  1
  C  3143  1  0.62111700  0.14973500  0.97406300  1
  C  3144  1  0.60683000  0.16533800  0.98500500  1
  C  3146  1  0.62726500  0.19350500  0.96452500  1
  C  3148  1  0.62946700  0.21560200  0.96087800  1
  C  3151  1  0.65883000  0.18163700  0.93749000  1
  C  3153  1  0.58910200  0.15917600  0.99986400  1
  C  3155  1  0.14167200  0.32549400  0.98724400  1
  C  3157  1  0.12118900  0.35329300  0.96681500  1
  C  3158  1  0.10692200  0.33768600  0.95586700  1
  C  3160  1  0.12740200  0.30952100  0.97630200  1
  C  3162  1  0.12963000  0.28742300  0.97992900  1
  C  3165  1  0.15895100  0.32139300  0.00333100  1
  C  3167  1  0.08917200  0.34384200  0.94103700  1
  C  3169  1  0.85782500  0.76827400  0.89600100  1
  C  3171  1  0.87775400  0.74714600  0.86841900  1
  C  3172  1  0.89243700  0.73663000  0.88400900  1
  C  3174  1  0.87248000  0.75773900  0.91195400  1
  C  3176  1  0.87072100  0.76208300  0.93393300  1
  C  3179  1  0.84057300  0.78444900  0.90003400  1
  C  3181  1  0.91022800  0.72178700  0.87789600  1
  C  3183  1  0.35790000  0.73466700  0.04482600  1
  C  3185  1  0.37802400  0.75551600  0.07249300  1
  C  3186  1  0.39252600  0.76624900  0.05691200  1
  C  3188  1  0.37238200  0.74540300  0.02887100  1
  C  3190  1  0.37037600  0.74134500  0.00685200  1
  C  3193  1  0.34065500  0.71849900  0.04077700  1
  C  3195  1  0.41031400  0.78107900  0.06305400  1
  C  3197  1  0.10837900  0.32373700  0.48741900  1
  C  3199  1  0.12815800  0.35142200  0.46630300  1
  C  3200  1  0.14249400  0.33579600  0.45544800  1
  C  3202  1  0.12271300  0.30773900  0.47657200  1
  C  3204  1  0.12083500  0.28567900  0.48057300  1
  C  3207  1  0.09136700  0.31974900  0.50376100  1
  C  3209  1  0.16005400  0.34194200  0.44043800  1
  C  3211  1  0.60833600  0.17920800  0.45339800  1
  C  3213  1  0.62817100  0.15152000  0.47445900  1
  C  3214  1  0.64247400  0.16715200  0.48533100  1
  C  3216  1  0.62263900  0.19520900  0.46426200  1
  C  3218  1  0.62071500  0.21727200  0.46029600  1
  C  3221  1  0.59131300  0.18319700  0.43707400  1
  C  3223  1  0.66004800  0.16101300  0.50032100  1
  C  3225  1  0.39179700  0.23480000  0.04440100  1
  C  3227  1  0.37166300  0.25568900  0.07204800  1
  C  3228  1  0.35706700  0.26630800  0.05646600  1
  C  3230  1  0.37722200  0.24543700  0.02845800  1
  C  3232  1  0.37911800  0.24126800  0.00645400  1
  C  3235  1  0.40908900  0.21867700  0.04032000  1
  C  3237  1  0.33930200  0.28116500  0.06258900  1
  C  3239  1  0.89170900  0.26829600  0.89659200  1
  C  3241  1  0.87129500  0.24774800  0.86886600  1
  C  3242  1  0.85691900  0.23688700  0.88444800  1
  C  3244  1  0.87734700  0.25743300  0.91254500  1
  C  3246  1  0.87955700  0.26127300  0.93458800  1
  C  3249  1  0.90901200  0.28440100  0.90068100  1
  C  3251  1  0.83913900  0.22205200  0.87830800  1
  C  3253  1  0.14130700  0.67783000  0.45356600  1
  C  3255  1  0.12130600  0.65010900  0.47447800  1
  C  3256  1  0.10692600  0.66572400  0.48530400  1
  C  3258  1  0.12692300  0.69381400  0.46438600  1
  C  3260  1  0.12886700  0.71588100  0.46045900  1
  C  3263  1  0.15846200  0.68186000  0.43734900  1
  C  3265  1  0.08926700  0.65956700  0.50022400  1
  C  3267  1  0.64131500  0.82520200  0.48737200  1
  C  3269  1  0.62127800  0.85292500  0.46650400  1
  C  3270  1  0.60692600  0.83730600  0.45566200  1
  C  3272  1  0.62696200  0.80921500  0.47653900  1
  C  3274  1  0.62894100  0.78714600  0.48043500  1
  C  3277  1  0.65847500  0.82117000  0.50357500  1
  C  3279  1  0.58926500  0.84345600  0.44075200  1
  C  3281  1  0.52984700  0.15247400  0.24370100  1
  C  3283  1  0.50979600  0.13125100  0.21638500  1
  C  3284  1  0.51900600  0.14490000  0.19995800  1
  C  3286  1  0.53956100  0.16625300  0.22729800  1
  C  3288  1  0.55338000  0.18475200  0.23095900  1
  C  3291  1  0.53396000  0.15483700  0.26570500  1
  C  3293  1  0.51248800  0.14203900  0.17848800  1
  C  3295  1  0.02947900  0.35066600  0.69720500  1
  C  3297  1  0.00802501  0.37092200  0.72444100  1
  C  3298  1  0.01838500  0.35804900  0.74094600  1
  C  3300  1  0.04011200  0.33746700  0.71364200  1
  C  3302  1  0.05594400  0.32032700  0.70944400  1
  C  3305  1  0.03376300  0.34843700  0.67518400  1
  C  3307  1  0.01194600  0.36086500  0.76244800  1
  C  3309  1  0.77888600  0.97791100  0.87001800  1
  C  3311  1  0.75785600  0.00545200  0.84981700  1
  C  3312  1  0.76807300  0.02183400  0.86295500  1
  C  3314  1  0.78937500  0.99422500  0.88346700  1
  C  3316  1  0.80486200  0.98988300  0.90075100  1
  C  3319  1  0.78302800  0.95581900  0.87211800  1
  C  3321  1  0.76170200  0.04341100  0.86031700  1
  C  3323  1  0.27884400  0.52512000  0.07081600  1
  C  3325  1  0.25781900  0.49760700  0.09107300  1
  C  3326  1  0.26806000  0.48120300  0.07796900  1
  C  3328  1  0.28936000  0.50878400  0.05740400  1
  C  3330  1  0.30485100  0.51310000  0.04010600  1
  C  3333  1  0.28297000  0.54720700  0.06866800  1
  C  3335  1  0.26170200  0.45962800  0.08064600  1
  C  3337  1  0.21960900  0.35043900  0.24191700  1
  C  3339  1  0.23955900  0.37189800  0.21472100  1
  C  3340  1  0.23084000  0.35805200  0.19825400  1
  C  3342  1  0.21039200  0.33645000  0.22547200  1
  C  3344  1  0.19693400  0.31773100  0.22906500  1
  C  3347  1  0.21532500  0.34803100  0.26389300  1
  C  3349  1  0.23753800  0.36096400  0.17683100  1
  C  3351  1  0.71997800  0.15230200  0.69894800  1
  C  3353  1  0.74137600  0.13180500  0.72602200  1
  C  3354  1  0.73145900  0.14487100  0.74259400  1
  C  3356  1  0.70980900  0.16571000  0.71545100  1
  C  3358  1  0.69427600  0.18308900  0.71136400  1
  C  3361  1  0.71551400  0.15457300  0.67696300  1
  C  3363  1  0.73809800  0.14201600  0.76404100  1
  C  3365  1  0.97034800  0.52335000  0.87008500  1
  C  3367  1  0.99120400  0.49597100  0.84951800  1
  C  3368  1  0.98157000  0.47952700  0.86292400  1
  C  3370  1  0.96045200  0.50697200  0.88381100  1
  C  3372  1  0.94539400  0.51120700  0.90142500  1
  C  3375  1  0.96602200  0.54540100  0.87225900  1
  C  3377  1  0.98814300  0.45800600  0.86021400  1
  C  3379  1  0.47031000  0.97961000  0.07087000  1
  C  3381  1  0.49111400  0.00698300  0.09147300  1
  C  3382  1  0.48147800  0.02343500  0.07808300  1
  C  3384  1  0.46040800  0.99599400  0.05716400  1
  C  3386  1  0.44538100  0.99176700  0.03953700  1
  C  3389  1  0.46600900  0.95755600  0.06867000  1
  C  3391  1  0.48802900  0.04495800  0.08081600  1
  C  3393  1  0.71966200  0.85072600  0.69658300  1
  C  3395  1  0.73934200  0.87178200  0.72423200  1
  C  3396  1  0.73018800  0.85786400  0.74045800  1
  C  3398  1  0.71000400  0.83667200  0.71278000  1
  C  3400  1  0.69640100  0.81810500  0.70884000  1
  C  3403  1  0.71570800  0.84857800  0.67453500  1
  C  3405  1  0.73654600  0.86053300  0.76199100  1
  C  3407  1  0.22004600  0.65207700  0.24427200  1
  C  3409  1  0.24115300  0.63198700  0.21670600  1
  C  3410  1  0.23082900  0.64513500  0.20039900  1
  C  3412  1  0.20945300  0.66555200  0.22803900  1
  C  3414  1  0.19381100  0.68276100  0.23250800  1
  C  3417  1  0.21591900  0.65408900  0.26633700  1
  C  3419  1  0.23711200  0.64251600  0.17883500  1
  C  3421  1  0.03017400  0.65228000  0.69836300  1
  C  3423  1  0.01060500  0.63097200  0.72589200  1
  C  3424  1  0.01916100  0.64514300  0.74214800  1
  C  3426  1  0.03920900  0.66666667  0.71458400  1
  C  3428  1  0.05242900  0.68539800  0.71059000  1
  C  3431  1  0.03428500  0.65443300  0.67633700  1
  C  3433  1  0.01257700  0.64244300  0.76362600  1
  C  3435  1  0.53015700  0.85068600  0.24256400  1
  C  3437  1  0.51057200  0.87199400  0.21505700  1
  C  3438  1  0.51915900  0.85784700  0.19878600  1
  C  3440  1  0.53924400  0.83637700  0.22632800  1
  C  3442  1  0.55244800  0.81759400  0.23030400  1
  C  3445  1  0.53425900  0.84851500  0.26458600  1
  C  3447  1  0.51257300  0.86054700  0.17731200  1
  C  3449  1  0.27959600  0.47798900  0.37155800  1
  C  3451  1  0.25874900  0.50544000  0.35109600  1
  C  3452  1  0.26878500  0.52186000  0.36429100  1
  C  3454  1  0.28992300  0.49434100  0.38505700  1
  C  3456  1  0.30525300  0.48999900  0.40248600  1
  C  3459  1  0.28372600  0.45591300  0.37375800  1
  C  3461  1  0.26244500  0.54341900  0.36152100  1
  C  3463  1  0.77957900  0.02501200  0.56937100  1
  C  3465  1  0.75875800  0.99756900  0.58987700  1
  C  3466  1  0.76875000  0.98114900  0.57665500  1
  C  3468  1  0.78984500  0.00866400  0.55582400  1
  C  3470  1  0.80516900  0.01301200  0.53838600  1
  C  3473  1  0.78371700  0.04708600  0.56719300  1
  C  3475  1  0.76241100  0.95959100  0.57943800  1
  C  3477  1  0.46975800  0.02330100  0.37145700  1
  C  3479  1  0.49051400  0.99597400  0.35074900  1
  C  3480  1  0.48091200  0.97950600  0.36414100  1
  C  3482  1  0.45989100  0.00689800  0.38516500  1
  C  3484  1  0.44488900  0.01109500  0.40282400  1
  C  3487  1  0.46547200  0.04534500  0.37369200  1
  C  3489  1  0.48743500  0.95799400  0.36133500  1
  C  3491  1  0.96973000  0.47965000  0.56935600  1
  C  3493  1  0.99047800  0.50696500  0.59007200  1
  C  3494  1  0.98085000  0.52344500  0.57671400  1
  C  3496  1  0.95983100  0.49606400  0.55568700  1
  C  3498  1  0.94482000  0.49187800  0.53803800  1
  C  3501  1  0.96546300  0.45760700  0.56709600  1
  C  3503  1  0.98734400  0.54496000  0.57955000  1
  N  41  1  0.85939400  0.05886000  0.37010100  1
  N  42  1  0.89281800  0.15149400  0.27913200  1
  N  43  1  0.95099300  0.16916600  0.43290200  1
  N  44  1  0.80050300  0.21154100  0.39338400  1
  N  86  1  0.35938500  0.44409300  0.57067800  1
  N  87  1  0.39265700  0.35159400  0.66168400  1
  N  88  1  0.45100600  0.33375300  0.50790400  1
  N  89  1  0.30049600  0.29138400  0.54749700  1
  N  131  1  0.10266100  0.84978700  0.77737500  1
  N  132  1  0.14186400  0.94239400  0.86879600  1
  N  133  1  0.20037100  0.78874600  0.88594900  1
  N  134  1  0.05010600  0.82851100  0.93034900  1
  N  176  1  0.60294800  0.65306400  0.16346700  1
  N  177  1  0.64179300  0.56063200  0.07194700  1
  N  178  1  0.70031600  0.71431400  0.05478000  1
  N  179  1  0.54999100  0.67450700  0.01056900  1
  N  221  1  0.64263100  0.44248600  0.37018200  1
  N  222  1  0.60923500  0.35152400  0.27741800  1
  N  223  1  0.55015400  0.32832600  0.43014200  1
  N  224  1  0.70067500  0.28871500  0.38775700  1
  N  266  1  0.14258000  0.06050400  0.57065000  1
  N  267  1  0.10940300  0.15132300  0.66334600  1
  N  268  1  0.05006100  0.17464500  0.51067800  1
  N  269  1  0.20057500  0.21432600  0.55292400  1
  N  311  1  0.39912000  0.65326500  0.77908500  1
  N  312  1  0.35994900  0.55894600  0.86879000  1
  N  313  1  0.30029800  0.71148000  0.89151100  1
  N  314  1  0.45062800  0.66904200  0.93297900  1
  N  356  1  0.89913600  0.84974600  0.16184400  1
  N  357  1  0.85993500  0.94401600  0.07214600  1
  N  358  1  0.80033200  0.79147200  0.04945300  1
  N  359  1  0.95064400  0.83390400  0.00791500  1
  N  401  1  0.14925600  0.94413800  0.56881100  1
  N  402  1  0.10984100  0.85211800  0.66123600  1
  N  403  1  0.05165300  0.83524600  0.50779600  1
  N  404  1  0.20187900  0.79131700  0.54716400  1
  N  446  1  0.64929900  0.55887000  0.37213700  1
  N  447  1  0.61002200  0.65074200  0.27970800  1
  N  448  1  0.55166700  0.66780300  0.43315100  1
  N  449  1  0.70189700  0.71172000  0.39373500  1
  N  491  1  0.89937400  0.15246800  0.16293400  1
  N  492  1  0.85415700  0.06050000  0.07027500  1
  N  493  1  0.80205600  0.21419900  0.05448700  1
  N  494  1  0.95200900  0.17280800  0.01023300  1
  N  536  1  0.39909800  0.35063500  0.77799000  1
  N  537  1  0.35422100  0.44246400  0.87072100  1
  N  538  1  0.30211100  0.28875600  0.88658400  1
  N  539  1  0.45215700  0.33020000  0.93061200  1
  N  581  1  0.35362000  0.56048900  0.56888400  1
  N  582  1  0.39315800  0.65086900  0.66296700  1
  N  583  1  0.45205300  0.67318500  0.51048600  1
  N  584  1  0.30182000  0.71426100  0.55275900  1
  N  626  1  0.85367800  0.94246700  0.37198300  1
  N  627  1  0.89312800  0.85205700  0.27797000  1
  N  628  1  0.95211100  0.82982600  0.43044800  1
  N  629  1  0.80191700  0.78867100  0.38830800  1
  N  671  1  0.60379500  0.35047600  0.16120600  1
  N  672  1  0.64879700  0.44416600  0.07022000  1
  N  673  1  0.70212100  0.29143600  0.04896800  1
  N  674  1  0.55201900  0.33552300  0.00771700  1
  N  716  1  0.10406800  0.15228500  0.77966900  1
  N  717  1  0.14882700  0.05886500  0.87072300  1
  N  718  1  0.20208400  0.21164000  0.89192700  1
  N  719  1  0.05198000  0.16755500  0.93317500  1
  N  722  1  0.73804800  0.26224800  0.37687500  1
  N  725  1  0.76563000  0.24253100  0.40690300  1
  N  736  1  0.23829200  0.24040600  0.56394600  1
  N  739  1  0.26549500  0.26054600  0.53392100  1
  N  750  1  0.98821800  0.84493700  0.98161400  1
  N  753  1  0.01517200  0.81487600  0.96122200  1
  N  764  1  0.48819500  0.65804000  0.95927300  1
  N  767  1  0.51508600  0.68811500  0.97969000  1
  N  778  1  0.26449900  0.74076600  0.56359800  1
  N  781  1  0.23693700  0.76055300  0.53360100  1
  N  792  1  0.76425300  0.76255000  0.37735300  1
  N  795  1  0.73709000  0.74233200  0.40735200  1
  N  806  1  0.01399400  0.15641800  0.95905100  1
  N  809  1  0.98719500  0.18646700  0.97962000  1
  N  820  1  0.51407700  0.34661100  0.98181100  1
  N  823  1  0.48731600  0.31655600  0.96122700  1
  N  834  1  0.23787000  0.76229000  0.87499900  1
  N  837  1  0.26542300  0.74253100  0.90502800  1
  N  848  1  0.73812300  0.74041200  0.06586700  1
  N  851  1  0.76533100  0.76057900  0.03585700  1
  N  862  1  0.48850600  0.34480400  0.48159300  1
  N  865  1  0.51540800  0.31471300  0.46120100  1
  N  876  1  0.98850800  0.15813700  0.45918500  1
  N  879  1  0.01534600  0.18823900  0.47961300  1
  N  890  1  0.76452600  0.24061500  0.06543200  1
  N  893  1  0.73713800  0.26057900  0.03541900  1
  N  904  1  0.26420200  0.26276300  0.87552200  1
  N  907  1  0.23723400  0.24234200  0.90553100  1
  N  918  1  0.51400700  0.65675000  0.45930300  1
  N  921  1  0.48701500  0.68681900  0.47964000  1
  N  932  1  0.01398100  0.84628500  0.48166700  1
  N  935  1  0.98705000  0.81620900  0.46129600  1
  N  946  1  0.89196700  0.13557600  0.23728300  1
  N  949  1  0.90975300  0.16182700  0.20636700  1
  N  960  1  0.39041600  0.36675500  0.70356300  1
  N  963  1  0.41032300  0.34194000  0.73459900  1
  N  974  1  0.14009600  0.98447700  0.85384200  1
  N  977  1  0.15972900  0.01527600  0.87916100  1
  N  988  1  0.64004300  0.51857800  0.08700500  1
  N  991  1  0.65972300  0.48773900  0.06175000  1
  N  1002  1  0.61013500  0.36754500  0.23558100  1
  N  1005  1  0.59328300  0.34091600  0.20458500  1
  N  1016  1  0.11172800  0.13600300  0.70519000  1
  N  1019  1  0.09267800  0.16119700  0.73635700  1
  N  1030  1  0.36170900  0.51689800  0.85360500  1
  N  1033  1  0.34318100  0.48597500  0.87943400  1
  N  1044  1  0.86164800  0.98605600  0.08736100  1
  N  1047  1  0.84311400  0.01699200  0.06156200  1
  N  1058  1  0.11024800  0.86766000  0.70325900  1
  N  1061  1  0.09257000  0.84090000  0.73378900  1
  N  1072  1  0.61183500  0.63594900  0.23765900  1
  N  1075  1  0.59199800  0.66128200  0.20700400  1
  N  1086  1  0.39282400  0.63510700  0.70496300  1
  N  1089  1  0.40935300  0.66235100  0.73554500  1
  N  1100  1  0.89277900  0.86784400  0.23598200  1
  N  1103  1  0.90937500  0.84065200  0.20537400  1
  N  1114  1  0.64098100  0.48449000  0.35522800  1
  N  1117  1  0.66028300  0.51537000  0.38063900  1
  N  1128  1  0.14100000  0.01851800  0.58574000  1
  N  1131  1  0.16020900  0.98763600  0.56027000  1
  N  1142  1  0.86105000  0.01688800  0.35491400  1
  N  1145  1  0.84258800  0.98591100  0.38071000  1
  N  1156  1  0.36103400  0.48605300  0.58588700  1
  N  1159  1  0.34251300  0.51704900  0.56015800  1
  N  1209  1  0.17116500  0.05886000  0.37010100  1
  N  1210  1  0.20458900  0.15149400  0.27913200  1
  N  1211  1  0.26276400  0.16916600  0.43290200  1
  N  1212  1  0.11227400  0.21154100  0.39338400  1
  N  1254  1  0.67115600  0.44409300  0.57067800  1
  N  1255  1  0.70442800  0.35159400  0.66168400  1
  N  1256  1  0.76277700  0.33375300  0.50790400  1
  N  1257  1  0.61226700  0.29138400  0.54749700  1
  N  1299  1  0.41443200  0.84978700  0.77737500  1
  N  1300  1  0.45363500  0.94239400  0.86879600  1
  N  1301  1  0.51214200  0.78874600  0.88594900  1
  N  1302  1  0.36187700  0.82851100  0.93034900  1
  N  1344  1  0.91471900  0.65306400  0.16346700  1
  N  1345  1  0.95356400  0.56063200  0.07194700  1
  N  1346  1  0.01208700  0.71431400  0.05478000  1
  N  1347  1  0.86176200  0.67450700  0.01056900  1
  N  1389  1  0.95440200  0.44248600  0.37018200  1
  N  1390  1  0.92100600  0.35152400  0.27741800  1
  N  1391  1  0.86192500  0.32832600  0.43014200  1
  N  1392  1  0.01244600  0.28871500  0.38775700  1
  N  1434  1  0.45435100  0.06050400  0.57065000  1
  N  1435  1  0.42117400  0.15132300  0.66334600  1
  N  1436  1  0.36183200  0.17464500  0.51067800  1
  N  1437  1  0.51234600  0.21432600  0.55292400  1
  N  1479  1  0.71089100  0.65326500  0.77908500  1
  N  1480  1  0.67172000  0.55894600  0.86879000  1
  N  1481  1  0.61206900  0.71148000  0.89151100  1
  N  1482  1  0.76239900  0.66904200  0.93297900  1
  N  1524  1  0.21090700  0.84974600  0.16184400  1
  N  1525  1  0.17170600  0.94401600  0.07214600  1
  N  1526  1  0.11210300  0.79147200  0.04945300  1
  N  1527  1  0.26241500  0.83390400  0.00791500  1
  N  1569  1  0.46102700  0.94413800  0.56881100  1
  N  1570  1  0.42161200  0.85211800  0.66123600  1
  N  1571  1  0.36342400  0.83524600  0.50779600  1
  N  1572  1  0.51365000  0.79131700  0.54716400  1
  N  1614  1  0.96107000  0.55887000  0.37213700  1
  N  1615  1  0.92179300  0.65074200  0.27970800  1
  N  1616  1  0.86343800  0.66780300  0.43315100  1
  N  1617  1  0.01366800  0.71172000  0.39373500  1
  N  1659  1  0.21114500  0.15246800  0.16293400  1
  N  1660  1  0.16592800  0.06050000  0.07027500  1
  N  1661  1  0.11382700  0.21419900  0.05448700  1
  N  1662  1  0.26378000  0.17280800  0.01023300  1
  N  1704  1  0.71086900  0.35063500  0.77799000  1
  N  1705  1  0.66599200  0.44246400  0.87072100  1
  N  1706  1  0.61388200  0.28875600  0.88658400  1
  N  1707  1  0.76392800  0.33020000  0.93061200  1
  N  1749  1  0.66539100  0.56048900  0.56888400  1
  N  1750  1  0.70492900  0.65086900  0.66296700  1
  N  1751  1  0.76382400  0.67318500  0.51048600  1
  N  1752  1  0.61359100  0.71426100  0.55275900  1
  N  1794  1  0.16544900  0.94246700  0.37198300  1
  N  1795  1  0.20489900  0.85205700  0.27797000  1
  N  1796  1  0.26388200  0.82982600  0.43044800  1
  N  1797  1  0.11368800  0.78867100  0.38830800  1
  N  1839  1  0.91556600  0.35047600  0.16120600  1
  N  1840  1  0.96056800  0.44416600  0.07022000  1
  N  1841  1  0.01389200  0.29143600  0.04896800  1
  N  1842  1  0.86379000  0.33552300  0.00771700  1
  N  1884  1  0.41583900  0.15228500  0.77966900  1
  N  1885  1  0.46059800  0.05886500  0.87072300  1
  N  1886  1  0.51385500  0.21164000  0.89192700  1
  N  1887  1  0.36375100  0.16755500  0.93317500  1
  N  1890  1  0.04981900  0.26224800  0.37687500  1
  N  1893  1  0.07740100  0.24253100  0.40690300  1
  N  1904  1  0.55006300  0.24040600  0.56394600  1
  N  1907  1  0.57726600  0.26054600  0.53392100  1
  N  1918  1  0.29998900  0.84493700  0.98161400  1
  N  1921  1  0.32694300  0.81487600  0.96122200  1
  N  1932  1  0.79996600  0.65804000  0.95927300  1
  N  1935  1  0.82685700  0.68811500  0.97969000  1
  N  1946  1  0.57627000  0.74076600  0.56359800  1
  N  1949  1  0.54870800  0.76055300  0.53360100  1
  N  1960  1  0.07602400  0.76255000  0.37735300  1
  N  1963  1  0.04886100  0.74233200  0.40735200  1
  N  1974  1  0.32576500  0.15641800  0.95905100  1
  N  1977  1  0.29896600  0.18646700  0.97962000  1
  N  1988  1  0.82584800  0.34661100  0.98181100  1
  N  1991  1  0.79908700  0.31655600  0.96122700  1
  N  2002  1  0.54964100  0.76229000  0.87499900  1
  N  2005  1  0.57719400  0.74253100  0.90502800  1
  N  2016  1  0.04989400  0.74041200  0.06586700  1
  N  2019  1  0.07710200  0.76057900  0.03585700  1
  N  2030  1  0.80027700  0.34480400  0.48159300  1
  N  2033  1  0.82717900  0.31471300  0.46120100  1
  N  2044  1  0.30027900  0.15813700  0.45918500  1
  N  2047  1  0.32711700  0.18823900  0.47961300  1
  N  2058  1  0.07629700  0.24061500  0.06543200  1
  N  2061  1  0.04890900  0.26057900  0.03541900  1
  N  2072  1  0.57597300  0.26276300  0.87552200  1
  N  2075  1  0.54900500  0.24234200  0.90553100  1
  N  2086  1  0.82577800  0.65675000  0.45930300  1
  N  2089  1  0.79878600  0.68681900  0.47964000  1
  N  2100  1  0.32575200  0.84628500  0.48166700  1
  N  2103  1  0.29882100  0.81620900  0.46129600  1
  N  2114  1  0.20373800  0.13557600  0.23728300  1
  N  2117  1  0.22152400  0.16182700  0.20636700  1
  N  2128  1  0.70218700  0.36675500  0.70356300  1
  N  2131  1  0.72209400  0.34194000  0.73459900  1
  N  2142  1  0.45186700  0.98447700  0.85384200  1
  N  2145  1  0.47150000  0.01527600  0.87916100  1
  N  2156  1  0.95181400  0.51857800  0.08700500  1
  N  2159  1  0.97149400  0.48773900  0.06175000  1
  N  2170  1  0.92190600  0.36754500  0.23558100  1
  N  2173  1  0.90505400  0.34091600  0.20458500  1
  N  2184  1  0.42349900  0.13600300  0.70519000  1
  N  2187  1  0.40444900  0.16119700  0.73635700  1
  N  2198  1  0.67348000  0.51689800  0.85360500  1
  N  2201  1  0.65495200  0.48597500  0.87943400  1
  N  2212  1  0.17341900  0.98605600  0.08736100  1
  N  2215  1  0.15488500  0.01699200  0.06156200  1
  N  2226  1  0.42201900  0.86766000  0.70325900  1
  N  2229  1  0.40434100  0.84090000  0.73378900  1
  N  2240  1  0.92360600  0.63594900  0.23765900  1
  N  2243  1  0.90376900  0.66128200  0.20700400  1
  N  2254  1  0.70459500  0.63510700  0.70496300  1
  N  2257  1  0.72112400  0.66235100  0.73554500  1
  N  2268  1  0.20455000  0.86784400  0.23598200  1
  N  2271  1  0.22114600  0.84065200  0.20537400  1
  N  2282  1  0.95275200  0.48449000  0.35522800  1
  N  2285  1  0.97205400  0.51537000  0.38063900  1
  N  2296  1  0.45277100  0.01851800  0.58574000  1
  N  2299  1  0.47198000  0.98763600  0.56027000  1
  N  2310  1  0.17282100  0.01688800  0.35491400  1
  N  2313  1  0.15435900  0.98591100  0.38071000  1
  N  2324  1  0.67280500  0.48605300  0.58588700  1
  N  2327  1  0.65428400  0.51704900  0.56015800  1
  N  2377  1  0.48293600  0.05886000  0.37010100  1
  N  2378  1  0.51636000  0.15149400  0.27913200  1
  N  2379  1  0.57453500  0.16916600  0.43290200  1
  N  2380  1  0.42404500  0.21154100  0.39338400  1
  N  2422  1  0.98292700  0.44409300  0.57067800  1
  N  2423  1  0.01619900  0.35159400  0.66168400  1
  N  2424  1  0.07454800  0.33375300  0.50790400  1
  N  2425  1  0.92403800  0.29138400  0.54749700  1
  N  2467  1  0.72620300  0.84978700  0.77737500  1
  N  2468  1  0.76540600  0.94239400  0.86879600  1
  N  2469  1  0.82391300  0.78874600  0.88594900  1
  N  2470  1  0.67364800  0.82851100  0.93034900  1
  N  2512  1  0.22649000  0.65306400  0.16346700  1
  N  2513  1  0.26533500  0.56063200  0.07194700  1
  N  2514  1  0.32385800  0.71431400  0.05478000  1
  N  2515  1  0.17353300  0.67450700  0.01056900  1
  N  2557  1  0.26617300  0.44248600  0.37018200  1
  N  2558  1  0.23277700  0.35152400  0.27741800  1
  N  2559  1  0.17369600  0.32832600  0.43014200  1
  N  2560  1  0.32421700  0.28871500  0.38775700  1
  N  2602  1  0.76612200  0.06050400  0.57065000  1
  N  2603  1  0.73294500  0.15132300  0.66334600  1
  N  2604  1  0.67360300  0.17464500  0.51067800  1
  N  2605  1  0.82411700  0.21432600  0.55292400  1
  N  2647  1  0.02266200  0.65326500  0.77908500  1
  N  2648  1  0.98349100  0.55894600  0.86879000  1
  N  2649  1  0.92384000  0.71148000  0.89151100  1
  N  2650  1  0.07417000  0.66904200  0.93297900  1
  N  2692  1  0.52267800  0.84974600  0.16184400  1
  N  2693  1  0.48347700  0.94401600  0.07214600  1
  N  2694  1  0.42387400  0.79147200  0.04945300  1
  N  2695  1  0.57418600  0.83390400  0.00791500  1
  N  2737  1  0.77279800  0.94413800  0.56881100  1
  N  2738  1  0.73338300  0.85211800  0.66123600  1
  N  2739  1  0.67519500  0.83524600  0.50779600  1
  N  2740  1  0.82542100  0.79131700  0.54716400  1
  N  2782  1  0.27284100  0.55887000  0.37213700  1
  N  2783  1  0.23356400  0.65074200  0.27970800  1
  N  2784  1  0.17520900  0.66780300  0.43315100  1
  N  2785  1  0.32543900  0.71172000  0.39373500  1
  N  2827  1  0.52291600  0.15246800  0.16293400  1
  N  2828  1  0.47769900  0.06050000  0.07027500  1
  N  2829  1  0.42559800  0.21419900  0.05448700  1
  N  2830  1  0.57555100  0.17280800  0.01023300  1
  N  2872  1  0.02264000  0.35063500  0.77799000  1
  N  2873  1  0.97776300  0.44246400  0.87072100  1
  N  2874  1  0.92565300  0.28875600  0.88658400  1
  N  2875  1  0.07569900  0.33020000  0.93061200  1
  N  2917  1  0.97716200  0.56048900  0.56888400  1
  N  2918  1  0.01670000  0.65086900  0.66296700  1
  N  2919  1  0.07559500  0.67318500  0.51048600  1
  N  2920  1  0.92536200  0.71426100  0.55275900  1
  N  2962  1  0.47722000  0.94246700  0.37198300  1
  N  2963  1  0.51667000  0.85205700  0.27797000  1
  N  2964  1  0.57565300  0.82982600  0.43044800  1
  N  2965  1  0.42545900  0.78867100  0.38830800  1
  N  3007  1  0.22733700  0.35047600  0.16120600  1
  N  3008  1  0.27233900  0.44416600  0.07022000  1
  N  3009  1  0.32566300  0.29143600  0.04896800  1
  N  3010  1  0.17556100  0.33552300  0.00771700  1
  N  3052  1  0.72761000  0.15228500  0.77966900  1
  N  3053  1  0.77236900  0.05886500  0.87072300  1
  N  3054  1  0.82562600  0.21164000  0.89192700  1
  N  3055  1  0.67552200  0.16755500  0.93317500  1
  N  3058  1  0.36159000  0.26224800  0.37687500  1
  N  3061  1  0.38917200  0.24253100  0.40690300  1
  N  3072  1  0.86183400  0.24040600  0.56394600  1
  N  3075  1  0.88903700  0.26054600  0.53392100  1
  N  3086  1  0.61176000  0.84493700  0.98161400  1
  N  3089  1  0.63871400  0.81487600  0.96122200  1
  N  3100  1  0.11173700  0.65804000  0.95927300  1
  N  3103  1  0.13862800  0.68811500  0.97969000  1
  N  3114  1  0.88804100  0.74076600  0.56359800  1
  N  3117  1  0.86047900  0.76055300  0.53360100  1
  N  3128  1  0.38779500  0.76255000  0.37735300  1
  N  3131  1  0.36063200  0.74233200  0.40735200  1
  N  3142  1  0.63753600  0.15641800  0.95905100  1
  N  3145  1  0.61073700  0.18646700  0.97962000  1
  N  3156  1  0.13761900  0.34661100  0.98181100  1
  N  3159  1  0.11085800  0.31655600  0.96122700  1
  N  3170  1  0.86141200  0.76229000  0.87499900  1
  N  3173  1  0.88896500  0.74253100  0.90502800  1
  N  3184  1  0.36166500  0.74041200  0.06586700  1
  N  3187  1  0.38887300  0.76057900  0.03585700  1
  N  3198  1  0.11204800  0.34480400  0.48159300  1
  N  3201  1  0.13895000  0.31471300  0.46120100  1
  N  3212  1  0.61205000  0.15813700  0.45918500  1
  N  3215  1  0.63888800  0.18823900  0.47961300  1
  N  3226  1  0.38806800  0.24061500  0.06543200  1
  N  3229  1  0.36068000  0.26057900  0.03541900  1
  N  3240  1  0.88774400  0.26276300  0.87552200  1
  N  3243  1  0.86077600  0.24234200  0.90553100  1
  N  3254  1  0.13754900  0.65675000  0.45930300  1
  N  3257  1  0.11055700  0.68681900  0.47964000  1
  N  3268  1  0.63752300  0.84628500  0.48166700  1
  N  3271  1  0.61059200  0.81620900  0.46129600  1
  N  3282  1  0.51550900  0.13557600  0.23728300  1
  N  3285  1  0.53329500  0.16182700  0.20636700  1
  N  3296  1  0.01395800  0.36675500  0.70356300  1
  N  3299  1  0.03386500  0.34194000  0.73459900  1
  N  3310  1  0.76363800  0.98447700  0.85384200  1
  N  3313  1  0.78327100  0.01527600  0.87916100  1
  N  3324  1  0.26358500  0.51857800  0.08700500  1
  N  3327  1  0.28326500  0.48773900  0.06175000  1
  N  3338  1  0.23367700  0.36754500  0.23558100  1
  N  3341  1  0.21682500  0.34091600  0.20458500  1
  N  3352  1  0.73527000  0.13600300  0.70519000  1
  N  3355  1  0.71622000  0.16119700  0.73635700  1
  N  3366  1  0.98525100  0.51689800  0.85360500  1
  N  3369  1  0.96672300  0.48597500  0.87943400  1
  N  3380  1  0.48519000  0.98605600  0.08736100  1
  N  3383  1  0.46665600  0.01699200  0.06156200  1
  N  3394  1  0.73379000  0.86766000  0.70325900  1
  N  3397  1  0.71611200  0.84090000  0.73378900  1
  N  3408  1  0.23537700  0.63594900  0.23765900  1
  N  3411  1  0.21554000  0.66128200  0.20700400  1
  N  3422  1  0.01636600  0.63510700  0.70496300  1
  N  3425  1  0.03289500  0.66235100  0.73554500  1
  N  3436  1  0.51632100  0.86784400  0.23598200  1
  N  3439  1  0.53291700  0.84065200  0.20537400  1
  N  3450  1  0.26452300  0.48449000  0.35522800  1
  N  3453  1  0.28382500  0.51537000  0.38063900  1
  N  3464  1  0.76454200  0.01851800  0.58574000  1
  N  3467  1  0.78375100  0.98763600  0.56027000  1
  N  3478  1  0.48459200  0.01688800  0.35491400  1
  N  3481  1  0.46613000  0.98591100  0.38071000  1
  N  3492  1  0.98457600  0.48605300  0.58588700  1
  N  3495  1  0.96605500  0.51704900  0.56015800  1
  O  729  1  0.75739000  0.25000800  0.44875900  1
  O  743  1  0.25783800  0.25302600  0.49213400  1
  O  757  1  0.00734500  0.77281900  0.96859400  1
  O  771  1  0.50717400  0.73017100  0.97237000  1
  O  785  1  0.24534700  0.75330500  0.49173000  1
  O  799  1  0.74495800  0.74960200  0.44915400  1
  O  813  1  0.99536100  0.22853700  0.97265300  1
  O  827  1  0.49560400  0.27448700  0.96810700  1
  O  841  1  0.25694500  0.74981700  0.94688400  1
  O  855  1  0.75740900  0.75328100  0.99406300  1
  O  869  1  0.50801600  0.27267500  0.46898700  1
  O  883  1  0.00783600  0.23027700  0.47191800  1
  O  897  1  0.74589900  0.25363800  0.99355200  1
  O  911  1  0.24554300  0.24922300  0.94733500  1
  O  925  1  0.49467000  0.72887100  0.47210800  1
  O  939  1  0.99479600  0.77415600  0.46875500  1
  O  953  1  0.94750600  0.18795300  0.21920900  1
  O  967  1  0.43935300  0.30893800  0.72446700  1
  O  981  1  0.18879600  0.00466100  0.91219900  1
  O  995  1  0.68878000  0.49830600  0.02867100  1
  O  1009  1  0.55590200  0.31423100  0.21720100  1
  O  1023  1  0.06422200  0.19464100  0.72641800  1
  O  1037  1  0.31495600  0.49639300  0.91311300  1
  O  1051  1  0.81495400  0.00658700  0.02785300  1
  O  1065  1  0.05518300  0.81459900  0.72049800  1
  O  1079  1  0.56334600  0.69437800  0.21765200  1
  O  1093  1  0.44433000  0.69123700  0.72370400  1
  O  1107  1  0.94433700  0.81174800  0.21717300  1
  O  1121  1  0.68932300  0.50496600  0.41360600  1
  O  1135  1  0.18817700  0.99806900  0.52669300  1
  O  1149  1  0.81443000  0.99625000  0.41446400  1
  O  1163  1  0.31434400  0.50673200  0.52642200  1
  O  1897  1  0.06916100  0.25000800  0.44875900  1
  O  1911  1  0.56960900  0.25302600  0.49213400  1
  O  1925  1  0.31911600  0.77281900  0.96859400  1
  O  1939  1  0.81894500  0.73017100  0.97237000  1
  O  1953  1  0.55711800  0.75330500  0.49173000  1
  O  1967  1  0.05672900  0.74960200  0.44915400  1
  O  1981  1  0.30713200  0.22853700  0.97265300  1
  O  1995  1  0.80737500  0.27448700  0.96810700  1
  O  2009  1  0.56871600  0.74981700  0.94688400  1
  O  2023  1  0.06918000  0.75328100  0.99406300  1
  O  2037  1  0.81978700  0.27267500  0.46898700  1
  O  2051  1  0.31960700  0.23027700  0.47191800  1
  O  2065  1  0.05767000  0.25363800  0.99355200  1
  O  2079  1  0.55731400  0.24922300  0.94733500  1
  O  2093  1  0.80644100  0.72887100  0.47210800  1
  O  2107  1  0.30656700  0.77415600  0.46875500  1
  O  2121  1  0.25927700  0.18795300  0.21920900  1
  O  2135  1  0.75112400  0.30893800  0.72446700  1
  O  2149  1  0.50056700  0.00466100  0.91219900  1
  O  2163  1  0.00055101  0.49830600  0.02867100  1
  O  2177  1  0.86767300  0.31423100  0.21720100  1
  O  2191  1  0.37599300  0.19464100  0.72641800  1
  O  2205  1  0.62672700  0.49639300  0.91311300  1
  O  2219  1  0.12672500  0.00658700  0.02785300  1
  O  2233  1  0.36695400  0.81459900  0.72049800  1
  O  2247  1  0.87511700  0.69437800  0.21765200  1
  O  2261  1  0.75610100  0.69123700  0.72370400  1
  O  2275  1  0.25610800  0.81174800  0.21717300  1
  O  2289  1  0.00109401  0.50496600  0.41360600  1
  O  2303  1  0.49994800  0.99806900  0.52669300  1
  O  2317  1  0.12620100  0.99625000  0.41446400  1
  O  2331  1  0.62611500  0.50673200  0.52642200  1
  O  3065  1  0.38093200  0.25000800  0.44875900  1
  O  3079  1  0.88138000  0.25302600  0.49213400  1
  O  3093  1  0.63088700  0.77281900  0.96859400  1
  O  3107  1  0.13071600  0.73017100  0.97237000  1
  O  3121  1  0.86888900  0.75330500  0.49173000  1
  O  3135  1  0.36850000  0.74960200  0.44915400  1
  O  3149  1  0.61890300  0.22853700  0.97265300  1
  O  3163  1  0.11914600  0.27448700  0.96810700  1
  O  3177  1  0.88048700  0.74981700  0.94688400  1
  O  3191  1  0.38095100  0.75328100  0.99406300  1
  O  3205  1  0.13155800  0.27267500  0.46898700  1
  O  3219  1  0.63137800  0.23027700  0.47191800  1
  O  3233  1  0.36944100  0.25363800  0.99355200  1
  O  3247  1  0.86908500  0.24922300  0.94733500  1
  O  3261  1  0.11821200  0.72887100  0.47210800  1
  O  3275  1  0.61833800  0.77415600  0.46875500  1
  O  3289  1  0.57104800  0.18795300  0.21920900  1
  O  3303  1  0.06289500  0.30893800  0.72446700  1
  O  3317  1  0.81233800  0.00466100  0.91219900  1
  O  3331  1  0.31232200  0.49830600  0.02867100  1
  O  3345  1  0.17944400  0.31423100  0.21720100  1
  O  3359  1  0.68776400  0.19464100  0.72641800  1
  O  3373  1  0.93849800  0.49639300  0.91311300  1
  O  3387  1  0.43849600  0.00658700  0.02785300  1
  O  3401  1  0.67872500  0.81459900  0.72049800  1
  O  3415  1  0.18688800  0.69437800  0.21765200  1
  O  3429  1  0.06787200  0.69123700  0.72370400  1
  O  3443  1  0.56787900  0.81174800  0.21717300  1
  O  3457  1  0.31286500  0.50496600  0.41360600  1
  O  3471  1  0.81171900  0.99806900  0.52669300  1
  O  3485  1  0.43797200  0.99625000  0.41446400  1
  O  3499  1  0.93788600  0.50673200  0.52642200  1
