# generated using pymatgen
data_H11C14N6O
_symmetry_space_group_name_H-M   'P 1'
_cell_length_a   69.11710000
_cell_length_b   69.11710000
_cell_length_c   69.11710000
_cell_angle_alpha   90.00000000
_cell_angle_beta   90.00000000
_cell_angle_gamma   90.00000000
_symmetry_Int_Tables_number   1
_chemical_formula_structural   H11C14N6O
_chemical_formula_sum   'H1056 C1344 N576 O96'
_cell_volume   330184.37937459
_cell_formula_units_Z   96
loop_
 _symmetry_equiv_pos_site_id
 _symmetry_equiv_pos_as_xyz
  1  'x, y, z'
loop_
 _atom_site_type_symbol
 _atom_site_label
 _atom_site_symmetry_multiplicity
 _atom_site_fract_x
 _atom_site_fract_y
 _atom_site_fract_z
 _atom_site_occupancy
  H  7  1  0.27275700  0.12547600  0.45226000  1
  H  16  1  0.24728600  0.14311800  0.42169400  1
  H  19  1  0.27572900  0.11610600  0.38492500  1
  H  20  1  0.29843100  0.11996100  0.37886600  1
  H  21  1  0.26713400  0.06814500  0.41297400  1
  H  22  1  0.28302400  0.08509600  0.41787200  1
  H  23  1  0.19781500  0.08450200  0.40847500  1
  H  24  1  0.19078800  0.10710900  0.41118800  1
  H  25  1  0.34603600  0.13776500  0.42923500  1
  H  26  1  0.33893200  0.13973800  0.45190700  1
  H  37  1  0.76358400  0.91097900  0.45225900  1
  H  46  1  0.78904100  0.89332200  0.42170500  1
  H  49  1  0.76061500  0.92036100  0.38492500  1
  H  50  1  0.73791600  0.91650000  0.37886300  1
  H  51  1  0.76925100  0.96831000  0.41298600  1
  H  52  1  0.75334300  0.95136900  0.41787200  1
  H  53  1  0.83855400  0.95190000  0.40846500  1
  H  54  1  0.84556500  0.92928900  0.41119100  1
  H  55  1  0.69031200  0.89866500  0.42922200  1
  H  56  1  0.69741200  0.89669100  0.45189400  1
  H  67  1  0.76358100  0.12545400  0.58636600  1
  H  76  1  0.78905400  0.14313200  0.61692100  1
  H  79  1  0.76061800  0.11607600  0.65369900  1
  H  80  1  0.73791000  0.11990300  0.65976000  1
  H  81  1  0.76924700  0.06814700  0.62562900  1
  H  82  1  0.75334500  0.08509200  0.62074400  1
  H  83  1  0.83855600  0.08454000  0.63013800  1
  H  84  1  0.84557200  0.10714900  0.62741600  1
  H  85  1  0.69030500  0.13774700  0.60940200  1
  H  86  1  0.69740000  0.13970400  0.58672900  1
  H  97  1  0.27276200  0.91096400  0.58634400  1
  H  106  1  0.24728500  0.89329400  0.61688200  1
  H  109  1  0.27570900  0.92038700  0.65367600  1
  H  110  1  0.29841700  0.91657300  0.65974000  1
  H  111  1  0.26706600  0.96828400  0.62560900  1
  H  112  1  0.28297300  0.95134600  0.62071900  1
  H  113  1  0.19776000  0.95187000  0.63008300  1
  H  114  1  0.19075300  0.92925900  0.62734400  1
  H  115  1  0.34604300  0.89874300  0.60939600  1
  H  116  1  0.33894900  0.89676400  0.58672300  1
  H  127  1  0.45113600  0.27280500  0.12664100  1
  H  136  1  0.42059500  0.24733000  0.14427000  1
  H  139  1  0.38380700  0.27577800  0.11724900  1
  H  140  1  0.37774600  0.29848000  0.12109800  1
  H  141  1  0.41185300  0.26718600  0.06930200  1
  H  142  1  0.41674500  0.28307600  0.08625400  1
  H  143  1  0.40737700  0.19786300  0.08564900  1
  H  144  1  0.41009500  0.19083400  0.10825400  1
  H  145  1  0.42810400  0.34607900  0.13894600  1
  H  146  1  0.45077600  0.33898000  0.14091800  1
  H  157  1  0.45112900  0.76360300  0.91202300  1
  H  166  1  0.42058800  0.78908700  0.89439200  1
  H  169  1  0.38379200  0.76063900  0.92138800  1
  H  170  1  0.37772700  0.73794200  0.91751400  1
  H  171  1  0.41182400  0.76920900  0.96935200  1
  H  172  1  0.41672300  0.75332300  0.95239500  1
  H  173  1  0.40732600  0.83853600  0.95301900  1
  H  174  1  0.41004800  0.84556900  0.93041500  1
  H  175  1  0.42808600  0.69034000  0.89967000  1
  H  176  1  0.45075800  0.69743900  0.89770400  1
  H  187  1  0.58521100  0.76359100  0.12653400  1
  H  196  1  0.61575300  0.78906800  0.14420100  1
  H  199  1  0.65254500  0.76062500  0.11716200  1
  H  200  1  0.65860500  0.73791900  0.12099300  1
  H  201  1  0.62449800  0.76923500  0.06922800  1
  H  202  1  0.61959600  0.75334000  0.08617500  1
  H  203  1  0.62902800  0.83854900  0.08560400  1
  H  204  1  0.62630200  0.84557100  0.10821100  1
  H  205  1  0.60824600  0.69031800  0.13884400  1
  H  206  1  0.58557100  0.69741300  0.14079800  1
  H  217  1  0.58553100  0.27239000  0.91174700  1
  H  226  1  0.61610800  0.24721200  0.89443700  1
  H  229  1  0.65271000  0.27600400  0.92178200  1
  H  230  1  0.65859800  0.29875800  0.91797500  1
  H  231  1  0.62464400  0.26707900  0.96942600  1
  H  232  1  0.61974100  0.28296000  0.95246800  1
  H  233  1  0.62930000  0.19777000  0.95308000  1
  H  234  1  0.62660500  0.19073700  0.93047300  1
  H  235  1  0.60797500  0.34587400  0.89960500  1
  H  236  1  0.58537500  0.33858200  0.89749800  1
  H  247  1  0.12544000  0.45114900  0.27387300  1
  H  256  1  0.14308100  0.42059500  0.24840000  1
  H  259  1  0.11610200  0.38381100  0.27688200  1
  H  260  1  0.11999600  0.37776200  0.29958100  1
  H  261  1  0.06812700  0.41183600  0.26829700  1
  H  262  1  0.08508900  0.41672600  0.28417900  1
  H  263  1  0.08443400  0.40738500  0.19896400  1
  H  264  1  0.10703500  0.41011000  0.19192200  1
  H  265  1  0.13784500  0.42815900  0.34714100  1
  H  266  1  0.13979300  0.45082800  0.34002600  1
  H  277  1  0.91055600  0.45083900  0.76507700  1
  H  286  1  0.89325500  0.42025600  0.79023000  1
  H  289  1  0.92053300  0.38365800  0.76140800  1
  H  290  1  0.91668000  0.37778300  0.73865800  1
  H  291  1  0.96823100  0.41169000  0.77033200  1
  H  292  1  0.95126800  0.41659300  0.75445700  1
  H  293  1  0.95190600  0.40701900  0.83964900  1
  H  294  1  0.92930000  0.40969900  0.84668900  1
  H  295  1  0.89831700  0.42845100  0.69159100  1
  H  296  1  0.89622500  0.45104600  0.69890100  1
  H  307  1  0.12576700  0.58556800  0.76507400  1
  H  316  1  0.14307900  0.61614400  0.79025300  1
  H  319  1  0.11576500  0.65275200  0.76146400  1
  H  320  1  0.11956800  0.65864000  0.73871000  1
  H  321  1  0.06809400  0.62469000  0.77037700  1
  H  322  1  0.08505200  0.61977900  0.75449900  1
  H  323  1  0.08444000  0.62940300  0.83968400  1
  H  324  1  0.10704700  0.62671300  0.84671900  1
  H  325  1  0.13791500  0.60801300  0.69159000  1
  H  326  1  0.14001600  0.58541100  0.69888100  1
  H  337  1  0.91094500  0.58527200  0.27384100  1
  H  346  1  0.89326100  0.61581300  0.24836700  1
  H  349  1  0.92033900  0.65260700  0.27679800  1
  H  350  1  0.91651400  0.65866600  0.29950500  1
  H  351  1  0.96824800  0.62455200  0.26815500  1
  H  352  1  0.95131000  0.61966100  0.28406100  1
  H  353  1  0.95183800  0.62902500  0.19884800  1
  H  354  1  0.92922900  0.62628300  0.19184000  1
  H  355  1  0.89866800  0.60831800  0.34711500  1
  H  356  1  0.89670900  0.58564200  0.34002300  1
  H  367  1  0.12580900  0.27239900  0.58663800  1
  H  376  1  0.14309900  0.24723300  0.61721300  1
  H  379  1  0.11584900  0.27607100  0.65382100  1
  H  380  1  0.11970100  0.29882300  0.65969200  1
  H  381  1  0.06813900  0.26717700  0.62580900  1
  H  382  1  0.08510900  0.28304000  0.62089400  1
  H  383  1  0.08442100  0.19785000  0.63046800  1
  H  384  1  0.10702400  0.19079600  0.62778700  1
  H  385  1  0.13803500  0.34588800  0.60901400  1
  H  386  1  0.14012300  0.33857600  0.58641900  1
  H  397  1  0.91091300  0.76362600  0.58635600  1
  H  406  1  0.89325500  0.78908200  0.61690700  1
  H  409  1  0.92023200  0.76059900  0.65369500  1
  H  410  1  0.91634600  0.73789700  0.65973700  1
  H  411  1  0.96821000  0.76920000  0.62568400  1
  H  412  1  0.95125400  0.75331600  0.62078700  1
  H  413  1  0.95188300  0.83852900  0.63017000  1
  H  414  1  0.92927900  0.84556500  0.62744800  1
  H  415  1  0.89849800  0.69035000  0.60933000  1
  H  416  1  0.89656400  0.69746600  0.58665900  1
  H  427  1  0.12542300  0.76360400  0.45221800  1
  H  436  1  0.14307600  0.78910000  0.42168100  1
  H  439  1  0.11604600  0.76065700  0.38488300  1
  H  440  1  0.11988900  0.73795600  0.37881500  1
  H  441  1  0.06810900  0.76923900  0.41293400  1
  H  442  1  0.08506300  0.75335000  0.41783100  1
  H  443  1  0.08445900  0.83856100  0.40842100  1
  H  444  1  0.10706400  0.84559100  0.41114900  1
  H  445  1  0.13774300  0.69034100  0.42916100  1
  H  446  1  0.13970700  0.69743500  0.45183600  1
  H  457  1  0.91060400  0.27239600  0.45191400  1
  H  466  1  0.89328500  0.24722200  0.42134000  1
  H  469  1  0.92063200  0.27601000  0.38473400  1
  H  470  1  0.91683500  0.29876500  0.37884800  1
  H  471  1  0.96827500  0.26707400  0.41279100  1
  H  472  1  0.95132300  0.28295900  0.41770100  1
  H  473  1  0.95191500  0.19777000  0.40812900  1
  H  474  1  0.92930700  0.19074000  0.41083000  1
  H  475  1  0.89848100  0.34588400  0.42947400  1
  H  476  1  0.89637600  0.33859300  0.45207500  1
  H  487  1  0.27276500  0.45113100  0.91197200  1
  H  496  1  0.24730600  0.42056700  0.89431500  1
  H  499  1  0.27577400  0.38379500  0.92131700  1
  H  500  1  0.29847900  0.37774900  0.91745000  1
  H  501  1  0.26715400  0.41182700  0.96928500  1
  H  502  1  0.28304600  0.41671700  0.95233300  1
  H  503  1  0.19783100  0.40737200  0.95293200  1
  H  504  1  0.19080400  0.41008700  0.93032500  1
  H  505  1  0.34605000  0.42815000  0.89964700  1
  H  506  1  0.33893500  0.45081700  0.89768900  1
  H  517  1  0.76361700  0.45112700  0.12648100  1
  H  526  1  0.78908500  0.42058500  0.14414400  1
  H  529  1  0.76065500  0.38378900  0.11712800  1
  H  530  1  0.73795600  0.37772600  0.12099300  1
  H  531  1  0.76926700  0.41182400  0.06916900  1
  H  532  1  0.75336800  0.41671600  0.08611400  1
  H  533  1  0.83858000  0.40734100  0.08555200  1
  H  534  1  0.84560000  0.41006900  0.10816000  1
  H  535  1  0.69035200  0.42808400  0.13882800  1
  H  536  1  0.69744700  0.45075800  0.14078400  1
  H  547  1  0.76356800  0.58525700  0.91201700  1
  H  556  1  0.78904900  0.61581900  0.89435000  1
  H  559  1  0.76061800  0.65259200  0.92140100  1
  H  560  1  0.73791400  0.65865900  0.91756900  1
  H  561  1  0.76922800  0.62451100  0.96933300  1
  H  562  1  0.75333000  0.61962200  0.95238500  1
  H  563  1  0.83853900  0.62904300  0.95295200  1
  H  564  1  0.84555900  0.62632500  0.93034400  1
  H  565  1  0.69029700  0.60831000  0.89972800  1
  H  566  1  0.69739000  0.58563500  0.89776200  1
  H  577  1  0.27274100  0.58522300  0.12649100  1
  H  586  1  0.24726200  0.61576700  0.14416400  1
  H  589  1  0.27568900  0.65255800  0.11708300  1
  H  590  1  0.29839400  0.65862100  0.12090600  1
  H  591  1  0.26705700  0.62448600  0.06917700  1
  H  592  1  0.28296200  0.61959600  0.08611800  1
  H  593  1  0.19775000  0.62898000  0.08557900  1
  H  594  1  0.19073900  0.62624100  0.10818800  1
  H  595  1  0.34601700  0.60827800  0.13874400  1
  H  596  1  0.33892300  0.58560500  0.14071700  1
  H  607  1  0.45110400  0.12548800  0.76473800  1
  H  616  1  0.42055700  0.14313400  0.79022100  1
  H  619  1  0.38376600  0.11613900  0.76177400  1
  H  620  1  0.37770500  0.11999700  0.73907300  1
  H  621  1  0.41180300  0.06817000  0.77035300  1
  H  622  1  0.41669700  0.08512500  0.75446600  1
  H  623  1  0.40733600  0.08450600  0.83967900  1
  H  624  1  0.41005500  0.10711100  0.84671200  1
  H  625  1  0.42806900  0.13781100  0.69146700  1
  H  626  1  0.45074400  0.13976900  0.69856500  1
  H  637  1  0.45113400  0.91091100  0.27390900  1
  H  646  1  0.42059200  0.89327100  0.24843300  1
  H  649  1  0.38379800  0.92027700  0.27687200  1
  H  650  1  0.37773600  0.91642000  0.29957300  1
  H  651  1  0.41183300  0.96823800  0.26828500  1
  H  652  1  0.41673500  0.95128800  0.28417600  1
  H  653  1  0.40732500  0.95188000  0.19896500  1
  H  654  1  0.41004500  0.92927400  0.19193800  1
  H  655  1  0.42809800  0.89860400  0.34718200  1
  H  656  1  0.45077000  0.89663200  0.34008200  1
  H  667  1  0.58521100  0.12542700  0.27391500  1
  H  676  1  0.61575500  0.14308700  0.24842600  1
  H  679  1  0.65254800  0.11605000  0.27686500  1
  H  680  1  0.65861400  0.11989000  0.29956700  1
  H  681  1  0.62449500  0.06811600  0.26827200  1
  H  682  1  0.61959300  0.08506600  0.28416300  1
  H  683  1  0.62902500  0.08448100  0.19895500  1
  H  684  1  0.62630100  0.10708800  0.19192900  1
  H  685  1  0.60826500  0.13773900  0.34718000  1
  H  686  1  0.58559000  0.13970300  0.34008700  1
  H  697  1  0.58520100  0.91099200  0.76468800  1
  H  706  1  0.61574600  0.89332200  0.79016800  1
  H  709  1  0.65253500  0.92040500  0.76174000  1
  H  710  1  0.65860000  0.91657600  0.73903600  1
  H  711  1  0.62446600  0.96830700  0.77037400  1
  H  712  1  0.61957700  0.95136600  0.75446900  1
  H  713  1  0.62893300  0.95190900  0.83968200  1
  H  714  1  0.62619100  0.92930100  0.84669500  1
  H  715  1  0.60825800  0.89872100  0.69141600  1
  H  716  1  0.58558400  0.89674900  0.69851000  1
  H  727  1  0.76461100  0.91620400  0.58625300  1
  H  736  1  0.79060700  0.89347200  0.62337700  1
  H  739  1  0.76309500  0.91314900  0.65413000  1
  H  740  1  0.74110600  0.90596200  0.65982800  1
  H  741  1  0.76924900  0.96826400  0.61794400  1
  H  742  1  0.75376600  0.95029000  0.61659100  1
  H  743  1  0.83893700  0.95443700  0.62636300  1
  H  744  1  0.84632900  0.93189100  0.62840300  1
  H  745  1  0.69321200  0.89425600  0.60804000  1
  H  746  1  0.69944300  0.89751600  0.58530100  1
  H  757  1  0.27175300  0.12020200  0.58625400  1
  H  766  1  0.24575500  0.14293600  0.62342700  1
  H  769  1  0.27326200  0.12329000  0.65413300  1
  H  770  1  0.29524700  0.13048900  0.65982800  1
  H  771  1  0.26713500  0.06815600  0.61791100  1
  H  772  1  0.28261000  0.08613700  0.61655900  1
  H  773  1  0.19744600  0.08195200  0.62641200  1
  H  774  1  0.19005100  0.10449300  0.62848500  1
  H  775  1  0.34313600  0.14220100  0.60803800  1
  H  776  1  0.33691100  0.13893900  0.58529900  1
  H  787  1  0.27175500  0.91617800  0.45237400  1
  H  796  1  0.24573700  0.89344500  0.41523600  1
  H  799  1  0.27325500  0.91314300  0.38449400  1
  H  800  1  0.29525100  0.90598400  0.37878800  1
  H  801  1  0.26713800  0.96822600  0.42061700  1
  H  802  1  0.28260600  0.95024100  0.42200700  1
  H  803  1  0.19743600  0.95443200  0.41220000  1
  H  804  1  0.19003700  0.93189100  0.41016200  1
  H  805  1  0.34313800  0.89419500  0.43056800  1
  H  806  1  0.33690500  0.89741500  0.45331000  1
  H  817  1  0.76458900  0.12020900  0.45236800  1
  H  826  1  0.79057700  0.14294400  0.41516600  1
  H  829  1  0.76306600  0.12323100  0.38448800  1
  H  830  1  0.74107300  0.13040300  0.37879000  1
  H  831  1  0.76922900  0.06815900  0.42071300  1
  H  832  1  0.75374700  0.08613500  0.42208700  1
  H  833  1  0.83890700  0.08197900  0.41219500  1
  H  834  1  0.84629000  0.10452100  0.41008900  1
  H  835  1  0.69318600  0.14212900  0.43057500  1
  H  836  1  0.69941300  0.13887100  0.45331500  1
  H  847  1  0.58510300  0.76463400  0.91729100  1
  H  856  1  0.62222800  0.79062600  0.89454700  1
  H  859  1  0.65298000  0.76313100  0.91422700  1
  H  860  1  0.65867900  0.74114500  0.90703300  1
  H  861  1  0.61679200  0.76929600  0.96934500  1
  H  862  1  0.61543500  0.75380600  0.95137500  1
  H  863  1  0.62523300  0.83898000  0.95549100  1
  H  864  1  0.62728600  0.84636100  0.93294400  1
  H  865  1  0.60690000  0.69324400  0.89533000  1
  H  866  1  0.58416100  0.69946900  0.89859100  1
  H  877  1  0.58512300  0.27178200  0.12136300  1
  H  886  1  0.62223100  0.24577400  0.14409200  1
  H  889  1  0.65300200  0.27327500  0.12441800  1
  H  890  1  0.65870800  0.29526400  0.13159500  1
  H  891  1  0.61685200  0.26715200  0.06930200  1
  H  892  1  0.61547100  0.28263000  0.08727900  1
  H  893  1  0.62531400  0.19746300  0.08311300  1
  H  894  1  0.62733700  0.19006700  0.10565800  1
  H  895  1  0.60693800  0.34317700  0.14329500  1
  H  896  1  0.58419700  0.33696000  0.14004400  1
  H  907  1  0.45116900  0.27177900  0.91732000  1
  H  916  1  0.41399200  0.24577600  0.89460100  1
  H  919  1  0.38326000  0.27340700  0.91454500  1
  H  920  1  0.37757800  0.29537300  0.90727000  1
  H  921  1  0.41944600  0.26717100  0.96937800  1
  H  922  1  0.42080600  0.28264200  0.95139100  1
  H  923  1  0.41107500  0.19745900  0.95558000  1
  H  924  1  0.40901600  0.19006600  0.93303800  1
  H  925  1  0.42954200  0.34285700  0.89426900  1
  H  926  1  0.45230000  0.33643600  0.89721800  1
  H  937  1  0.45122500  0.76459400  0.12132500  1
  H  946  1  0.41409300  0.79060700  0.14406300  1
  H  949  1  0.38334500  0.76310200  0.12433200  1
  H  950  1  0.37763300  0.74110500  0.13147900  1
  H  951  1  0.41951600  0.76924900  0.06927100  1
  H  952  1  0.42087300  0.75376600  0.08724500  1
  H  953  1  0.41119800  0.83895000  0.08310700  1
  H  954  1  0.40913600  0.84633600  0.10565200  1
  H  955  1  0.42939400  0.69318400  0.14319000  1
  H  956  1  0.45213700  0.69940600  0.13994300  1
  H  967  1  0.91619300  0.58523600  0.76569500  1
  H  976  1  0.89343700  0.62238600  0.79167700  1
  H  979  1  0.91333700  0.65314400  0.76406300  1
  H  980  1  0.90602900  0.65881400  0.74210600  1
  H  981  1  0.96823200  0.61695100  0.77033300  1
  H  982  1  0.95025800  0.61558600  0.75484900  1
  H  983  1  0.95438700  0.62540500  0.84001900  1
  H  984  1  0.93184000  0.62745100  0.84740400  1
  H  985  1  0.89314900  0.60683700  0.69460700  1
  H  986  1  0.89614600  0.58408400  0.70102000  1
  H  997  1  0.12016000  0.58516000  0.27283000  1
  H  1006  1  0.14289300  0.62229200  0.24684600  1
  H  1009  1  0.12321600  0.65303900  0.27435900  1
  H  1010  1  0.13041800  0.65873100  0.29634300  1
  H  1011  1  0.06810200  0.61685600  0.26820700  1
  H  1012  1  0.08607800  0.61550200  0.28369000  1
  H  1013  1  0.08192700  0.62529800  0.19851500  1
  H  1014  1  0.10447200  0.62734100  0.19112600  1
  H  1015  1  0.14218900  0.60693200  0.34420900  1
  H  1016  1  0.13893000  0.58419400  0.33798000  1
  H  1027  1  0.91609700  0.45125200  0.27288300  1
  H  1036  1  0.89338700  0.41412900  0.24690700  1
  H  1039  1  0.91313100  0.38337300  0.27447300  1
  H  1040  1  0.90603300  0.37768500  0.29649400  1
  H  1041  1  0.96817400  0.41947600  0.26829500  1
  H  1042  1  0.95019300  0.42087000  0.28376900  1
  H  1043  1  0.95436900  0.41105300  0.19859900  1
  H  1044  1  0.93182600  0.40901700  0.19120300  1
  H  1045  1  0.89427600  0.42951700  0.34433700  1
  H  1046  1  0.89746500  0.45225300  0.33807000  1
  H  1057  1  0.12018300  0.45117200  0.76564000  1
  H  1066  1  0.14292900  0.41401300  0.79160400  1
  H  1069  1  0.12294500  0.38326300  0.76393400  1
  H  1070  1  0.13017300  0.37760400  0.74194700  1
  H  1071  1  0.06813600  0.41942600  0.77025100  1
  H  1072  1  0.08611100  0.42079900  0.75476800  1
  H  1073  1  0.08197600  0.41104000  0.83994400  1
  H  1074  1  0.10452200  0.40898400  0.84732900  1
  H  1075  1  0.14310600  0.42962300  0.69449800  1
  H  1076  1  0.14014200  0.45237100  0.70094400  1
  H  1087  1  0.91616100  0.76462500  0.45233100  1
  H  1096  1  0.89341400  0.79061900  0.41521000  1
  H  1099  1  0.91308700  0.76312900  0.38445300  1
  H  1100  1  0.90590000  0.74114200  0.37875100  1
  H  1101  1  0.96821300  0.76928900  0.42063200  1
  H  1102  1  0.95024500  0.75379900  0.42199000  1
  H  1103  1  0.95435900  0.83897500  0.41221100  1
  H  1104  1  0.93181100  0.84635500  0.41016000  1
  H  1105  1  0.89426200  0.69321900  0.43052600  1
  H  1106  1  0.89752200  0.69944500  0.45326500  1
  H  1117  1  0.12017300  0.27177600  0.45222800  1
  H  1126  1  0.14291800  0.24579300  0.41508800  1
  H  1129  1  0.12301400  0.27342000  0.38432000  1
  H  1130  1  0.13032100  0.29537800  0.37865300  1
  H  1131  1  0.06813000  0.26716500  0.42050400  1
  H  1132  1  0.08611000  0.28264300  0.42187000  1
  H  1133  1  0.08194800  0.19747200  0.41203100  1
  H  1134  1  0.10449300  0.19008000  0.40999100  1
  H  1135  1  0.14327000  0.34285100  0.43063600  1
  H  1136  1  0.14027500  0.33643600  0.45338800  1
  H  1147  1  0.91614900  0.27181700  0.58631900  1
  H  1156  1  0.89341100  0.24586400  0.62347100  1
  H  1159  1  0.91339300  0.27353700  0.65422700  1
  H  1160  1  0.90617400  0.29552700  0.65988300  1
  H  1161  1  0.96820600  0.26722200  0.61811900  1
  H  1162  1  0.95022900  0.28270000  0.61672100  1
  H  1163  1  0.95436300  0.19752100  0.62651900  1
  H  1164  1  0.93181600  0.19014000  0.62855600  1
  H  1165  1  0.89322500  0.34296100  0.60785400  1
  H  1166  1  0.89615600  0.33650300  0.58510700  1
  H  1177  1  0.12019600  0.76459700  0.58622200  1
  H  1186  1  0.14293300  0.79055700  0.62337000  1
  H  1189  1  0.12317200  0.76299600  0.65410000  1
  H  1190  1  0.13028900  0.74098200  0.65978200  1
  H  1191  1  0.06813600  0.76921600  0.61795000  1
  H  1192  1  0.08610600  0.75372900  0.61658300  1
  H  1193  1  0.08198800  0.83891200  0.62628300  1
  H  1194  1  0.10453500  0.84629100  0.62834500  1
  H  1195  1  0.14201200  0.69314100  0.60794200  1
  H  1196  1  0.13878600  0.69940700  0.58521000  1
  H  1207  1  0.76457200  0.58512000  0.12124400  1
  H  1216  1  0.79056000  0.62226100  0.14399600  1
  H  1219  1  0.76306300  0.65299600  0.12433600  1
  H  1220  1  0.74107700  0.65869200  0.13153200  1
  H  1221  1  0.76922800  0.61680400  0.06919900  1
  H  1222  1  0.75374000  0.61544800  0.08716900  1
  H  1223  1  0.83891000  0.62524200  0.08304700  1
  H  1224  1  0.84629300  0.62729200  0.10559400  1
  H  1225  1  0.69317100  0.60690300  0.14317800  1
  H  1226  1  0.69940000  0.58416700  0.13990800  1
  H  1237  1  0.27175900  0.58515000  0.91727800  1
  H  1246  1  0.24577600  0.62233200  0.89453800  1
  H  1249  1  0.27327500  0.65303100  0.91420200  1
  H  1250  1  0.29525800  0.65872300  0.90699400  1
  H  1251  1  0.26712500  0.61679700  0.96932600  1
  H  1252  1  0.28260600  0.61543800  0.95135100  1
  H  1253  1  0.19744600  0.62535700  0.95550600  1
  H  1254  1  0.19006100  0.62744800  0.93296300  1
  H  1255  1  0.34313200  0.60693200  0.89523400  1
  H  1256  1  0.33690800  0.58419300  0.89850000  1
  H  1267  1  0.27173000  0.45125300  0.12127600  1
  H  1276  1  0.24571100  0.41413300  0.14401600  1
  H  1279  1  0.27323600  0.38337400  0.12433000  1
  H  1280  1  0.29523400  0.37767200  0.13148400  1
  H  1281  1  0.26712200  0.41947900  0.06923500  1
  H  1282  1  0.28258900  0.42087100  0.08722100  1
  H  1283  1  0.19741900  0.41105600  0.08302300  1
  H  1284  1  0.19001800  0.40902000  0.10556600  1
  H  1285  1  0.34312500  0.42946100  0.14322900  1
  H  1286  1  0.33688800  0.45220100  0.14000900  1
  H  1297  1  0.76456000  0.45123800  0.91723000  1
  H  1306  1  0.79051100  0.41405700  0.89449800  1
  H  1309  1  0.76294900  0.38336000  0.91425600  1
  H  1310  1  0.74093100  0.37768200  0.90714300  1
  H  1311  1  0.76918000  0.41954600  0.96929300  1
  H  1312  1  0.75369300  0.42092200  0.95132300  1
  H  1313  1  0.83885700  0.41107600  0.95544800  1
  H  1314  1  0.84623600  0.40898700  0.93290400  1
  H  1315  1  0.69309600  0.42952900  0.89543000  1
  H  1316  1  0.69936700  0.45226100  0.89865400  1
  H  1327  1  0.58511000  0.91617500  0.27289500  1
  H  1336  1  0.62223500  0.89342900  0.24688800  1
  H  1339  1  0.65298900  0.91310400  0.27438200  1
  H  1340  1  0.65869400  0.90591900  0.29636900  1
  H  1341  1  0.61680500  0.96822300  0.26823300  1
  H  1342  1  0.61545100  0.95025200  0.28372000  1
  H  1343  1  0.62519800  0.95438200  0.19854300  1
  H  1344  1  0.62724400  0.93183600  0.19115700  1
  H  1345  1  0.60692500  0.89422600  0.34428400  1
  H  1346  1  0.58418400  0.89748500  0.33806200  1
  H  1357  1  0.58511400  0.12022900  0.76574500  1
  H  1366  1  0.62229900  0.14295100  0.79171600  1
  H  1369  1  0.65299200  0.12329000  0.76419900  1
  H  1370  1  0.65867900  0.13047800  0.74220800  1
  H  1371  1  0.61675900  0.06816700  0.77035600  1
  H  1372  1  0.61539600  0.08614500  0.75487800  1
  H  1373  1  0.62535500  0.08197400  0.84003100  1
  H  1374  1  0.62744100  0.10451600  0.84742000  1
  H  1375  1  0.60687000  0.14217000  0.69433600  1
  H  1376  1  0.58413300  0.13891500  0.70057200  1
  H  1387  1  0.45122500  0.91618100  0.76574800  1
  H  1396  1  0.41409600  0.89345300  0.79174800  1
  H  1399  1  0.38334600  0.91317600  0.76422300  1
  H  1400  1  0.37764300  0.90603200  0.74222100  1
  H  1401  1  0.41946100  0.96824400  0.77036900  1
  H  1402  1  0.42084800  0.95026400  0.75489400  1
  H  1403  1  0.41108200  0.95442400  0.84007100  1
  H  1404  1  0.40904600  0.93187900  0.84746200  1
  H  1405  1  0.42943500  0.89425000  0.69434300  1
  H  1406  1  0.45217700  0.89745400  0.70058800  1
  H  1417  1  0.45124700  0.12017200  0.27290900  1
  H  1426  1  0.41410700  0.14293000  0.24690100  1
  H  1429  1  0.38336700  0.12320900  0.27440700  1
  H  1430  1  0.37766000  0.13037600  0.29640000  1
  H  1431  1  0.41953300  0.06813700  0.26825100  1
  H  1432  1  0.42089000  0.08610900  0.28373600  1
  H  1433  1  0.41121400  0.08198100  0.19855000  1
  H  1434  1  0.40915200  0.10452700  0.19116800  1
  H  1435  1  0.42943500  0.14211500  0.34430100  1
  H  1436  1  0.45217600  0.13885800  0.33807700  1
  H  1447  1  0.17938400  0.16150400  0.37636400  1
  H  1450  1  0.14361600  0.16725400  0.36105100  1
  H  1451  1  0.12977500  0.18886800  0.36008300  1
  H  1452  1  0.12891900  0.17418700  0.38097400  1
  H  1455  1  0.20427900  0.13979600  0.38942700  1
  H  1457  1  0.15620200  0.21440300  0.42821200  1
  H  1464  1  0.85695000  0.87487700  0.37641300  1
  H  1467  1  0.89271400  0.86910200  0.36110700  1
  H  1468  1  0.90654800  0.84748200  0.36016000  1
  H  1469  1  0.90740900  0.86218200  0.38103700  1
  H  1472  1  0.83206000  0.89660600  0.38945800  1
  H  1474  1  0.88010200  0.82201100  0.42830600  1
  H  1481  1  0.85697500  0.16153900  0.66221200  1
  H  1484  1  0.89274000  0.16729900  0.67751400  1
  H  1485  1  0.90657700  0.18891600  0.67848000  1
  H  1486  1  0.90742800  0.17423900  0.65758700  1
  H  1489  1  0.83207300  0.13983600  0.64915900  1
  H  1491  1  0.88010800  0.21447100  0.61037100  1
  H  1498  1  0.17948700  0.87474100  0.66219100  1
  H  1501  1  0.14343800  0.86924500  0.67692500  1
  H  1502  1  0.12977100  0.84755100  0.67827300  1
  H  1503  1  0.12890100  0.86177200  0.65707500  1
  H  1506  1  0.20427500  0.89656200  0.64911700  1
  H  1508  1  0.15621000  0.82198800  0.61024500  1
  H  1515  1  0.37528300  0.17953600  0.16278500  1
  H  1518  1  0.36055500  0.14347000  0.16825200  1
  H  1519  1  0.35921400  0.12979000  0.18993900  1
  H  1520  1  0.38040700  0.12892700  0.17570900  1
  H  1523  1  0.38834700  0.20435300  0.14099100  1
  H  1525  1  0.42725000  0.15619900  0.21548400  1
  H  1532  1  0.37526500  0.85685200  0.87586100  1
  H  1535  1  0.36036100  0.89297400  0.87024800  1
  H  1536  1  0.35919600  0.90661900  0.84852100  1
  H  1537  1  0.38027800  0.90747400  0.86291100  1
  H  1540  1  0.38832900  0.83203000  0.89764800  1
  H  1542  1  0.42723700  0.88019900  0.82317400  1
  H  1549  1  0.66107200  0.85683600  0.16276100  1
  H  1552  1  0.67595000  0.89297000  0.16837100  1
  H  1553  1  0.67711000  0.90661600  0.19009800  1
  H  1554  1  0.65602300  0.90745300  0.17571600  1
  H  1557  1  0.64801200  0.83201400  0.14096900  1
  H  1559  1  0.60910200  0.88015100  0.21546600  1
  H  1566  1  0.66129800  0.17923900  0.87599600  1
  H  1569  1  0.67651300  0.14345900  0.87017400  1
  H  1570  1  0.67740100  0.12962700  0.84855100  1
  H  1571  1  0.65653500  0.12882300  0.86327000  1
  H  1574  1  0.64832600  0.20415500  0.89775200  1
  H  1576  1  0.60930200  0.15627500  0.82313600  1
  H  1583  1  0.16147500  0.37532100  0.18047500  1
  H  1586  1  0.16724700  0.36000600  0.14471200  1
  H  1587  1  0.18886400  0.35906300  0.13087400  1
  H  1588  1  0.17415400  0.37993300  0.13000700  1
  H  1591  1  0.13974200  0.38836100  0.20536000  1
  H  1593  1  0.21430300  0.42723600  0.15728400  1
  H  1600  1  0.87481500  0.37506900  0.85820300  1
  H  1603  1  0.86898900  0.35985000  0.89398600  1
  H  1604  1  0.84735900  0.35895200  0.90780600  1
  H  1605  1  0.86207200  0.37982200  0.90862500  1
  H  1608  1  0.89653800  0.38803100  0.83325800  1
  H  1610  1  0.82193100  0.42704200  0.88114900  1
  H  1617  1  0.16153300  0.66134000  0.85821200  1
  H  1620  1  0.16735200  0.67656500  0.89399700  1
  H  1621  1  0.18897600  0.67745000  0.90782700  1
  H  1622  1  0.17424800  0.65659100  0.90864500  1
  H  1625  1  0.13980100  0.64837800  0.83327100  1
  H  1627  1  0.21437000  0.60934400  0.88119400  1
  H  1634  1  0.87469500  0.66111700  0.18057600  1
  H  1637  1  0.86919600  0.67585100  0.14452400  1
  H  1638  1  0.84750500  0.67718500  0.13085300  1
  H  1639  1  0.86174200  0.65599800  0.12998300  1
  H  1642  1  0.89652200  0.64805200  0.20536700  1
  H  1644  1  0.82198200  0.60914700  0.15728200  1
  H  1651  1  0.16164900  0.17940600  0.66244400  1
  H  1654  1  0.16718000  0.14333400  0.67711200  1
  H  1655  1  0.18887700  0.12966700  0.67839400  1
  H  1656  1  0.17461100  0.12882800  0.65722500  1
  H  1659  1  0.13983700  0.20425600  0.64945600  1
  H  1661  1  0.21431600  0.15623000  0.61037700  1
  H  1668  1  0.87471700  0.85686500  0.66221400  1
  H  1671  1  0.86910800  0.89299500  0.67710600  1
  H  1672  1  0.84737900  0.90663900  0.67826600  1
  H  1673  1  0.86176900  0.90749000  0.65718500  1
  H  1676  1  0.89650900  0.83204300  0.64915800  1
  H  1678  1  0.82203800  0.88020900  0.61023100  1
  H  1685  1  0.16162600  0.85686900  0.37637100  1
  H  1688  1  0.16724100  0.89299900  0.36148500  1
  H  1689  1  0.18896800  0.90664400  0.36033000  1
  H  1690  1  0.17457800  0.90748900  0.38141100  1
  H  1693  1  0.13982200  0.83205400  0.38943200  1
  H  1695  1  0.21430200  0.88020000  0.42836400  1
  H  1702  1  0.87484100  0.17923900  0.37614700  1
  H  1705  1  0.86903100  0.14344500  0.36095000  1
  H  1706  1  0.84741000  0.12961100  0.36006100  1
  H  1707  1  0.86212200  0.12881600  0.38093200  1
  H  1710  1  0.89659300  0.20416400  0.38911400  1
  H  1712  1  0.82199600  0.15627000  0.42815600  1
  H  1719  1  0.17936400  0.37527600  0.87593400  1
  H  1722  1  0.14359000  0.35998500  0.87018100  1
  H  1723  1  0.12975400  0.35901500  0.84856400  1
  H  1724  1  0.12890700  0.37991500  0.86323300  1
  H  1727  1  0.20426200  0.38832600  0.89764200  1
  H  1729  1  0.15622200  0.42712900  0.82301200  1
  H  1736  1  0.85699900  0.37531700  0.16260100  1
  H  1739  1  0.89275000  0.36000900  0.16840300  1
  H  1740  1  0.90657700  0.35906700  0.19002700  1
  H  1741  1  0.90744000  0.37994200  0.17532100  1
  H  1744  1  0.83211100  0.38834800  0.14086700  1
  H  1746  1  0.88009500  0.42720700  0.21549700  1
  H  1753  1  0.85695400  0.66112900  0.87595000  1
  H  1756  1  0.89273100  0.67643500  0.87020000  1
  H  1757  1  0.90656900  0.67740000  0.84858300  1
  H  1758  1  0.90742400  0.65650900  0.86326500  1
  H  1761  1  0.83205600  0.64807100  0.89765800  1
  H  1763  1  0.88013500  0.60927200  0.82306100  1
  H  1770  1  0.17949000  0.66110100  0.16271100  1
  H  1773  1  0.14344700  0.67586000  0.16820100  1
  H  1774  1  0.12977200  0.67720400  0.18988900  1
  H  1775  1  0.12889100  0.65601700  0.17565400  1
  H  1778  1  0.20427200  0.64801800  0.14088800  1
  H  1780  1  0.15615500  0.60914900  0.21542400  1
  H  1787  1  0.37522700  0.16164400  0.85800000  1
  H  1790  1  0.36048100  0.16711500  0.89406100  1
  H  1791  1  0.35912800  0.18880300  0.90773500  1
  H  1792  1  0.38032300  0.17457900  0.90861300  1
  H  1795  1  0.38830500  0.13985000  0.83319500  1
  H  1797  1  0.42717800  0.21434900  0.88136100  1
  H  1804  1  0.37526900  0.87473000  0.18065900  1
  H  1807  1  0.36038700  0.86912500  0.14452100  1
  H  1808  1  0.35921800  0.84739500  0.13088000  1
  H  1809  1  0.38030800  0.86177200  0.13003300  1
  H  1812  1  0.38832900  0.89651200  0.20548700  1
  H  1814  1  0.42723600  0.82202900  0.15733000  1
  H  1821  1  0.66108100  0.16163400  0.18066100  1
  H  1824  1  0.67596600  0.16724500  0.14453500  1
  H  1825  1  0.67712600  0.18897100  0.13088700  1
  H  1826  1  0.65604000  0.17458800  0.13005000  1
  H  1829  1  0.64801600  0.13984300  0.20548300  1
  H  1831  1  0.60911500  0.21434600  0.15735300  1
  H  1838  1  0.66102200  0.87490500  0.85810600  1
  H  1841  1  0.67630900  0.86914100  0.89387100  1
  H  1842  1  0.67725300  0.84752800  0.90771700  1
  H  1843  1  0.65637000  0.86221900  0.90855200  1
  H  1846  1  0.64797600  0.89664900  0.83322900  1
  H  1848  1  0.60912600  0.82202400  0.88124300  1
  H  1855  1  0.68335600  0.66646900  0.86819000  1
  H  1858  1  0.64762100  0.67018300  0.85018200  1
  H  1859  1  0.63270900  0.69108800  0.84952000  1
  H  1860  1  0.63069600  0.67468400  0.86900300  1
  H  1863  1  0.70825000  0.64485600  0.88195000  1
  H  1865  1  0.64149000  0.70132700  0.92480600  1
  H  1872  1  0.35296000  0.36995000  0.86806300  1
  H  1875  1  0.38860000  0.36628400  0.84990500  1
  H  1876  1  0.40361600  0.34545300  0.84927300  1
  H  1877  1  0.40561200  0.36194200  0.86868500  1
  H  1880  1  0.32811400  0.39158900  0.88185300  1
  H  1882  1  0.39529300  0.33549400  0.92455000  1
  H  1889  1  0.35292700  0.66643100  0.17032400  1
  H  1892  1  0.38865600  0.67013200  0.18834700  1
  H  1893  1  0.40357200  0.69103600  0.18902300  1
  H  1894  1  0.40559100  0.67463800  0.16953500  1
  H  1897  1  0.32803500  0.64482900  0.15654900  1
  H  1899  1  0.39484000  0.70127900  0.11373800  1
  H  1906  1  0.68360800  0.36977000  0.17038300  1
  H  1909  1  0.64765400  0.36638000  0.18801100  1
  H  1910  1  0.63291100  0.34538200  0.18906000  1
  H  1911  1  0.63076900  0.36139000  0.16927400  1
  H  1914  1  0.70837600  0.39149200  0.15658900  1
  H  1916  1  0.64145200  0.33514300  0.11383700  1
  H  1923  1  0.86691600  0.68362800  0.66768600  1
  H  1926  1  0.84915600  0.64775900  0.67103900  1
  H  1927  1  0.84813900  0.63292600  0.69197600  1
  H  1928  1  0.86786200  0.63079800  0.67588800  1
  H  1931  1  0.88073900  0.70836400  0.64594300  1
  H  1933  1  0.92335500  0.64108300  0.70197100  1
  H  1940  1  0.86716000  0.35280800  0.37092400  1
  H  1943  1  0.84935100  0.38887500  0.36732400  1
  H  1944  1  0.84850200  0.40353000  0.34624700  1
  H  1945  1  0.86814700  0.40571000  0.36241800  1
  H  1948  1  0.88095700  0.32797500  0.39256900  1
  H  1950  1  0.92370200  0.39512500  0.33648100  1
  H  1957  1  0.16937800  0.35280000  0.66759400  1
  H  1960  1  0.18732600  0.38877500  0.67115800  1
  H  1961  1  0.18814600  0.40352100  0.69217300  1
  H  1962  1  0.16856800  0.40569300  0.67591900  1
  H  1965  1  0.15555200  0.32801300  0.64591800  1
  H  1967  1  0.11295500  0.39552100  0.70168900  1
  H  1974  1  0.16927200  0.68340400  0.37100100  1
  H  1977  1  0.18729500  0.64767900  0.36728500  1
  H  1978  1  0.18795500  0.63276200  0.34638300  1
  H  1979  1  0.16848100  0.63074400  0.36279600  1
  H  1982  1  0.15551100  0.70829500  0.39261600  1
  H  1984  1  0.11266200  0.64151700  0.33616400  1
  H  1991  1  0.66642500  0.86715100  0.68451500  1
  H  1994  1  0.67014700  0.84911700  0.64879500  1
  H  1995  1  0.69105500  0.84844400  0.63388800  1
  H  1996  1  0.67465200  0.86792500  0.63185500  1
  H  1999  1  0.64481000  0.88092700  0.70939700  1
  H  2001  1  0.70128900  0.92373900  0.64261900  1
  H  2008  1  0.36991400  0.86708800  0.35412400  1
  H  2011  1  0.36619200  0.84906900  0.38984700  1
  H  2012  1  0.34529100  0.84841800  0.40476500  1
  H  2013  1  0.36170900  0.86788800  0.40677900  1
  H  2016  1  0.39153700  0.88084000  0.32923500  1
  H  2018  1  0.33512100  0.92370600  0.39603700  1
  H  2025  1  0.66643700  0.16927900  0.35409600  1
  H  2028  1  0.67016000  0.18730500  0.38982500  1
  H  2029  1  0.69107100  0.18797200  0.40472900  1
  H  2030  1  0.67466200  0.16849500  0.40676200  1
  H  2033  1  0.64481100  0.15551300  0.32921800  1
  H  2035  1  0.70126600  0.11267300  0.39599900  1
  H  2042  1  0.36973200  0.16934000  0.68469400  1
  H  2045  1  0.36632600  0.18694400  0.64873100  1
  H  2046  1  0.34532600  0.18797200  0.63399100  1
  H  2047  1  0.36134300  0.16819300  0.63185700  1
  H  2050  1  0.39146500  0.15557200  0.70947000  1
  H  2052  1  0.33512400  0.11274800  0.64258300  1
  H  2059  1  0.66666667  0.68356700  0.17036900  1
  H  2062  1  0.67002800  0.64760700  0.18798100  1
  H  2063  1  0.69103900  0.63288200  0.18901100  1
  H  2064  1  0.67501800  0.63073000  0.16923600  1
  H  2067  1  0.64485800  0.70833500  0.15659900  1
  H  2069  1  0.70122000  0.64146800  0.11377400  1
  H  2076  1  0.36971900  0.35284300  0.17041700  1
  H  2079  1  0.36615100  0.38891800  0.18813700  1
  H  2080  1  0.34510400  0.40361800  0.18896200  1
  H  2081  1  0.36126100  0.40570700  0.16929700  1
  H  2084  1  0.39145700  0.32806200  0.15666900  1
  H  2086  1  0.33517000  0.39496900  0.11379800  1
  H  2093  1  0.66651700  0.35279500  0.86827600  1
  H  2096  1  0.67012900  0.38886300  0.85045900  1
  H  2097  1  0.69121800  0.40350100  0.84960200  1
  H  2098  1  0.67505100  0.40570300  0.86924600  1
  H  2101  1  0.64486100  0.32797500  0.88207800  1
  H  2103  1  0.70099100  0.39509300  0.92481400  1
  H  2110  1  0.36990700  0.68341300  0.86815000  1
  H  2113  1  0.36617100  0.64769300  0.85011200  1
  H  2114  1  0.34526200  0.63278700  0.84945400  1
  H  2115  1  0.36168200  0.63075100  0.86892100  1
  H  2118  1  0.39153700  0.70828900  0.88191300  1
  H  2120  1  0.33508100  0.64151300  0.92475800  1
  H  2127  1  0.68339400  0.86711800  0.37105300  1
  H  2130  1  0.64767600  0.84908200  0.36732700  1
  H  2131  1  0.63277000  0.84841100  0.34641900  1
  H  2132  1  0.63073500  0.86788900  0.36282300  1
  H  2135  1  0.70827200  0.88089300  0.39267400  1
  H  2137  1  0.64149400  0.92370600  0.33619500  1
  H  2144  1  0.35296000  0.86717500  0.66756100  1
  H  2147  1  0.38868200  0.84914400  0.67126800  1
  H  2148  1  0.40360300  0.84848000  0.69216700  1
  H  2149  1  0.40562200  0.86795700  0.67575700  1
  H  2152  1  0.32807200  0.88094000  0.64595000  1
  H  2154  1  0.39488300  0.92376800  0.70238200  1
  H  2161  1  0.35298900  0.16929100  0.37105300  1
  H  2164  1  0.38872600  0.18729800  0.36733000  1
  H  2165  1  0.40363700  0.18794900  0.34642400  1
  H  2166  1  0.40565200  0.16847500  0.36283600  1
  H  2169  1  0.32810100  0.15554300  0.39267800  1
  H  2171  1  0.39488100  0.11266200  0.33624800  1
  H  2178  1  0.68356000  0.16929400  0.66774200  1
  H  2181  1  0.64759900  0.18691800  0.67115500  1
  H  2182  1  0.63287100  0.18795600  0.69216400  1
  H  2183  1  0.63071600  0.16817800  0.67614800  1
  H  2186  1  0.70832000  0.15551600  0.64600200  1
  H  2188  1  0.64143500  0.11272100  0.70236600  1
  H  2195  1  0.86709900  0.66666667  0.35386200  1
  H  2198  1  0.84949200  0.67003800  0.38982700  1
  H  2199  1  0.84844800  0.69104200  0.40456300  1
  H  2200  1  0.86823800  0.67503800  0.40670100  1
  H  2203  1  0.88088300  0.64492400  0.32907800  1
  H  2205  1  0.92367300  0.70129200  0.39596300  1
  H  2212  1  0.86698900  0.36986900  0.68469400  1
  H  2215  1  0.84903600  0.36631300  0.64871600  1
  H  2216  1  0.84821400  0.34529900  0.63396700  1
  H  2217  1  0.86779200  0.36155200  0.63179700  1
  H  2220  1  0.88082000  0.39154700  0.70947700  1
  H  2222  1  0.92340400  0.33579200  0.64194700  1
  H  2229  1  0.16920400  0.66655400  0.68463400  1
  H  2232  1  0.18699100  0.67016400  0.64855700  1
  H  2233  1  0.18783500  0.69124900  0.63391100  1
  H  2234  1  0.16818800  0.67507900  0.63173400  1
  H  2237  1  0.15542000  0.64490300  0.70947000  1
  H  2239  1  0.11263500  0.70102200  0.64237200  1
  H  2246  1  0.16943900  0.36997100  0.35402800  1
  H  2249  1  0.18761800  0.36629600  0.38965800  1
  H  2250  1  0.18826600  0.34545700  0.40466200  1
  H  2251  1  0.16885300  0.36194100  0.40668100  1
  H  2254  1  0.15562400  0.39160900  0.32919100  1
  H  2256  1  0.11297600  0.33546700  0.39635800  1
  H  2263  1  0.20837500  0.00645500  0.38370000  1
  H  2266  1  0.22789900  0.05213300  0.36899100  1
  H  2267  1  0.20489900  0.06147600  0.36295100  1
  H  2268  1  0.21002200  0.03663100  0.35893100  1
  H  2271  1  0.22537400  0.97447700  0.39002600  1
  H  2273  1  0.23012000  0.06030600  0.43571400  1
  H  2280  1  0.82797000  0.02996100  0.38368100  1
  H  2283  1  0.80850600  0.98425700  0.36898400  1
  H  2284  1  0.83151800  0.97494000  0.36295400  1
  H  2285  1  0.82636700  0.99977600  0.35892300  1
  H  2288  1  0.81091200  0.06192600  0.39000500  1
  H  2290  1  0.80628700  0.97611700  0.43572700  1
  H  2297  1  0.82798200  0.00647100  0.65491000  1
  H  2300  1  0.80847000  0.05215800  0.66962000  1
  H  2301  1  0.83147400  0.06149000  0.67566200  1
  H  2302  1  0.82633800  0.03664800  0.67968300  1
  H  2305  1  0.81095600  0.97449700  0.64858000  1
  H  2307  1  0.80624200  0.06031600  0.60288800  1
  H  2314  1  0.20830000  0.02996200  0.65487100  1
  H  2317  1  0.22808700  0.98398900  0.66913400  1
  H  2318  1  0.20509100  0.97499200  0.67566600  1
  H  2319  1  0.21064000  0.99975800  0.67953500  1
  H  2322  1  0.22538100  0.06191500  0.64858500  1
  H  2324  1  0.23005600  0.97610700  0.60287800  1
  H  2331  1  0.38262500  0.20829900  0.00761300  1
  H  2334  1  0.36834700  0.22816100  0.05355500  1
  H  2335  1  0.36183800  0.20517500  0.06259300  1
  H  2336  1  0.35795900  0.21067700  0.03781700  1
  H  2339  1  0.38887500  0.22534100  0.97563700  1
  H  2341  1  0.43458600  0.23017900  0.06143800  1
  H  2348  1  0.38263900  0.82809600  0.03106700  1
  H  2351  1  0.36827800  0.80827000  0.98512800  1
  H  2352  1  0.36189300  0.83123800  0.97596500  1
  H  2353  1  0.35788200  0.82584200  0.00075200  1
  H  2356  1  0.38892700  0.81107600  0.06305400  1
  H  2358  1  0.43457500  0.80619800  0.97721800  1
  H  2365  1  0.65373300  0.82809500  0.00753800  1
  H  2368  1  0.66806800  0.80825900  0.05347800  1
  H  2369  1  0.67447700  0.83121800  0.06264300  1
  H  2370  1  0.67848300  0.82581900  0.03785600  1
  H  2373  1  0.64743300  0.81105800  0.97555900  1
  H  2375  1  0.60176900  0.80625500  0.06138000  1
  H  2382  1  0.65389500  0.20834600  0.03117500  1
  H  2385  1  0.66869800  0.22776000  0.98547700  1
  H  2386  1  0.67471700  0.20473200  0.97618700  1
  H  2387  1  0.67871000  0.20989900  0.00102700  1
  H  2390  1  0.64753300  0.22541900  0.06311700  1
  H  2392  1  0.60198600  0.23003000  0.97720200  1
  H  2399  1  0.00640700  0.38258700  0.20952700  1
  H  2402  1  0.05208400  0.36787100  0.22904900  1
  H  2403  1  0.06142800  0.36184200  0.20604600  1
  H  2404  1  0.03658300  0.35781900  0.21116600  1
  H  2407  1  0.97442700  0.38889900  0.22653300  1
  H  2409  1  0.06025100  0.43459400  0.23130300  1
  H  2416  1  0.02999200  0.38246800  0.82911500  1
  H  2419  1  0.98429300  0.36764400  0.80971100  1
  H  2420  1  0.97499900  0.36167000  0.83274900  1
  H  2421  1  0.99983800  0.35765800  0.82759400  1
  H  2424  1  0.06193900  0.38877900  0.81202300  1
  H  2426  1  0.97605800  0.43435800  0.80731800  1
  H  2433  1  0.00636400  0.65396400  0.82915700  1
  H  2436  1  0.05206000  0.66877200  0.80974700  1
  H  2437  1  0.06135900  0.67475900  0.83277800  1
  H  2438  1  0.03651900  0.67876800  0.82762400  1
  H  2441  1  0.97441900  0.64763800  0.81206200  1
  H  2443  1  0.06029700  0.60204800  0.80743500  1
  H  2450  1  0.02992900  0.65378900  0.20935900  1
  H  2453  1  0.98395800  0.66806600  0.22915200  1
  H  2454  1  0.97495800  0.67459300  0.20615400  1
  H  2455  1  0.99972600  0.67846000  0.21169900  1
  H  2458  1  0.06188600  0.64749800  0.22643600  1
  H  2460  1  0.97606700  0.60181300  0.23113100  1
  H  2467  1  0.00635000  0.20827100  0.65498100  1
  H  2470  1  0.05229100  0.22804800  0.66938300  1
  H  2471  1  0.06129400  0.20503500  0.67585000  1
  H  2472  1  0.03651700  0.21055400  0.67970100  1
  H  2475  1  0.97440300  0.22537700  0.64872100  1
  H  2477  1  0.06028600  0.23016600  0.60315600  1
  H  2484  1  0.02994500  0.82808600  0.65483600  1
  H  2487  1  0.98400400  0.80827600  0.66921600  1
  H  2488  1  0.97484700  0.83124900  0.67559300  1
  H  2489  1  0.99963400  0.82584800  0.67960000  1
  H  2492  1  0.06193000  0.81106800  0.64855000  1
  H  2494  1  0.97608100  0.80616900  0.60292200  1
  H  2501  1  0.00640400  0.82810800  0.38371500  1
  H  2504  1  0.05234700  0.80828900  0.36937000  1
  H  2505  1  0.06150800  0.83125400  0.36297500  1
  H  2506  1  0.03672200  0.82585300  0.35896500  1
  H  2509  1  0.97442700  0.81106000  0.39000500  1
  H  2511  1  0.06024800  0.80625300  0.43566900  1
  H  2518  1  0.02999200  0.20831700  0.38350400  1
  H  2521  1  0.98427900  0.22770000  0.36871800  1
  H  2522  1  0.97499000  0.20466400  0.36272900  1
  H  2523  1  0.99982600  0.20983200  0.35871100  1
  H  2526  1  0.06193400  0.22540900  0.38982700  1
  H  2528  1  0.97605100  0.23001100  0.43543600  1
  H  2535  1  0.20837000  0.38259000  0.03098400  1
  H  2538  1  0.22791200  0.36786600  0.98531900  1
  H  2539  1  0.20491300  0.36183400  0.97596700  1
  H  2540  1  0.21002200  0.35781600  0.00081400  1
  H  2543  1  0.22536400  0.38890700  0.06296900  1
  H  2545  1  0.23018600  0.43458600  0.97714000  1
  H  2552  1  0.82795300  0.38255100  0.00747800  1
  H  2555  1  0.80848700  0.36785000  0.05318200  1
  H  2556  1  0.83149900  0.36181300  0.06249700  1
  H  2557  1  0.82634500  0.35778800  0.03766000  1
  H  2560  1  0.81090800  0.38887500  0.97551200  1
  H  2562  1  0.80624900  0.43458400  0.06132600  1
  H  2569  1  0.82797700  0.65378700  0.03101500  1
  H  2572  1  0.80848700  0.66851000  0.98532600  1
  H  2573  1  0.83149600  0.67454200  0.97600000  1
  H  2574  1  0.82635800  0.67856100  0.00084200  1
  H  2577  1  0.81093500  0.64745900  0.06298400  1
  H  2579  1  0.80625200  0.60177700  0.97715900  1
  H  2586  1  0.20829000  0.65377400  0.00750400  1
  H  2589  1  0.22806400  0.66802600  0.05348600  1
  H  2590  1  0.20506500  0.67455400  0.06248100  1
  H  2591  1  0.21061900  0.67843000  0.03771600  1
  H  2594  1  0.22539000  0.64749700  0.97555600  1
  H  2596  1  0.23001100  0.60176900  0.06135400  1
  H  2603  1  0.38260700  0.00645100  0.82921100  1
  H  2606  1  0.36831500  0.05238300  0.80933200  1
  H  2607  1  0.36178200  0.06141800  0.83231200  1
  H  2608  1  0.35792400  0.03663900  0.82681000  1
  H  2611  1  0.38888900  0.97447700  0.81217400  1
  H  2613  1  0.43455200  0.06030300  0.80734600  1
  H  2620  1  0.38265100  0.02994100  0.20939400  1
  H  2623  1  0.36828400  0.98400200  0.22921200  1
  H  2624  1  0.36190200  0.97484000  0.20624400  1
  H  2625  1  0.35789300  0.99962700  0.21164100  1
  H  2628  1  0.38894000  0.06192700  0.22641300  1
  H  2630  1  0.43458100  0.97608700  0.23129000  1
  H  2637  1  0.65371800  0.00641800  0.20940400  1
  H  2640  1  0.66806500  0.05236300  0.22921800  1
  H  2641  1  0.67445800  0.06152200  0.20625000  1
  H  2642  1  0.67846900  0.03673700  0.21165400  1
  H  2645  1  0.64742700  0.97444000  0.22644600  1
  H  2647  1  0.60176600  0.06026300  0.23125700  1
  H  2654  1  0.65380200  0.02995700  0.82907800  1
  H  2657  1  0.66847000  0.98425400  0.80959700  1
  H  2658  1  0.67452000  0.97492900  0.83260100  1
  H  2659  1  0.67855100  0.99976700  0.82745200  1
  H  2662  1  0.64747500  0.06192300  0.81203900  1
  H  2664  1  0.60173400  0.97611400  0.80742800  1
  H  2671  1  0.71031600  0.50639300  0.87498200  1
  H  2674  1  0.73236900  0.55192800  0.86054100  1
  H  2675  1  0.70965100  0.56159000  0.85396500  1
  H  2676  1  0.71457000  0.53670500  0.84992700  1
  H  2679  1  0.72512000  0.47344100  0.88147200  1
  H  2681  1  0.74004300  0.55849700  0.92562000  1
  H  2688  1  0.32598200  0.53003800  0.87493200  1
  H  2691  1  0.30394100  0.48450200  0.86047300  1
  H  2692  1  0.32666300  0.47484800  0.85390100  1
  H  2693  1  0.32174100  0.49973200  0.84986800  1
  H  2696  1  0.31111500  0.56298400  0.88141400  1
  H  2698  1  0.29625800  0.47791600  0.92555500  1
  H  2705  1  0.32594800  0.50637000  0.16355900  1
  H  2708  1  0.30389400  0.55190500  0.17796600  1
  H  2709  1  0.32660800  0.56156900  0.18456200  1
  H  2710  1  0.32168600  0.53668500  0.18859900  1
  H  2713  1  0.31105800  0.47343700  0.15709100  1
  H  2715  1  0.29629600  0.55846800  0.11287000  1
  H  2722  1  0.71024500  0.52999300  0.16348300  1
  H  2725  1  0.73265200  0.48414200  0.17744700  1
  H  2726  1  0.70995000  0.47483500  0.18454200  1
  H  2727  1  0.71530900  0.49964300  0.18841900  1
  H  2730  1  0.72510700  0.56295200  0.15706000  1
  H  2732  1  0.74015000  0.47791200  0.11293500  1
  H  2739  1  0.87392700  0.71027300  0.50743600  1
  H  2742  1  0.85993300  0.73269100  0.55328400  1
  H  2743  1  0.85283800  0.70998600  0.56258700  1
  H  2744  1  0.84897100  0.71534700  0.53777700  1
  H  2747  1  0.88035500  0.72513700  0.47448200  1
  H  2749  1  0.92441800  0.74024100  0.55953900  1
  H  2756  1  0.86743600  0.31348500  0.53105500  1
  H  2759  1  0.85571900  0.33769900  0.50144000  1
  H  2760  1  0.85480400  0.33240500  0.47632200  1
  H  2761  1  0.87644900  0.34119500  0.48664500  1
  H  2764  1  0.87913800  0.30707000  0.56450600  1
  H  2766  1  0.92302500  0.29430800  0.47941400  1
  H  2773  1  0.16898900  0.31346700  0.50745000  1
  H  2776  1  0.18070300  0.33769400  0.53705200  1
  H  2777  1  0.18162200  0.33241700  0.56217300  1
  H  2778  1  0.15997200  0.34118500  0.55184500  1
  H  2781  1  0.15726400  0.30705600  0.47399800  1
  H  2783  1  0.11342100  0.29429000  0.55912100  1
  H  2790  1  0.16245800  0.71034800  0.53108100  1
  H  2793  1  0.17690700  0.73238200  0.48554300  1
  H  2794  1  0.18347600  0.70965900  0.47588700  1
  H  2795  1  0.18751400  0.71458100  0.50077000  1
  H  2798  1  0.15596700  0.72516200  0.56403100  1
  H  2800  1  0.11181300  0.74004400  0.47896800  1
  H  2807  1  0.50634200  0.87390500  0.71150800  1
  H  2810  1  0.55188900  0.85950900  0.73354100  1
  H  2811  1  0.56154400  0.85291200  0.71082400  1
  H  2812  1  0.53666300  0.84887200  0.71575600  1
  H  2815  1  0.47340700  0.88038400  0.72636600  1
  H  2817  1  0.55844600  0.92460800  0.74112500  1
  H  2824  1  0.53000900  0.87384700  0.32712700  1
  H  2827  1  0.48448100  0.85941200  0.30505600  1
  H  2828  1  0.47481900  0.85281600  0.32776800  1
  H  2829  1  0.49970400  0.84878800  0.32285100  1
  H  2832  1  0.56295900  0.88034800  0.31229900  1
  H  2834  1  0.47789900  0.92449900  0.29743400  1
  H  2841  1  0.50635200  0.16248900  0.32713500  1
  H  2844  1  0.55188400  0.17690800  0.30506300  1
  H  2845  1  0.56154500  0.18351200  0.32777400  1
  H  2846  1  0.53666000  0.18754100  0.32285200  1
  H  2849  1  0.47340700  0.15599000  0.31231200  1
  H  2851  1  0.55845800  0.11181700  0.29747200  1
  H  2858  1  0.52999200  0.16244900  0.71137700  1
  H  2861  1  0.48412000  0.17643800  0.73371300  1
  H  2862  1  0.47483200  0.18350200  0.71099200  1
  H  2863  1  0.49963600  0.18738800  0.71636800  1
  H  2866  1  0.56293700  0.15603800  0.72626900  1
  H  2868  1  0.47788000  0.11191900  0.74125600  1
  H  2875  1  0.50633300  0.71022800  0.16351800  1
  H  2878  1  0.55218000  0.73265900  0.17747700  1
  H  2879  1  0.56149200  0.70996200  0.18458700  1
  H  2880  1  0.53668000  0.71531900  0.18845700  1
  H  2883  1  0.47338100  0.72508000  0.15709400  1
  H  2885  1  0.55841600  0.74017400  0.11299000  1
  H  2892  1  0.53003800  0.32620000  0.16356200  1
  H  2895  1  0.48417000  0.30394400  0.17766900  1
  H  2896  1  0.47474900  0.32666200  0.18455200  1
  H  2897  1  0.49956200  0.32140400  0.18859000  1
  H  2900  1  0.56297300  0.31125000  0.15717500  1
  H  2902  1  0.47791600  0.29623900  0.11308700  1
  H  2909  1  0.50639900  0.31346800  0.86855300  1
  H  2912  1  0.53601100  0.33770100  0.85685400  1
  H  2913  1  0.56113000  0.33241700  0.85594400  1
  H  2914  1  0.55079900  0.34119300  0.87759000  1
  H  2917  1  0.47294500  0.30703000  0.88025400  1
  H  2919  1  0.55803300  0.29432100  0.92416200  1
  H  2926  1  0.53000300  0.71036700  0.87496700  1
  H  2929  1  0.48445600  0.73237900  0.86051500  1
  H  2930  1  0.47480700  0.70965100  0.85395200  1
  H  2931  1  0.49969000  0.71458000  0.84991100  1
  H  2934  1  0.56295000  0.72519800  0.88145600  1
  H  2936  1  0.47788000  0.74002500  0.92561900  1
  H  2943  1  0.71036500  0.87388900  0.53112800  1
  H  2946  1  0.73243400  0.85947000  0.48559000  1
  H  2947  1  0.70972200  0.85287900  0.47592700  1
  H  2948  1  0.71464200  0.84884000  0.50081100  1
  H  2951  1  0.72515000  0.88038800  0.56408600  1
  H  2953  1  0.74007000  0.92454800  0.47903300  1
  H  2960  1  0.32597100  0.87389700  0.50749400  1
  H  2963  1  0.30391600  0.85948900  0.55302500  1
  H  2964  1  0.32662800  0.85289700  0.56269100  1
  H  2965  1  0.32171200  0.84885900  0.53780800  1
  H  2968  1  0.31107500  0.88035700  0.47455700  1
  H  2970  1  0.29629700  0.92458300  0.55958200  1
  H  2977  1  0.32598200  0.16252900  0.53113900  1
  H  2980  1  0.30393800  0.17697100  0.48560000  1
  H  2981  1  0.32665700  0.18354800  0.47594300  1
  H  2982  1  0.32173400  0.18758500  0.50082700  1
  H  2985  1  0.31113300  0.15604400  0.56408600  1
  H  2987  1  0.29628600  0.11188100  0.47902800  1
  H  2994  1  0.71022100  0.16241700  0.50748700  1
  H  2997  1  0.73259000  0.17638800  0.55334900  1
  H  2998  1  0.70987900  0.18346800  0.56264700  1
  H  2999  1  0.71524800  0.18735200  0.53783900  1
  H  3002  1  0.72510700  0.15600800  0.47454100  1
  H  3004  1  0.74012500  0.11188000  0.55958100  1
  H  3011  1  0.87395600  0.50640900  0.32721000  1
  H  3014  1  0.86000400  0.55225800  0.30479600  1
  H  3015  1  0.85290800  0.56157200  0.32749600  1
  H  3016  1  0.84902600  0.53676100  0.32213900  1
  H  3019  1  0.88035100  0.47346300  0.31230900  1
  H  3021  1  0.92449600  0.55847800  0.29726500  1
  H  3028  1  0.86739000  0.53002400  0.72397400  1
  H  3031  1  0.85566500  0.50043000  0.69976000  1
  H  3032  1  0.85474600  0.47530800  0.70502900  1
  H  3033  1  0.87639500  0.48563800  0.69626200  1
  H  3036  1  0.87911100  0.56348000  0.73037500  1
  H  3038  1  0.92294800  0.47835000  0.74317500  1
  H  3045  1  0.16892100  0.50642200  0.72395700  1
  H  3048  1  0.18063500  0.53604200  0.69975000  1
  H  3049  1  0.18155300  0.56115900  0.70504800  1
  H  3050  1  0.15990400  0.55083900  0.69626600  1
  H  3053  1  0.15720000  0.47296400  0.73034200  1
  H  3055  1  0.11334900  0.55807000  0.74316900  1
  H  3062  1  0.16251100  0.53005500  0.32707000  1
  H  3065  1  0.17696200  0.48450400  0.30506500  1
  H  3066  1  0.18353100  0.47486100  0.32779300  1
  H  3067  1  0.18756700  0.49974200  0.32285600  1
  H  3070  1  0.15601800  0.56299700  0.31222800  1
  H  3072  1  0.11186000  0.47791900  0.29742600  1
  C  1  1  0.27855900  0.12201700  0.42247100  1
  C  2  1  0.28328000  0.12633600  0.44182800  1
  C  3  1  0.30225700  0.13131200  0.44737300  1
  C  4  1  0.31706900  0.13250900  0.43315900  1
  C  5  1  0.31235100  0.12844100  0.41345900  1
  C  6  1  0.29316000  0.12311500  0.40794400  1
  C  9  1  0.25937600  0.11517400  0.41886300  1
  C  10  1  0.25514500  0.09525300  0.41559500  1
  C  11  1  0.23547300  0.08961000  0.41276800  1
  C  12  1  0.22019200  0.10349100  0.41293700  1
  C  13  1  0.22483300  0.12330700  0.41606100  1
  C  14  1  0.24418300  0.12880600  0.41925800  1
  C  31  1  0.75778100  0.91444400  0.42247000  1
  C  32  1  0.75306200  0.91011500  0.44182500  1
  C  33  1  0.73408500  0.90513900  0.44736800  1
  C  34  1  0.71927300  0.90394100  0.43315200  1
  C  35  1  0.72399400  0.90801100  0.41345300  1
  C  36  1  0.74318400  0.91334400  0.40794100  1
  C  39  1  0.77696800  0.92127400  0.41886300  1
  C  40  1  0.78121300  0.94119100  0.41559500  1
  C  41  1  0.80089100  0.94682100  0.41277200  1
  C  42  1  0.81616400  0.93293000  0.41294800  1
  C  43  1  0.81150800  0.91311800  0.41607400  1
  C  44  1  0.79215300  0.90763200  0.41926200  1
  C  61  1  0.75778900  0.12202100  0.61616000  1
  C  62  1  0.75306100  0.12632300  0.59680000  1
  C  63  1  0.73407600  0.13126900  0.59125400  1
  C  64  1  0.71926800  0.13247100  0.60547100  1
  C  65  1  0.72399200  0.12841300  0.62517100  1
  C  66  1  0.74318500  0.12309900  0.63068500  1
  C  69  1  0.77697600  0.11518200  0.61975700  1
  C  70  1  0.78121800  0.09526300  0.62302200  1
  C  71  1  0.80089400  0.08962800  0.62583900  1
  C  72  1  0.81617000  0.10351600  0.62566300  1
  C  73  1  0.81151800  0.12333000  0.62253800  1
  C  74  1  0.79216300  0.12882200  0.61935900  1
  C  91  1  0.27854500  0.91441300  0.61613800  1
  C  92  1  0.28327900  0.91010300  0.59678100  1
  C  93  1  0.30226500  0.90516100  0.59124300  1
  C  94  1  0.31707300  0.90397600  0.60546200  1
  C  95  1  0.31234400  0.90804300  0.62516100  1
  C  96  1  0.29314600  0.91334800  0.63066700  1
  C  99  1  0.25935400  0.92124700  0.61972800  1
  C  100  1  0.25510500  0.94116400  0.62299800  1
  C  101  1  0.23542700  0.94679000  0.62581600  1
  C  102  1  0.22015500  0.93289800  0.62563100  1
  C  103  1  0.22481300  0.91308800  0.62249300  1
  C  104  1  0.24417000  0.90760300  0.61932000  1
  C  121  1  0.42134900  0.27860700  0.12317500  1
  C  122  1  0.44070400  0.28332900  0.12749900  1
  C  123  1  0.44625000  0.30230700  0.13247200  1
  C  124  1  0.43203500  0.31711800  0.13367000  1
  C  125  1  0.41233600  0.31239900  0.12959500  1
  C  126  1  0.40682300  0.29321000  0.12426700  1
  C  129  1  0.41774600  0.25942500  0.11632900  1
  C  130  1  0.41447800  0.25519600  0.09640800  1
  C  131  1  0.41165900  0.23552200  0.09076200  1
  C  132  1  0.41183900  0.22023800  0.10463900  1
  C  133  1  0.41496700  0.22487800  0.12445500  1
  C  134  1  0.41815400  0.24422800  0.12995800  1
  C  151  1  0.42133900  0.75780200  0.91547800  1
  C  152  1  0.44069400  0.75308400  0.91114900  1
  C  153  1  0.44623400  0.73410900  0.90616300  1
  C  154  1  0.43201700  0.71929900  0.90495800  1
  C  155  1  0.41231800  0.72402000  0.90902800  1
  C  156  1  0.40680700  0.74320700  0.91436800  1
  C  159  1  0.41773400  0.77698400  0.92232900  1
  C  160  1  0.41445900  0.78120700  0.94225000  1
  C  161  1  0.41163900  0.80087800  0.94790100  1
  C  162  1  0.41181800  0.81616700  0.93402600  1
  C  163  1  0.41495200  0.81153300  0.91421100  1
  C  164  1  0.41814000  0.79218300  0.90870400  1
  C  181  1  0.61500400  0.75779600  0.12310200  1
  C  182  1  0.59564400  0.75307100  0.12740400  1
  C  183  1  0.59009800  0.73408700  0.13235400  1
  C  184  1  0.60431300  0.71927800  0.13356000  1
  C  185  1  0.62401500  0.72400200  0.12950200  1
  C  186  1  0.62953000  0.74319400  0.12418400  1
  C  189  1  0.61860200  0.77698100  0.11625700  1
  C  190  1  0.62187800  0.78121600  0.09633800  1
  C  191  1  0.62470400  0.80089100  0.09069900  1
  C  192  1  0.62452600  0.81617000  0.10458200  1
  C  193  1  0.62138600  0.81152600  0.12439400  1
  C  194  1  0.61820200  0.79217300  0.12989100  1
  C  211  1  0.61520200  0.27848700  0.91552200  1
  C  212  1  0.59584700  0.28303400  0.91101900  1
  C  213  1  0.59014300  0.30196100  0.90600700  1
  C  214  1  0.60424500  0.31689000  0.90489800  1
  C  215  1  0.62395600  0.31235000  0.90913200  1
  C  216  1  0.62960100  0.29321800  0.91453500  1
  C  219  1  0.61890500  0.25932200  0.92237800  1
  C  220  1  0.62214000  0.25509500  0.94230500  1
  C  221  1  0.62499400  0.23542800  0.94795600  1
  C  222  1  0.62485300  0.22014100  0.93408000  1
  C  223  1  0.62173300  0.22477200  0.91426300  1
  C  224  1  0.61854700  0.24412000  0.90875200  1
  C  241  1  0.12200300  0.42136000  0.27968800  1
  C  242  1  0.12631900  0.44072200  0.28439700  1
  C  243  1  0.13131800  0.44627400  0.30336500  1
  C  244  1  0.13254500  0.43206700  0.31818200  1
  C  245  1  0.12848100  0.41236200  0.31347500  1
  C  246  1  0.12312900  0.40683800  0.29429500  1
  C  249  1  0.11514800  0.41774300  0.26051000  1
  C  250  1  0.09522500  0.41447000  0.25629100  1
  C  251  1  0.08956700  0.41165400  0.23662000  1
  C  252  1  0.10343800  0.41183700  0.22132900  1
  C  253  1  0.12325700  0.41496400  0.22595900  1
  C  254  1  0.12876800  0.41815100  0.24530500  1
  C  271  1  0.91433200  0.42117500  0.75894800  1
  C  272  1  0.90982000  0.44053200  0.75442400  1
  C  273  1  0.90478000  0.44625000  0.73550800  1
  C  274  1  0.90365500  0.43215900  0.72057100  1
  C  275  1  0.90788500  0.41244500  0.72509000  1
  C  276  1  0.91331100  0.40678500  0.74421100  1
  C  279  1  0.92118900  0.41744800  0.77810800  1
  C  280  1  0.94111900  0.41421000  0.78232900  1
  C  281  1  0.94677600  0.41135700  0.80199500  1
  C  282  1  0.93290400  0.41149900  0.81728500  1
  C  283  1  0.91308200  0.41460800  0.81266100  1
  C  284  1  0.90756800  0.41780500  0.79331600  1
  C  301  1  0.12199800  0.61524100  0.75897600  1
  C  302  1  0.12649500  0.59588600  0.75443000  1
  C  303  1  0.13149900  0.59017900  0.73550000  1
  C  304  1  0.13260800  0.60428200  0.72057300  1
  C  305  1  0.12838100  0.62399200  0.72511100  1
  C  306  1  0.12298300  0.62963900  0.74424300  1
  C  309  1  0.11514100  0.61894700  0.77814000  1
  C  310  1  0.09521300  0.62218700  0.78236300  1
  C  311  1  0.08956200  0.62504800  0.80203000  1
  C  312  1  0.10343600  0.62490800  0.81731900  1
  C  313  1  0.12325400  0.62178800  0.81268700  1
  C  314  1  0.12876500  0.61859200  0.79334200  1
  C  331  1  0.91437900  0.61506800  0.27962700  1
  C  332  1  0.91007900  0.59570800  0.28435900  1
  C  333  1  0.90513300  0.59016400  0.30334500  1
  C  334  1  0.90393000  0.60438300  0.31815100  1
  C  335  1  0.90798900  0.62408300  0.31342300  1
  C  336  1  0.91330100  0.62959500  0.29422800  1
  C  339  1  0.92121200  0.61866300  0.26043900  1
  C  340  1  0.94112900  0.62193600  0.25619300  1
  C  341  1  0.94675700  0.62475600  0.23651500  1
  C  342  1  0.93286700  0.62457000  0.22124200  1
  C  343  1  0.91305800  0.62142800  0.22589800  1
  C  344  1  0.90757100  0.61825400  0.24525500  1
  C  361  1  0.12203900  0.27852700  0.61630200  1
  C  362  1  0.12654300  0.28305300  0.59694300  1
  C  363  1  0.13158500  0.30196700  0.59122300  1
  C  364  1  0.13271300  0.31690600  0.60531000  1
  C  365  1  0.12848600  0.31238900  0.62502800  1
  C  366  1  0.12306300  0.29326700  0.63069000  1
  C  369  1  0.11517400  0.25937000  0.62003000  1
  C  370  1  0.09524300  0.25516300  0.62327500  1
  C  371  1  0.08957400  0.23550000  0.62613300  1
  C  372  1  0.10343700  0.22020000  0.62599100  1
  C  373  1  0.12325900  0.22481400  0.62287000  1
  C  374  1  0.12878400  0.24415500  0.61966600  1
  C  391  1  0.91434100  0.75779900  0.61614300  1
  C  392  1  0.91003200  0.75309600  0.59678000  1
  C  393  1  0.90504800  0.73412600  0.59121700  1
  C  394  1  0.90381800  0.71930800  0.60542200  1
  C  395  1  0.90787100  0.72401000  0.62512900  1
  C  396  1  0.91321500  0.74319100  0.63066200  1
  C  399  1  0.92119000  0.77697800  0.61976700  1
  C  400  1  0.94111100  0.78120200  0.62304400  1
  C  401  1  0.94676300  0.80087300  0.62586200  1
  C  402  1  0.93288900  0.81616100  0.62568000  1
  C  403  1  0.91307200  0.81152800  0.62254800  1
  C  404  1  0.90756500  0.79217900  0.61935900  1
  C  421  1  0.12198900  0.75782000  0.42242200  1
  C  422  1  0.12629900  0.75309000  0.44177900  1
  C  423  1  0.13126000  0.73410800  0.44731800  1
  C  424  1  0.13246500  0.71930100  0.43309800  1
  C  425  1  0.12840100  0.72402900  0.41339800  1
  C  426  1  0.12307500  0.74322100  0.40789200  1
  C  429  1  0.11513600  0.77700300  0.41883100  1
  C  430  1  0.09521500  0.78123100  0.41555600  1
  C  431  1  0.08956900  0.80090300  0.41273600  1
  C  432  1  0.10344600  0.81618900  0.41291700  1
  C  433  1  0.12326000  0.81155000  0.41605300  1
  C  434  1  0.12876400  0.79219900  0.41923500  1
  C  451  1  0.91437600  0.27849300  0.42224300  1
  C  452  1  0.90987900  0.28304000  0.44159800  1
  C  453  1  0.90487400  0.30197000  0.44730500  1
  C  454  1  0.90376900  0.31689800  0.43320200  1
  C  455  1  0.90800000  0.31235800  0.41349200  1
  C  456  1  0.91339500  0.29322600  0.40784500  1
  C  459  1  0.92122600  0.25932700  0.41853900  1
  C  460  1  0.94115300  0.25509600  0.41529800  1
  C  461  1  0.94679900  0.23542800  0.41243800  1
  C  462  1  0.93292100  0.22014400  0.41258100  1
  C  463  1  0.91310400  0.22477900  0.41570600  1
  C  464  1  0.90759900  0.24412800  0.41889600  1
  C  481  1  0.27858100  0.42134400  0.91541600  1
  C  482  1  0.28329200  0.44070600  0.91110600  1
  C  483  1  0.30226400  0.44626100  0.90612700  1
  C  484  1  0.31708400  0.43205700  0.90491600  1
  C  485  1  0.31237600  0.41235100  0.90897600  1
  C  486  1  0.29318900  0.40682500  0.91430800  1
  C  489  1  0.25939700  0.41772600  0.92225800  1
  C  490  1  0.25516500  0.41445700  0.94217900  1
  C  491  1  0.23549000  0.41164200  0.94782300  1
  C  492  1  0.22020900  0.41181800  0.93394100  1
  C  493  1  0.22485000  0.41493800  0.91412400  1
  C  494  1  0.24420300  0.41812800  0.90862700  1
  C  511  1  0.75781800  0.42133700  0.12303400  1
  C  512  1  0.75309700  0.44069400  0.12735100  1
  C  513  1  0.73411800  0.44623500  0.13232500  1
  C  514  1  0.71931100  0.43201700  0.13353500  1
  C  515  1  0.72403300  0.41231800  0.12947400  1
  C  516  1  0.74322300  0.40680500  0.12414100  1
  C  519  1  0.77700400  0.41773000  0.11619800  1
  C  520  1  0.78124400  0.41445600  0.09628000  1
  C  521  1  0.80091900  0.41163900  0.09064400  1
  C  522  1  0.81619700  0.41182300  0.10453000  1
  C  523  1  0.81154900  0.41495200  0.12434400  1
  C  524  1  0.79219500  0.41813800  0.12983500  1
  C  541  1  0.75778100  0.61505300  0.91545400  1
  C  542  1  0.75305100  0.59569500  0.91114600  1
  C  543  1  0.73406700  0.59015500  0.90619400  1
  C  544  1  0.71925900  0.60437400  0.90499400  1
  C  545  1  0.72398700  0.62407400  0.90905700  1
  C  546  1  0.74318100  0.62958200  0.91437600  1
  C  549  1  0.77696700  0.61864700  0.92229800  1
  C  550  1  0.78120300  0.62191100  0.94221800  1
  C  551  1  0.80087800  0.62473400  0.94785600  1
  C  552  1  0.81615700  0.62456300  0.93397100  1
  C  553  1  0.81151000  0.62143900  0.91415700  1
  C  554  1  0.79215600  0.61825600  0.90866200  1
  C  571  1  0.27852400  0.61501800  0.12305000  1
  C  572  1  0.28325700  0.59566100  0.12735800  1
  C  573  1  0.30224400  0.59012300  0.13230600  1
  C  574  1  0.31705000  0.60434200  0.13350000  1
  C  575  1  0.31231900  0.62404100  0.12943500  1
  C  576  1  0.29312300  0.62954900  0.12412300  1
  C  579  1  0.25933500  0.61861000  0.11621300  1
  C  580  1  0.25509200  0.62187900  0.09629600  1
  C  581  1  0.23541500  0.62470400  0.09066600  1
  C  582  1  0.22014100  0.62452300  0.10455400  1
  C  583  1  0.22479400  0.62138200  0.12436400  1
  C  584  1  0.24414900  0.61820400  0.12985400  1
  C  601  1  0.42131200  0.12204100  0.75894100  1
  C  602  1  0.44067100  0.12635400  0.75421700  1
  C  603  1  0.44621500  0.13132800  0.73523900  1
  C  604  1  0.43199900  0.13253500  0.72042900  1
  C  605  1  0.41229900  0.12847300  0.72515000  1
  C  606  1  0.40678400  0.12314600  0.74434100  1
  C  609  1  0.41770800  0.11519500  0.77812300  1
  C  610  1  0.41443600  0.09527400  0.78234900  1
  C  611  1  0.41161900  0.08962500  0.80202100  1
  C  612  1  0.41180000  0.10350000  0.81730700  1
  C  613  1  0.41492800  0.12331700  0.81267100  1
  C  614  1  0.41811600  0.12882100  0.79332200  1
  C  631  1  0.42134600  0.91436800  0.27970900  1
  C  632  1  0.44070100  0.91004400  0.28442900  1
  C  633  1  0.44624300  0.90507100  0.30340800  1
  C  634  1  0.43202800  0.90387500  0.31821900  1
  C  635  1  0.41232800  0.90794200  0.31349700  1
  C  636  1  0.40681500  0.91326900  0.29430600  1
  C  639  1  0.41774000  0.92121200  0.26052600  1
  C  640  1  0.41446500  0.94113200  0.25629500  1
  C  641  1  0.41164200  0.94677600  0.23662200  1
  C  642  1  0.41182000  0.93289600  0.22134000  1
  C  643  1  0.41495200  0.91308200  0.22598000  1
  C  644  1  0.41814400  0.90758100  0.24533100  1
  C  661  1  0.61500700  0.12199300  0.27970100  1
  C  662  1  0.59565000  0.12630200  0.28443000  1
  C  663  1  0.59011000  0.13126000  0.30341300  1
  C  664  1  0.60432900  0.13246400  0.31821900  1
  C  665  1  0.62402800  0.12840100  0.31349300  1
  C  666  1  0.62953700  0.12307700  0.29430100  1
  C  669  1  0.61860100  0.11514400  0.26051700  1
  C  670  1  0.62187600  0.09522400  0.25628500  1
  C  671  1  0.62470100  0.08958200  0.23661300  1
  C  672  1  0.62452400  0.10346200  0.22133000  1
  C  673  1  0.62138600  0.12327500  0.22597300  1
  C  674  1  0.61820000  0.12877500  0.24532400  1
  C  691  1  0.61499700  0.91443400  0.75890600  1
  C  692  1  0.59564000  0.91012300  0.75417200  1
  C  693  1  0.59010300  0.90517000  0.73518800  1
  C  694  1  0.60432200  0.90397300  0.72038200  1
  C  695  1  0.62402100  0.90804100  0.72511300  1
  C  696  1  0.62952700  0.91335900  0.74430600  1
  C  699  1  0.61858800  0.92127100  0.77809400  1
  C  700  1  0.62185800  0.94119000  0.78233900  1
  C  701  1  0.62467700  0.94682100  0.80201600  1
  C  702  1  0.62449200  0.93293100  0.81729100  1
  C  703  1  0.62135600  0.91312100  0.81263700  1
  C  704  1  0.61818100  0.90763200  0.79328000  1
  C  721  1  0.75950800  0.91349900  0.61622700  1
  C  722  1  0.75452800  0.91240500  0.59649800  1
  C  723  1  0.73605800  0.90642500  0.59043300  1
  C  724  1  0.72165600  0.90192600  0.60445100  1
  C  725  1  0.72662900  0.90299600  0.62449400  1
  C  726  1  0.74558700  0.90855500  0.63057500  1
  C  729  1  0.77816900  0.92118600  0.62055400  1
  C  730  1  0.78193700  0.94144100  0.62040200  1
  C  731  1  0.80134900  0.94795900  0.62303400  1
  C  732  1  0.81689800  0.93455600  0.62544900  1
  C  733  1  0.81277400  0.91437600  0.62554300  1
  C  734  1  0.79350400  0.90801500  0.62324100  1
  C  751  1  0.27685300  0.12292600  0.61622800  1
  C  752  1  0.28183200  0.12401400  0.59649800  1
  C  753  1  0.30030000  0.12999300  0.59043400  1
  C  754  1  0.31470100  0.13450100  0.60445200  1
  C  755  1  0.30972500  0.13344700  0.62449400  1
  C  756  1  0.29076900  0.12788600  0.63057600  1
  C  759  1  0.25819500  0.11522800  0.62056000  1
  C  760  1  0.25443900  0.09497300  0.62039600  1
  C  761  1  0.23503200  0.08844700  0.62304300  1
  C  762  1  0.21947800  0.10184100  0.62548600  1
  C  763  1  0.22359700  0.12202200  0.62559600  1
  C  764  1  0.24286200  0.12839300  0.62327500  1
  C  781  1  0.27684000  0.91345300  0.42239800  1
  C  782  1  0.28183000  0.91237200  0.44212600  1
  C  783  1  0.30029900  0.90638200  0.44818400  1
  C  784  1  0.31470400  0.90191000  0.43416000  1
  C  785  1  0.30972700  0.90298300  0.41412000  1
  C  786  1  0.29076400  0.90853200  0.40804400  1
  C  789  1  0.25818100  0.92115100  0.41807900  1
  C  790  1  0.25442900  0.94140800  0.41820900  1
  C  791  1  0.23502300  0.94793600  0.41555600  1
  C  792  1  0.21946700  0.93454100  0.41314200  1
  C  793  1  0.22358300  0.91436000  0.41305000  1
  C  794  1  0.24284600  0.90798800  0.41537200  1
  C  811  1  0.75949200  0.12293000  0.42239500  1
  C  812  1  0.75450800  0.12401200  0.44212500  1
  C  813  1  0.73603600  0.12998600  0.44818900  1
  C  814  1  0.72163300  0.13447600  0.43416900  1
  C  815  1  0.72660900  0.13341000  0.41412800  1
  C  816  1  0.74556800  0.12785800  0.40804500  1
  C  819  1  0.77815000  0.11523500  0.41807000  1
  C  820  1  0.78191400  0.09498000  0.41822800  1
  C  821  1  0.80132000  0.08846000  0.41556100  1
  C  822  1  0.81686400  0.10185700  0.41309200  1
  C  823  1  0.81273800  0.12203700  0.41297700  1
  C  824  1  0.79347500  0.12840200  0.41531800  1
  C  841  1  0.61507600  0.75953700  0.91458300  1
  C  842  1  0.59534800  0.75455400  0.91348900  1
  C  843  1  0.58928700  0.73608500  0.90750800  1
  C  844  1  0.60330800  0.72168500  0.90300400  1
  C  845  1  0.62334900  0.72666200  0.90407100  1
  C  846  1  0.62942700  0.74562000  0.90963200  1
  C  849  1  0.61940200  0.77820100  0.92226400  1
  C  850  1  0.61925200  0.78197400  0.94251800  1
  C  851  1  0.62189100  0.80138900  0.94902800  1
  C  852  1  0.62431000  0.81693200  0.93562100  1
  C  853  1  0.62440000  0.81280000  0.91544200  1
  C  854  1  0.62209300  0.79352900  0.90908900  1
  C  871  1  0.61509800  0.27687600  0.12406800  1
  C  872  1  0.59536900  0.28186100  0.12516300  1
  C  873  1  0.58931400  0.30033700  0.13113300  1
  C  874  1  0.60333800  0.31473500  0.13562300  1
  C  875  1  0.62337800  0.30975300  0.13456100  1
  C  876  1  0.62945300  0.29079200  0.12901200  1
  C  879  1  0.61942300  0.25821500  0.11637900  1
  C  880  1  0.61929200  0.25445800  0.09612300  1
  C  881  1  0.62194200  0.23504900  0.08960300  1
  C  882  1  0.62435000  0.21949600  0.10300200  1
  C  883  1  0.62442300  0.22361300  0.12318300  1
  C  884  1  0.62210400  0.24288100  0.12954900  1
  C  901  1  0.42117600  0.27687100  0.91459700  1
  C  902  1  0.44091300  0.28182200  0.91346000  1
  C  903  1  0.44695700  0.30023800  0.90731400  1
  C  904  1  0.43297200  0.31460500  0.90267200  1
  C  905  1  0.41292700  0.30971500  0.90394600  1
  C  906  1  0.40683400  0.29080900  0.90967100  1
  C  909  1  0.41685200  0.25822000  0.92230700  1
  C  910  1  0.41701000  0.25446400  0.94256400  1
  C  911  1  0.41437200  0.23505500  0.94908900  1
  C  912  1  0.41196200  0.21949800  0.93569300  1
  C  913  1  0.41184600  0.22361600  0.91551300  1
  C  914  1  0.41414100  0.24288500  0.90914500  1
  C  931  1  0.42124900  0.75950900  0.12403700  1
  C  932  1  0.44097500  0.75451500  0.12511800  1
  C  933  1  0.44703000  0.73603500  0.13107800  1
  C  934  1  0.43300100  0.72163500  0.13555600  1
  C  935  1  0.41296100  0.72662000  0.13448700  1
  C  936  1  0.40689100  0.74558700  0.12894900  1
  C  939  1  0.41693700  0.77817500  0.11635000  1
  C  940  1  0.41708300  0.78194000  0.09609500  1
  C  941  1  0.41445700  0.80135300  0.08957800  1
  C  942  1  0.41204000  0.81690200  0.10298000  1
  C  943  1  0.41193300  0.81277400  0.12316000  1
  C  944  1  0.41423500  0.79350500  0.12952100  1
  C  961  1  0.91346100  0.61522500  0.76059200  1
  C  962  1  0.91233000  0.59548800  0.75564800  1
  C  963  1  0.90619800  0.58943600  0.73723000  1
  C  964  1  0.90152100  0.60341500  0.72286700  1
  C  965  1  0.90276800  0.62346100  0.72775800  1
  C  966  1  0.90849600  0.62956200  0.74665900  1
  C  969  1  0.92115500  0.61956700  0.77924600  1
  C  970  1  0.94140800  0.61941800  0.78301600  1
  C  971  1  0.94792000  0.62206500  0.80242800  1
  C  972  1  0.93451400  0.62447800  0.81797500  1
  C  973  1  0.91433500  0.62456000  0.81384800  1
  C  974  1  0.90798100  0.62225700  0.79457600  1
  C  991  1  0.12286800  0.61513300  0.27794000  1
  C  992  1  0.12396600  0.59540300  0.28291100  1
  C  993  1  0.12995500  0.58933500  0.30137700  1
  C  994  1  0.13446300  0.60335100  0.31578000  1
  C  995  1  0.13339000  0.62339400  0.31081200  1
  C  996  1  0.12782300  0.62948100  0.29185800  1
  C  999  1  0.11517900  0.61946600  0.25928000  1
  C  1000  1  0.09492400  0.61931400  0.25551700  1
  C  1001  1  0.08840700  0.62195000  0.23610500  1
  C  1002  1  0.10180800  0.62436600  0.22055500  1
  C  1003  1  0.12198800  0.62445900  0.22468000  1
  C  1004  1  0.12835000  0.62215300  0.24394800  1
  C  1021  1  0.91340600  0.42127900  0.27801100  1
  C  1022  1  0.91231500  0.44101200  0.28297800  1
  C  1023  1  0.90635600  0.44708900  0.30145100  1
  C  1024  1  0.90192600  0.43307800  0.31588300  1
  C  1025  1  0.90300500  0.41303100  0.31092700  1
  C  1026  1  0.90852600  0.40694000  0.29196200  1
  C  1029  1  0.92109800  0.41694900  0.25935000  1
  C  1030  1  0.94135400  0.41707500  0.25559400  1
  C  1031  1  0.94787800  0.41442300  0.23618500  1
  C  1032  1  0.93447900  0.41201400  0.22063100  1
  C  1033  1  0.91429800  0.41193400  0.22474900  1
  C  1034  1  0.90793000  0.41425500  0.24401300  1
  C  1051  1  0.12290700  0.42118400  0.76051600  1
  C  1052  1  0.12402900  0.44092400  0.75558100  1
  C  1053  1  0.13012400  0.44698900  0.73715500  1
  C  1054  1  0.13476400  0.43302000  0.72277200  1
  C  1055  1  0.13350800  0.41296900  0.72764300  1
  C  1056  1  0.12781200  0.40685700  0.74655200  1
  C  1059  1  0.11521300  0.41684200  0.77917200  1
  C  1060  1  0.09495900  0.41698100  0.78293800  1
  C  1061  1  0.08844500  0.41433900  0.80235000  1
  C  1062  1  0.10185000  0.41192100  0.81789900  1
  C  1063  1  0.12203000  0.41183300  0.81377200  1
  C  1064  1  0.12838600  0.41414100  0.79450200  1
  C  1081  1  0.91345300  0.75953000  0.42235600  1
  C  1082  1  0.91236300  0.75454400  0.44208400  1
  C  1083  1  0.90639100  0.73607100  0.44814400  1
  C  1084  1  0.90189500  0.72167100  0.43412300  1
  C  1085  1  0.90295200  0.72665200  0.41408100  1
  C  1086  1  0.90850300  0.74561300  0.40800500  1
  C  1089  1  0.92113400  0.77819400  0.41803100  1
  C  1090  1  0.94138600  0.78196800  0.41818000  1
  C  1091  1  0.94789700  0.80138300  0.41554500  1
  C  1092  1  0.93448800  0.81692700  0.41313100  1
  C  1093  1  0.91430900  0.81279400  0.41304100  1
  C  1094  1  0.90795600  0.79352300  0.41534400  1
  C  1111  1  0.12290300  0.27688400  0.42224000  1
  C  1112  1  0.12403900  0.28182300  0.44197700  1
  C  1113  1  0.13017100  0.30024000  0.44803200  1
  C  1114  1  0.13485000  0.31460400  0.43405500  1
  C  1115  1  0.13359300  0.30971900  0.41400700  1
  C  1116  1  0.12786400  0.29081800  0.40790300  1
  C  1119  1  0.11520300  0.25823300  0.41789700  1
  C  1120  1  0.09494900  0.25447100  0.41804300  1
  C  1121  1  0.08843300  0.23506000  0.41539800  1
  C  1122  1  0.10183300  0.21950900  0.41298700  1
  C  1123  1  0.12201400  0.22362900  0.41291100  1
  C  1124  1  0.12837500  0.24289800  0.41521600  1
  C  1141  1  0.91343700  0.27694900  0.61630600  1
  C  1142  1  0.91230500  0.28187800  0.59656600  1
  C  1143  1  0.90619400  0.30029800  0.59049800  1
  C  1144  1  0.90158000  0.31469200  0.60446500  1
  C  1145  1  0.90284600  0.30982600  0.62451700  1
  C  1146  1  0.90853900  0.29091800  0.63063100  1
  C  1149  1  0.92112800  0.25829500  0.62065200  1
  C  1150  1  0.94138300  0.25452900  0.62052800  1
  C  1151  1  0.94789700  0.23511700  0.62318400  1
  C  1152  1  0.93448900  0.21956900  0.62558300  1
  C  1153  1  0.91430900  0.22369600  0.62566300  1
  C  1154  1  0.90795500  0.24296600  0.62334800  1
  C  1171  1  0.12289800  0.75946600  0.61619200  1
  C  1172  1  0.12398100  0.75450100  0.59645900  1
  C  1173  1  0.12992800  0.73602600  0.59037800  1
  C  1174  1  0.13439200  0.72160100  0.60438400  1
  C  1175  1  0.13332100  0.72655500  0.62443300  1
  C  1176  1  0.12779200  0.74551600  0.63053000  1
  C  1179  1  0.11521600  0.77813000  0.62052700  1
  C  1180  1  0.09496200  0.78189900  0.62038500  1
  C  1181  1  0.08844900  0.80131400  0.62302100  1
  C  1182  1  0.10185600  0.81685900  0.62544000  1
  C  1183  1  0.12203400  0.81272800  0.62554400  1
  C  1184  1  0.12839000  0.79345800  0.62323400  1
  C  1201  1  0.75947200  0.61509200  0.12396300  1
  C  1202  1  0.75449000  0.59536300  0.12504800  1
  C  1203  1  0.73602200  0.58929800  0.13102500  1
  C  1204  1  0.72162000  0.60331500  0.13553100  1
  C  1205  1  0.72659700  0.62335800  0.13447800  1
  C  1206  1  0.74555500  0.62944000  0.12892100  1
  C  1209  1  0.77813400  0.61942300  0.11627900  1
  C  1210  1  0.78190600  0.61926900  0.09602600  1
  C  1211  1  0.80132000  0.62190800  0.08951300  1
  C  1212  1  0.81686400  0.62433200  0.10292000  1
  C  1213  1  0.81273200  0.62443000  0.12309800  1
  C  1214  1  0.79346200  0.62212200  0.12945400  1
  C  1231  1  0.27686200  0.61512400  0.91455800  1
  C  1232  1  0.28183800  0.59539200  0.91346600  1
  C  1233  1  0.30030500  0.58932700  0.90747700  1
  C  1234  1  0.31470400  0.60334600  0.90296500  1
  C  1235  1  0.30973100  0.62338800  0.90403100  1
  C  1236  1  0.29077800  0.62947200  0.90959800  1
  C  1239  1  0.25820400  0.61945700  0.92225100  1
  C  1240  1  0.25443900  0.61929400  0.94250500  1
  C  1241  1  0.23503000  0.62195200  0.94902300  1
  C  1242  1  0.21948500  0.62440700  0.93562400  1
  C  1243  1  0.22361000  0.62451300  0.91544500  1
  C  1244  1  0.24287600  0.62218200  0.90908000  1
  C  1261  1  0.27682000  0.42127800  0.12400800  1
  C  1262  1  0.28180700  0.44100700  0.12508500  1
  C  1263  1  0.30027700  0.44706700  0.13106900  1
  C  1264  1  0.31468500  0.43304600  0.13553900  1
  C  1265  1  0.30970800  0.41300500  0.13447800  1
  C  1266  1  0.29074400  0.40692700  0.12893300  1
  C  1269  1  0.25816000  0.41695800  0.11630900  1
  C  1270  1  0.25441000  0.41708300  0.09605100  1
  C  1271  1  0.23500300  0.41443100  0.08952200  1
  C  1272  1  0.21944600  0.41202100  0.10291800  1
  C  1273  1  0.22355800  0.41194100  0.12310100  1
  C  1274  1  0.24282100  0.41426200  0.12947200  1
  C  1291  1  0.75942600  0.42126900  0.91452900  1
  C  1292  1  0.75446300  0.44100400  0.91344700  1
  C  1293  1  0.73598700  0.44708800  0.90750300  1
  C  1294  1  0.72155900  0.43308200  0.90304300  1
  C  1295  1  0.72651000  0.41303400  0.90411300  1
  C  1296  1  0.74547100  0.40693400  0.90963700  1
  C  1299  1  0.77808800  0.41693000  0.92221200  1
  C  1300  1  0.78185700  0.41707900  0.94246700  1
  C  1301  1  0.80126800  0.41442000  0.94898100  1
  C  1302  1  0.81680900  0.41196700  0.93557600  1
  C  1303  1  0.81267900  0.41186200  0.91539700  1
  C  1304  1  0.79341100  0.41419800  0.90904000  1
  C  1321  1  0.61508600  0.91346100  0.27798300  1
  C  1322  1  0.59535800  0.91237300  0.28297200  1
  C  1323  1  0.58930100  0.90639900  0.30144500  1
  C  1324  1  0.60332500  0.90189700  0.31584200  1
  C  1325  1  0.62336500  0.90296300  0.31085900  1
  C  1326  1  0.62944000  0.90851600  0.29189900  1
  C  1329  1  0.61940800  0.92114500  0.25931900  1
  C  1330  1  0.61925800  0.94139800  0.25554900  1
  C  1331  1  0.62188900  0.94791300  0.23613500  1
  C  1332  1  0.62430100  0.93450800  0.22058800  1
  C  1333  1  0.62440000  0.91432900  0.22471700  1
  C  1334  1  0.62209800  0.90797200  0.24398900  1
  C  1351  1  0.61508500  0.12293500  0.76062600  1
  C  1352  1  0.59535300  0.12403100  0.75566000  1
  C  1353  1  0.58928100  0.13000400  0.73718900  1
  C  1354  1  0.60329300  0.13449800  0.72277900  1
  C  1355  1  0.62333800  0.13343900  0.72774600  1
  C  1356  1  0.62942900  0.12788500  0.74670200  1
  C  1359  1  0.61942600  0.11524100  0.77928300  1
  C  1360  1  0.61926200  0.09498600  0.78304300  1
  C  1361  1  0.62192400  0.08846500  0.80245100  1
  C  1362  1  0.62438500  0.10186100  0.81799700  1
  C  1363  1  0.62448600  0.12204200  0.81387700  1
  C  1364  1  0.62215000  0.12840900  0.79461200  1
  C  1381  1  0.42125000  0.91347400  0.76064800  1
  C  1382  1  0.44097900  0.91238500  0.75566500  1
  C  1383  1  0.44704100  0.90640100  0.73719700  1
  C  1384  1  0.43302000  0.90194500  0.72278300  1
  C  1385  1  0.41297900  0.90302500  0.72775500  1
  C  1386  1  0.40689900  0.90856700  0.74671700  1
  C  1389  1  0.41693000  0.92116600  0.77931100  1
  C  1390  1  0.41706000  0.94142200  0.78306800  1
  C  1391  1  0.41441300  0.94794200  0.80247900  1
  C  1392  1  0.41200800  0.93454100  0.81803200  1
  C  1393  1  0.41191500  0.91436100  0.81390800  1
  C  1394  1  0.41423000  0.90799700  0.79464300  1
  C  1411  1  0.42127100  0.12290300  0.27799300  1
  C  1412  1  0.44099900  0.12397700  0.28298600  1
  C  1413  1  0.44705700  0.12994800  0.30146100  1
  C  1414  1  0.43303200  0.13444500  0.31585800  1
  C  1415  1  0.41299200  0.13338000  0.31087500  1
  C  1416  1  0.40691700  0.12783000  0.29191500  1
  C  1419  1  0.41695600  0.11521600  0.25932900  1
  C  1420  1  0.41710100  0.09496100  0.25556300  1
  C  1421  1  0.41447000  0.08844700  0.23614800  1
  C  1422  1  0.41205300  0.10185100  0.22060100  1
  C  1423  1  0.41194600  0.12202900  0.22473200  1
  C  1424  1  0.41424900  0.12838800  0.24400200  1
  C  1441  1  0.18869300  0.15957100  0.40547300  1
  C  1442  1  0.17768100  0.16711300  0.38999200  1
  C  1443  1  0.16458300  0.18258900  0.39308200  1
  C  1444  1  0.16280500  0.19023800  0.41211800  1
  C  1448  1  0.15443100  0.19033200  0.37756600  1
  C  1449  1  0.13837900  0.17954200  0.36950000  1
  C  1454  1  0.20200500  0.14476400  0.40277100  1
  C  1456  1  0.15145700  0.20592700  0.41758300  1
  C  1458  1  0.84763700  0.87683600  0.40552000  1
  C  1459  1  0.85865400  0.86928600  0.39004800  1
  C  1460  1  0.87174200  0.85380300  0.39315300  1
  C  1461  1  0.87351200  0.84616800  0.41219500  1
  C  1465  1  0.88189200  0.84604100  0.37764500  1
  C  1466  1  0.89794700  0.85682000  0.36956800  1
  C  1471  1  0.83433000  0.89164600  0.40280600  1
  C  1473  1  0.88484900  0.83047600  0.41767100  1
  C  1475  1  0.84765000  0.15961300  0.63310800  1
  C  1476  1  0.85867300  0.16714800  0.64858500  1
  C  1477  1  0.87175700  0.18263600  0.64549400  1
  C  1478  1  0.87352000  0.19029700  0.62646300  1
  C  1482  1  0.88191300  0.19037800  0.66100900  1
  C  1483  1  0.89797200  0.17958800  0.66906600  1
  C  1488  1  0.83434300  0.14480100  0.63581400  1
  C  1490  1  0.88485600  0.20599800  0.62100100  1
  C  1492  1  0.18869900  0.87678900  0.63305900  1
  C  1493  1  0.17774200  0.86918400  0.64854700  1
  C  1494  1  0.16463900  0.85371000  0.64544700  1
  C  1495  1  0.16283100  0.84611200  0.62639300  1
  C  1499  1  0.15454800  0.84587600  0.66098000  1
  C  1500  1  0.13835200  0.85674000  0.66870300  1
  C  1505  1  0.20199900  0.89160600  0.63577000  1
  C  1507  1  0.15147900  0.83043100  0.62090700  1
  C  1509  1  0.40441700  0.18873800  0.16072400  1
  C  1510  1  0.38893000  0.17777900  0.16833000  1
  C  1511  1  0.39203900  0.16466100  0.18378700  1
  C  1512  1  0.41109800  0.16283800  0.19136800  1
  C  1516  1  0.37650900  0.15456400  0.19162300  1
  C  1517  1  0.36878100  0.13837600  0.18075100  1
  C  1522  1  0.40169900  0.20206000  0.14592900  1
  C  1524  1  0.41659600  0.15146800  0.20703000  1
  C  1526  1  0.40440200  0.84766600  0.87793300  1
  C  1527  1  0.38891200  0.85861100  0.87031600  1
  C  1528  1  0.39202300  0.87172900  0.85486100  1
  C  1529  1  0.41108500  0.87357000  0.84729200  1
  C  1533  1  0.37650600  0.88180000  0.84703300  1
  C  1534  1  0.36868200  0.89803100  0.85779600  1
  C  1539  1  0.40168500  0.83434000  0.89272700  1
  C  1541  1  0.41657800  0.88492900  0.83162200  1
  C  1543  1  0.63193900  0.84763400  0.16069500  1
  C  1544  1  0.64742600  0.85858600  0.16831100  1
  C  1545  1  0.64431200  0.87169600  0.18377200  1
  C  1546  1  0.62525000  0.87353000  0.19134200  1
  C  1550  1  0.65982500  0.88178200  0.19159200  1
  C  1551  1  0.66762900  0.89801800  0.18082600  1
  C  1556  1  0.63465600  0.83432000  0.14589300  1
  C  1558  1  0.61975200  0.88488800  0.20701200  1
  C  1560  1  0.63221800  0.18862600  0.87797900  1
  C  1561  1  0.64765900  0.17758400  0.87040100  1
  C  1562  1  0.64451200  0.16452400  0.85490600  1
  C  1563  1  0.62546200  0.16281600  0.84727500  1
  C  1567  1  0.65998600  0.15433400  0.84713000  1
  C  1568  1  0.66802600  0.13825200  0.85789900  1
  C  1573  1  0.63497200  0.20191200  0.89279900  1
  C  1575  1  0.61994100  0.15150100  0.83158300  1
  C  1577  1  0.15950200  0.40443000  0.18977900  1
  C  1578  1  0.16706400  0.38895700  0.17876900  1
  C  1579  1  0.18253400  0.39206600  0.16566800  1
  C  1580  1  0.19015600  0.41111200  0.16388400  1
  C  1584  1  0.19030200  0.37655900  0.15552200  1
  C  1585  1  0.17952300  0.36847000  0.13947200  1
  C  1590  1  0.14470200  0.40171000  0.20309700  1
  C  1592  1  0.20584300  0.41659300  0.15254000  1
  C  1594  1  0.87679600  0.40414900  0.84881600  1
  C  1595  1  0.86922500  0.38870800  0.85986400  1
  C  1596  1  0.85372500  0.39185200  0.87292100  1
  C  1597  1  0.84608900  0.41090000  0.87462700  1
  C  1601  1  0.84594700  0.37637400  0.88310400  1
  C  1602  1  0.85671000  0.36833300  0.89918800  1
  C  1607  1  0.89160800  0.40139100  0.83552100  1
  C  1609  1  0.83038300  0.41641100  0.88593100  1
  C  1611  1  0.15953600  0.63225700  0.84883500  1
  C  1612  1  0.16711200  0.64769600  0.85988100  1
  C  1613  1  0.18260200  0.64454400  0.87294900  1
  C  1614  1  0.19021900  0.62549200  0.87466600  1
  C  1618  1  0.19038700  0.66002000  0.88313200  1
  C  1619  1  0.17962300  0.66807500  0.89920700  1
  C  1624  1  0.14473000  0.63501800  0.83553600  1
  C  1626  1  0.20591300  0.61997100  0.88597900  1
  C  1628  1  0.87676100  0.63198500  0.18978200  1
  C  1629  1  0.86915000  0.64747100  0.17882500  1
  C  1630  1  0.85368200  0.64436000  0.16572000  1
  C  1631  1  0.84609900  0.62530100  0.16390400  1
  C  1635  1  0.84583700  0.65988900  0.15562700  1
  C  1636  1  0.85670000  0.66762100  0.13943500  1
  C  1641  1  0.89157200  0.63470200  0.20308700  1
  C  1643  1  0.83042800  0.61980500  0.15254700  1
  C  1645  1  0.15953800  0.18865700  0.63332900  1
  C  1646  1  0.16717600  0.17768000  0.64878600  1
  C  1647  1  0.18264500  0.16458400  0.64563200  1
  C  1648  1  0.19020500  0.16280500  0.62656100  1
  C  1652  1  0.19051300  0.15447000  0.66113400  1
  C  1653  1  0.17966600  0.13826200  0.66885500  1
  C  1658  1  0.14473800  0.20196600  0.63609000  1
  C  1660  1  0.20587400  0.15146500  0.62102400  1
  C  1662  1  0.87679300  0.84767000  0.63307900  1
  C  1663  1  0.86917400  0.85862100  0.64856400  1
  C  1664  1  0.85372100  0.87174100  0.64544800  1
  C  1665  1  0.84615500  0.87357800  0.62638600  1
  C  1669  1  0.84589300  0.88181500  0.66096400  1
  C  1670  1  0.85665500  0.89804800  0.66878400  1
  C  1675  1  0.89158800  0.83434600  0.63580200  1
  C  1677  1  0.83048800  0.88494200  0.62088700  1
  C  1679  1  0.15954500  0.84767600  0.40550700  1
  C  1680  1  0.16716700  0.85862400  0.39002100  1
  C  1681  1  0.18262600  0.87173500  0.39313700  1
  C  1682  1  0.19018700  0.87357700  0.41220200  1
  C  1686  1  0.19045400  0.88181500  0.37762400  1
  C  1687  1  0.17969200  0.89805000  0.36980900  1
  C  1692  1  0.14474700  0.83435800  0.40278700  1
  C  1694  1  0.20585800  0.88493300  0.41770300  1
  C  1696  1  0.87682200  0.18863500  0.40522500  1
  C  1697  1  0.86924600  0.17758700  0.38978800  1
  C  1698  1  0.85375500  0.16452200  0.39293900  1
  C  1699  1  0.84612800  0.16281600  0.41198900  1
  C  1703  1  0.84598400  0.15432400  0.37746800  1
  C  1704  1  0.85675500  0.13824100  0.36943700  1
  C  1709  1  0.89163900  0.20192300  0.40246900  1
  C  1711  1  0.83044300  0.15149700  0.41751600  1
  C  1713  1  0.18869600  0.40437900  0.87785600  1
  C  1714  1  0.17767400  0.38890200  0.87031900  1
  C  1715  1  0.16458200  0.39199600  0.85483600  1
  C  1716  1  0.16281800  0.41102700  0.84717700  1
  C  1720  1  0.15442200  0.37648300  0.84709700  1
  C  1721  1  0.13836100  0.36843300  0.85788900  1
  C  1726  1  0.20200400  0.40167200  0.89266800  1
  C  1728  1  0.15147800  0.41649000  0.83147700  1
  C  1730  1  0.84767700  0.40441900  0.16063800  1
  C  1731  1  0.85869500  0.38895000  0.16819400  1
  C  1732  1  0.87177000  0.39205600  0.18368800  1
  C  1733  1  0.87352800  0.41109600  0.19132900  1
  C  1737  1  0.88191900  0.37654900  0.19145500  1
  C  1738  1  0.89797900  0.36847300  0.18068300  1
  C  1743  1  0.83437800  0.40169900  0.14582100  1
  C  1745  1  0.88485200  0.41657300  0.20703300  1
  C  1747  1  0.84764500  0.63202000  0.87788800  1
  C  1748  1  0.85866300  0.64749800  0.87035000  1
  C  1749  1  0.87175700  0.64440500  0.85487100  1
  C  1750  1  0.87353300  0.62536900  0.84722400  1
  C  1754  1  0.88191000  0.65991900  0.84712500  1
  C  1755  1  0.89796400  0.66798400  0.85791200  1
  C  1760  1  0.83433200  0.63472400  0.89269400  1
  C  1762  1  0.88488200  0.61990000  0.83153800  1
  C  1764  1  0.18867800  0.63196400  0.16065100  1
  C  1765  1  0.17772900  0.64745600  0.16825800  1
  C  1766  1  0.16461800  0.64435400  0.18372300  1
  C  1767  1  0.16278900  0.62529800  0.19130700  1
  C  1771  1  0.15453300  0.65989000  0.19156300  1
  C  1772  1  0.13835000  0.66763200  0.18069800  1
  C  1777  1  0.20198600  0.63466900  0.14584100  1
  C  1779  1  0.15142700  0.61980900  0.20697800  1
  C  1781  1  0.40436600  0.15958600  0.84881300  1
  C  1782  1  0.38887300  0.16719000  0.85976400  1
  C  1783  1  0.39197400  0.18264900  0.87288200  1
  C  1784  1  0.41103000  0.19023400  0.87471700  1
  C  1788  1  0.37643600  0.19048500  0.88297000  1
  C  1789  1  0.36870200  0.17961500  0.89915500  1
  C  1794  1  0.40165600  0.14478800  0.83549200  1
  C  1796  1  0.41651800  0.20590000  0.88608600  1
  C  1798  1  0.40440300  0.87679400  0.18985700  1
  C  1799  1  0.38891500  0.86918100  0.17890500  1
  C  1800  1  0.39202700  0.85372500  0.16578800  1
  C  1801  1  0.41108800  0.84615100  0.16395500  1
  C  1805  1  0.37651200  0.84590300  0.15571000  1
  C  1806  1  0.36870300  0.85666600  0.13947200  1
  C  1811  1  0.40168500  0.89159000  0.20318000  1
  C  1813  1  0.41658400  0.83048300  0.15259600  1
  C  1815  1  0.63194600  0.15957100  0.18986200  1
  C  1816  1  0.64743600  0.16718600  0.17891200  1
  C  1817  1  0.64432500  0.18264900  0.16580300  1
  C  1818  1  0.62526500  0.19022400  0.16397000  1
  C  1822  1  0.65984000  0.19046800  0.15572000  1
  C  1823  1  0.66764700  0.17969900  0.13948400  1
  C  1828  1  0.63466200  0.14476900  0.20317700  1
  C  1830  1  0.61977000  0.20589700  0.15261600  1
  C  1832  1  0.63192000  0.87684800  0.84877400  1
  C  1833  1  0.64739300  0.86929900  0.85979300  1
  C  1834  1  0.64428800  0.85381500  0.87287900  1
  C  1835  1  0.62524900  0.84617000  0.87463900  1
  C  1839  1  0.65979200  0.84606800  0.88304600  1
  C  1840  1  0.66784900  0.85685900  0.89910400  1
  C  1845  1  0.63463300  0.89166500  0.83547600  1
  C  1847  1  0.61976600  0.83048800  0.88598600  1
  C  1849  1  0.68843700  0.66066400  0.89780100  1
  C  1850  1  0.67928900  0.66989600  0.88204200  1
  C  1851  1  0.66448200  0.68374100  0.88522500  1
  C  1852  1  0.65912800  0.68813200  0.90465200  1
  C  1856  1  0.65545300  0.69229600  0.86944900  1
  C  1857  1  0.64089100  0.68144500  0.85899600  1
  C  1862  1  0.70303700  0.64711600  0.89519800  1
  C  1864  1  0.64503900  0.70122100  0.91082200  1
  C  1866  1  0.34797300  0.37581600  0.89767800  1
  C  1867  1  0.35708200  0.36656300  0.88190600  1
  C  1868  1  0.37193800  0.35276600  0.88506900  1
  C  1869  1  0.37737700  0.34843900  0.90448400  1
  C  1873  1  0.38094800  0.34420600  0.86928300  1
  C  1874  1  0.39541900  0.35509200  0.85873800  1
  C  1879  1  0.33333333  0.38933300  0.89509500  1
  C  1881  1  0.39152400  0.33540200  0.91062500  1
  C  1883  1  0.34786000  0.66063100  0.14071100  1
  C  1884  1  0.35700000  0.66986300  0.15647600  1
  C  1885  1  0.37181200  0.68370300  0.15330100  1
  C  1886  1  0.37717900  0.68809300  0.13387900  1
  C  1890  1  0.38083600  0.69225100  0.16908400  1
  C  1891  1  0.39539300  0.68139600  0.17954200  1
  C  1896  1  0.33325800  0.64708600  0.14330500  1
  C  1898  1  0.39127500  0.70118000  0.12771700  1
  C  1900  1  0.68851000  0.37572000  0.14077300  1
  C  1901  1  0.67945800  0.36640700  0.15654200  1
  C  1902  1  0.66461800  0.35259000  0.15338500  1
  C  1903  1  0.65915200  0.34829100  0.13396800  1
  C  1907  1  0.65568700  0.34392900  0.16918400  1
  C  1908  1  0.64102200  0.35490100  0.17940300  1
  C  1913  1  0.70312100  0.38925800  0.14335400  1
  C  1915  1  0.64504300  0.33521700  0.12781000  1
  C  1917  1  0.89652900  0.68844700  0.66168000  1
  C  1918  1  0.88075200  0.67943100  0.67101000  1
  C  1919  1  0.88389000  0.66455000  0.68478800  1
  C  1920  1  0.90329700  0.65901300  0.68903300  1
  C  1924  1  0.86808500  0.65563700  0.69345800  1
  C  1925  1  0.85778600  0.64105100  0.68245800  1
  C  1930  1  0.89396700  0.70308800  0.64816900  1
  C  1932  1  0.90943200  0.64486300  0.70207100  1
  C  1934  1  0.89676200  0.34800100  0.37699100  1
  C  1935  1  0.88100200  0.35700100  0.36761500  1
  C  1936  1  0.88417000  0.37183800  0.35380000  1
  C  1937  1  0.90358500  0.37735700  0.34956500  1
  C  1941  1  0.86839300  0.38070500  0.34509100  1
  C  1942  1  0.85806300  0.39544000  0.35588600  1
  C  1947  1  0.89417100  0.33333333  0.39047600  1
  C  1949  1  0.90974700  0.39146600  0.33649000  1
  C  1951  1  0.13977200  0.34807400  0.66147600  1
  C  1952  1  0.15554200  0.35704200  0.67086600  1
  C  1953  1  0.15239500  0.37192100  0.68464200  1
  C  1954  1  0.13299000  0.37751100  0.68882500  1
  C  1958  1  0.16818000  0.38076500  0.69335900  1
  C  1959  1  0.17859400  0.39542000  0.68253600  1
  C  1964  1  0.14234100  0.33338900  0.64801300  1
  C  1966  1  0.12685500  0.39166600  0.70186000  1
  C  1968  1  0.13966300  0.68847900  0.37681100  1
  C  1969  1  0.15542200  0.67933400  0.36757800  1
  C  1970  1  0.15223900  0.66452100  0.35373700  1
  C  1971  1  0.13281400  0.65916200  0.34935100  1
  C  1975  1  0.16801600  0.65549800  0.34517900  1
  C  1976  1  0.17848100  0.64094100  0.35602900  1
  C  1981  1  0.14226300  0.70308100  0.39035800  1
  C  1983  1  0.12664300  0.64507000  0.33626600  1
  C  1985  1  0.66061600  0.89676400  0.68957500  1
  C  1986  1  0.66985200  0.88099900  0.68043900  1
  C  1987  1  0.68369900  0.88417300  0.66563300  1
  C  1988  1  0.68809000  0.90359500  0.66026500  1
  C  1992  1  0.69225700  0.86839100  0.65661600  1
  C  1993  1  0.68141000  0.85792500  0.64206000  1
  C  1998  1  0.64706700  0.89417100  0.70417300  1
  C  2000  1  0.70118200  0.90975900  0.64617400  1
  C  2002  1  0.37573900  0.89669600  0.34905100  1
  C  2003  1  0.36649400  0.88094000  0.35819200  1
  C  2004  1  0.35265400  0.88412800  0.37300200  1
  C  2005  1  0.34827700  0.90355600  0.37836400  1
  C  2009  1  0.34409100  0.86835500  0.38202800  1
  C  2010  1  0.35493800  0.85788700  0.39658300  1
  C  2015  1  0.38928600  0.89408800  0.33445100  1
  C  2017  1  0.33519600  0.90973000  0.39245900  1
  C  2019  1  0.66061600  0.13966800  0.34903500  1
  C  2020  1  0.66985900  0.15542900  0.35817000  1
  C  2021  1  0.68370000  0.15224700  0.37298100  1
  C  2022  1  0.68807700  0.13282400  0.37835200  1
  C  2026  1  0.69226400  0.16802600  0.38199800  1
  C  2027  1  0.68142200  0.17849400  0.39655700  1
  C  2032  1  0.64706800  0.14226700  0.33443700  1
  C  2034  1  0.70116400  0.12665400  0.39244400  1
  C  2036  1  0.37569900  0.13973600  0.68961400  1
  C  2037  1  0.36637700  0.15549300  0.68055500  1
  C  2038  1  0.35256000  0.15232000  0.66571800  1
  C  2039  1  0.34826800  0.13289800  0.66026500  1
  C  2043  1  0.34388900  0.16810900  0.65677800  1
  C  2044  1  0.35485100  0.17832500  0.64210600  1
  C  2049  1  0.38923600  0.14233200  0.70422400  1
  C  2051  1  0.33519500  0.12672400  0.64616100  1
  C  2053  1  0.66062100  0.68847400  0.14076500  1
  C  2054  1  0.66995100  0.67942400  0.15652300  1
  C  2055  1  0.68377400  0.66459100  0.15334800  1
  C  2056  1  0.68806000  0.65913300  0.13392700  1
  C  2060  1  0.69245500  0.65566300  0.16913800  1
  C  2061  1  0.68150600  0.64098700  0.17936200  1
  C  2066  1  0.64708100  0.70308200  0.14336100  1
  C  2068  1  0.70114000  0.64503900  0.12775100  1
  C  2070  1  0.37571500  0.34792700  0.14081800  1
  C  2071  1  0.36637400  0.35698100  0.15656600  1
  C  2072  1  0.35255200  0.37181000  0.15337600  1
  C  2073  1  0.34827800  0.37726300  0.13395100  1
  C  2077  1  0.34388300  0.38073500  0.16914200  1
  C  2078  1  0.35471700  0.39548100  0.17941600  1
  C  2083  1  0.38925200  0.33333333  0.14342800  1
  C  2085  1  0.33520800  0.39136500  0.12776600  1
  C  2087  1  0.66045000  0.34799500  0.89787900  1
  C  2088  1  0.66982500  0.35699100  0.88211700  1
  C  2089  1  0.68364300  0.37182800  0.88528200  1
  C  2090  1  0.68788000  0.37734900  0.90469500  1
  C  2094  1  0.69235800  0.38068300  0.86950100  1
  C  2095  1  0.68157500  0.39542300  0.85916600  1
  C  2100  1  0.64696300  0.33333333  0.89529400  1
  C  2102  1  0.70096400  0.39145200  0.91085600  1
  C  2104  1  0.37573300  0.68847100  0.89775900  1
  C  2105  1  0.36649000  0.67933500  0.88199900  1
  C  2106  1  0.35264600  0.66452600  0.88518200  1
  C  2107  1  0.34826800  0.65915700  0.90460700  1
  C  2111  1  0.34407700  0.65551200  0.86940400  1
  C  2112  1  0.35491500  0.64095700  0.85892800  1
  C  2117  1  0.38928000  0.70307100  0.89515900  1
  C  2119  1  0.33518000  0.64506700  0.91077700  1
  C  2121  1  0.68845200  0.89673000  0.37686500  1
  C  2122  1  0.67931800  0.88096600  0.36762700  1
  C  2123  1  0.66451300  0.88414100  0.35377900  1
  C  2124  1  0.65914400  0.90356400  0.34939100  1
  C  2128  1  0.65549800  0.86835800  0.34522000  1
  C  2129  1  0.64094100  0.85789200  0.35606500  1
  C  2134  1  0.70305000  0.89413800  0.39041400  1
  C  2136  1  0.64505200  0.90972700  0.33630000  1
  C  2138  1  0.34789500  0.89678500  0.66174800  1
  C  2139  1  0.35703500  0.88102400  0.67098600  1
  C  2140  1  0.37184900  0.88420200  0.68482300  1
  C  2141  1  0.37721600  0.90362600  0.68920700  1
  C  2145  1  0.38087100  0.86842200  0.69337800  1
  C  2146  1  0.39542300  0.85795700  0.68252400  1
  C  2151  1  0.33329100  0.89418500  0.64820400  1
  C  2153  1  0.39131300  0.90979200  0.70229200  1
  C  2155  1  0.34791200  0.13968400  0.37687800  1
  C  2156  1  0.35705600  0.15543800  0.36763300  1
  C  2157  1  0.37186500  0.15224700  0.35379100  1
  C  2158  1  0.37722200  0.13281900  0.34941400  1
  C  2162  1  0.38089300  0.16801900  0.34522700  1
  C  2163  1  0.39545600  0.17848000  0.35607100  1
  C  2168  1  0.33333333  0.14229400  0.39042300  1
  C  2170  1  0.39131600  0.12664100  0.33633200  1
  C  2172  1  0.68845800  0.13968800  0.66177000  1
  C  2173  1  0.67940900  0.15544900  0.67109400  1
  C  2174  1  0.66457200  0.15228500  0.68491300  1
  C  2175  1  0.65910600  0.13286600  0.68920100  1
  C  2179  1  0.65564700  0.16807900  0.69358900  1
  C  2180  1  0.64097400  0.17830500  0.68263400  1
  C  2185  1  0.70306900  0.14227700  0.64823300  1
  C  2187  1  0.64500400  0.12669900  0.70228100  1
  C  2189  1  0.89670700  0.66068900  0.34894700  1
  C  2190  1  0.88094400  0.67000200  0.35800400  1
  C  2191  1  0.88410800  0.68382300  0.37284000  1
  C  2192  1  0.90352700  0.68812500  0.37829400  1
  C  2196  1  0.86831300  0.69248700  0.38177700  1
  C  2197  1  0.85810300  0.68152000  0.39645000  1
  C  2202  1  0.89411900  0.64715100  0.33433500  1
  C  2204  1  0.90969500  0.70120600  0.39239300  1
  C  2206  1  0.89659600  0.37599200  0.68941000  1
  C  2207  1  0.88082500  0.36660100  0.68044700  1
  C  2208  1  0.88396900  0.35282600  0.66556600  1
  C  2209  1  0.90337300  0.34865000  0.65996700  1
  C  2213  1  0.86818300  0.34411200  0.65672200  1
  C  2214  1  0.85776700  0.35493500  0.64207000  1
  C  2219  1  0.89402900  0.38945400  0.70409600  1
  C  2221  1  0.90950400  0.33562000  0.64580700  1
  C  2223  1  0.13960400  0.66049200  0.68946200  1
  C  2224  1  0.15536000  0.66986500  0.68045100  1
  C  2225  1  0.15218200  0.68368300  0.66561800  1
  C  2226  1  0.13276500  0.68792400  0.66011400  1
  C  2230  1  0.16795600  0.69239600  0.65674600  1
  C  2231  1  0.17827700  0.68160700  0.64200000  1
  C  2236  1  0.14220200  0.64700200  0.70411700  1
  C  2238  1  0.12659400  0.70100400  0.64601400  1
  C  2240  1  0.13981800  0.37582600  0.34905700  1
  C  2241  1  0.15559700  0.36658100  0.35815900  1
  C  2242  1  0.15244700  0.35277800  0.37301300  1
  C  2243  1  0.13303700  0.34844200  0.37845900  1
  C  2247  1  0.16824100  0.34421700  0.38200700  1
  C  2248  1  0.17879200  0.35509700  0.39647600  1
  C  2253  1  0.14238600  0.38934800  0.33442800  1
  C  2255  1  0.12690500  0.33539600  0.39260300  1
  C  2257  1  0.22593000  0.99866700  0.40753200  1
  C  2258  1  0.21580600  0.01164400  0.39543900  1
  C  2259  1  0.21586800  0.03175100  0.39950600  1
  C  2260  1  0.22645500  0.03837100  0.41587200  1
  C  2264  1  0.20542800  0.04441000  0.38792700  1
  C  2265  1  0.21244500  0.04883000  0.36868300  1
  C  2270  1  0.22720100  0.97907200  0.40355900  1
  C  2272  1  0.22875800  0.05745400  0.42164800  1
  C  2274  1  0.81040900  0.03773700  0.40751300  1
  C  2275  1  0.82054100  0.02476700  0.39542000  1
  C  2276  1  0.82050500  0.00466300  0.39949600  1
  C  2277  1  0.80992800  0.99803700  0.41586700  1
  C  2281  1  0.83096200  0.99201200  0.38792400  1
  C  2282  1  0.82395500  0.98757700  0.36867900  1
  C  2287  1  0.80914100  0.05733300  0.40354400  1
  C  2289  1  0.80768900  0.97895200  0.42166300  1
  C  2291  1  0.81042900  0.99868800  0.63107500  1
  C  2292  1  0.82054900  0.01166300  0.64317200  1
  C  2293  1  0.82049400  0.03177000  0.63910700  1
  C  2294  1  0.80991200  0.03839500  0.62273900  1
  C  2298  1  0.83093900  0.04442400  0.65068600  1
  C  2299  1  0.82392200  0.04884800  0.66993000  1
  C  2304  1  0.80917600  0.97909000  0.63504100  1
  C  2306  1  0.80764500  0.05748200  0.61695300  1
  C  2308  1  0.22593500  0.03772000  0.63108800  1
  C  2309  1  0.21575800  0.02476000  0.64315300  1
  C  2310  1  0.21580900  0.00465000  0.63909800  1
  C  2311  1  0.22642300  0.99801500  0.62275300  1
  C  2315  1  0.20529100  0.99199200  0.65064100  1
  C  2316  1  0.21269100  0.98751800  0.66974900  1
  C  2321  1  0.22720900  0.05731600  0.63505600  1
  C  2323  1  0.22864100  0.97893100  0.61694400  1
  C  2325  1  0.40638400  0.22594800  0.99982000  1
  C  2326  1  0.39433500  0.21578000  0.01280000  1
  C  2327  1  0.39839100  0.21587300  0.03291000  1
  C  2328  1  0.41472200  0.22651800  0.03952200  1
  C  2332  1  0.38685900  0.20536600  0.04558800  1
  C  2333  1  0.36774500  0.21275800  0.05005300  1
  C  2338  1  0.40240500  0.22718700  0.98022500  1
  C  2340  1  0.42051700  0.22881500  0.05859800  1
  C  2342  1  0.40641900  0.81046900  0.03885500  1
  C  2343  1  0.39435200  0.82062200  0.02587600  1
  C  2344  1  0.39839600  0.82051800  0.00576500  1
  C  2345  1  0.41472800  0.80987800  0.99914300  1
  C  2349  1  0.38685800  0.83099800  0.99311300  1
  C  2350  1  0.36771800  0.82368900  0.98856700  1
  C  2355  1  0.40245500  0.80923700  0.05845400  1
  C  2357  1  0.42050900  0.80757100  0.98006400  1
  C  2359  1  0.62993700  0.81049100  0.99975200  1
  C  2360  1  0.64201200  0.82063500  0.01273000  1
  C  2361  1  0.63796400  0.82054100  0.03284000  1
  C  2362  1  0.62162200  0.80991700  0.03946200  1
  C  2366  1  0.64951400  0.83100800  0.04549200  1
  C  2367  1  0.66864500  0.82367600  0.05004000  1
  C  2372  1  0.63389900  0.80924500  0.98015400  1
  C  2374  1  0.61583700  0.80762200  0.05854400  1
  C  2376  1  0.63007600  0.22595300  0.03889100  1
  C  2377  1  0.64217500  0.21578700  0.02595300  1
  C  2378  1  0.63813700  0.21581500  0.00584000  1
  C  2379  1  0.62180100  0.22642000  0.99917400  1
  C  2383  1  0.64971800  0.20533300  0.99321700  1
  C  2384  1  0.66897900  0.21231200  0.98881000  1
  C  2389  1  0.63400900  0.22723900  0.05849300  1
  C  2391  1  0.61604400  0.22865300  0.98007900  1
  C  2393  1  0.99861400  0.40641000  0.22709100  1
  C  2394  1  0.01159400  0.39432400  0.21696500  1
  C  2395  1  0.03170100  0.39839100  0.21703200  1
  C  2396  1  0.03831900  0.41475100  0.22762800  1
  C  2400  1  0.04436100  0.38681900  0.20658700  1
  C  2401  1  0.04878200  0.36757000  0.21359400  1
  C  2406  1  0.97901800  0.40243300  0.22835900  1
  C  2408  1  0.05740200  0.42052800  0.22993400  1
  C  2410  1  0.03772800  0.40625700  0.81147800  1
  C  2411  1  0.02477800  0.39417600  0.82164900  1
  C  2412  1  0.00466600  0.39821800  0.82160400  1
  C  2413  1  0.99801100  0.41454300  0.81097600  1
  C  2417  1  0.99203800  0.38666100  0.83210500  1
  C  2418  1  0.98762400  0.36739000  0.82516000  1
  C  2423  1  0.05732900  0.40230700  0.81021200  1
  C  2425  1  0.97891400  0.42029700  0.80871900  1
  C  2427  1  0.99863000  0.63016200  0.81153600  1
  C  2428  1  0.01157800  0.64224900  0.82170100  1
  C  2429  1  0.03168900  0.63820400  0.82166200  1
  C  2430  1  0.03834300  0.62186900  0.81105100  1
  C  2434  1  0.04431900  0.64976800  0.83215400  1
  C  2435  1  0.04873100  0.66903600  0.82519700  1
  C  2440  1  0.97903000  0.63410800  0.81027300  1
  C  2442  1  0.05743700  0.61611200  0.80880000  1
  C  2444  1  0.03768500  0.63000900  0.22700000  1
  C  2445  1  0.02472600  0.64207500  0.21682300  1
  C  2446  1  0.00461400  0.63802400  0.21688000  1
  C  2447  1  0.99797900  0.62168400  0.22749900  1
  C  2451  1  0.99195700  0.64956600  0.20635800  1
  C  2452  1  0.98748500  0.66867500  0.21375500  1
  C  2457  1  0.05728300  0.63397000  0.22826900  1
  C  2459  1  0.97889500  0.61587900  0.22972200  1
  C  2461  1  0.99861400  0.22598200  0.63124900  1
  C  2462  1  0.01156400  0.21577300  0.64329800  1
  C  2463  1  0.03168100  0.21585500  0.63927600  1
  C  2464  1  0.03833100  0.22653100  0.62297900  1
  C  2468  1  0.04432900  0.20530800  0.65080100  1
  C  2469  1  0.04877100  0.21264600  0.66994000  1
  C  2474  1  0.97901200  0.22723000  0.63519700  1
  C  2476  1  0.05742000  0.22881300  0.61722100  1
  C  2478  1  0.03772500  0.81044500  0.63106500  1
  C  2479  1  0.02475100  0.82060700  0.64312900  1
  C  2480  1  0.00463800  0.82050600  0.63908900  1
  C  2481  1  0.99801200  0.80986000  0.62276300  1
  C  2485  1  0.99199000  0.83099400  0.65062500  1
  C  2486  1  0.98744600  0.82369300  0.66976800  1
  C  2491  1  0.05732600  0.80921600  0.63502500  1
  C  2493  1  0.97892800  0.80755400  0.61698600  1
  C  2495  1  0.99862100  0.81048800  0.40750100  1
  C  2496  1  0.01159600  0.82064200  0.39543300  1
  C  2497  1  0.03170700  0.82054900  0.39948100  1
  C  2498  1  0.03833000  0.80991500  0.41581600  1
  C  2502  1  0.04435700  0.83102600  0.38793900  1
  C  2503  1  0.04890600  0.82370600  0.36880300  1
  C  2508  1  0.97902100  0.80924200  0.40353700  1
  C  2510  1  0.05741100  0.80762200  0.42160000  1
  C  2512  1  0.03772000  0.22594800  0.40730100  1
  C  2513  1  0.02477700  0.21576700  0.39522200  1
  C  2514  1  0.00466800  0.21579000  0.39927600  1
  C  2515  1  0.99801200  0.22640700  0.41560800  1
  C  2519  1  0.99203900  0.20529400  0.38771400  1
  C  2520  1  0.98761500  0.21225300  0.36845000  1
  C  2525  1  0.05731800  0.22723800  0.40335200  1
  C  2527  1  0.97892000  0.22863900  0.42137500  1
  C  2529  1  0.22593000  0.40641500  0.03878100  1
  C  2530  1  0.21580900  0.39432500  0.02579800  1
  C  2531  1  0.21588600  0.39838900  0.00569100  1
  C  2532  1  0.22648500  0.41474800  0.99907200  1
  C  2536  1  0.20544700  0.38681300  0.99302800  1
  C  2537  1  0.21245500  0.36756500  0.98861500  1
  C  2542  1  0.22719000  0.40244000  0.05837900  1
  C  2544  1  0.22880000  0.42052100  0.97998900  1
  C  2546  1  0.81039000  0.40638100  0.99970500  1
  C  2547  1  0.82052500  0.39428900  0.01267300  1
  C  2548  1  0.82048900  0.39836200  0.03277900  1
  C  2549  1  0.80991200  0.41473100  0.03940900  1
  C  2553  1  0.83094600  0.38678700  0.04542700  1
  C  2554  1  0.82393600  0.36754100  0.04986000  1
  C  2559  1  0.80911800  0.40241100  0.98010800  1
  C  2561  1  0.80765800  0.42052000  0.05849500  1
  C  2563  1  0.81041300  0.62995700  0.03879000  1
  C  2564  1  0.82054200  0.64205200  0.02582000  1
  C  2565  1  0.82049000  0.63798800  0.00571200  1
  C  2566  1  0.80990500  0.62162500  0.99908400  1
  C  2570  1  0.83094500  0.64956400  0.99306100  1
  C  2571  1  0.82393900  0.66881300  0.98863900  1
  C  2576  1  0.80915700  0.63392100  0.05838800  1
  C  2578  1  0.80764100  0.61584300  0.97999800  1
  C  2580  1  0.22592700  0.62999300  0.99974500  1
  C  2581  1  0.21574700  0.64205500  0.01270500  1
  C  2582  1  0.21579000  0.63799400  0.03281400  1
  C  2583  1  0.22640100  0.62164800  0.03944600  1
  C  2587  1  0.20526900  0.64953400  0.04547300  1
  C  2588  1  0.21266800  0.66864100  0.04995400  1
  C  2593  1  0.22720600  0.63396500  0.98015100  1
  C  2595  1  0.22861500  0.61583500  0.05852800  1
  C  2597  1  0.40638600  0.99867000  0.81158100  1
  C  2598  1  0.39431900  0.01164500  0.82173900  1
  C  2599  1  0.39836300  0.03175800  0.82164600  1
  C  2600  1  0.41469800  0.03838000  0.81101000  1
  C  2604  1  0.38681500  0.04442900  0.83214100  1
  C  2605  1  0.36770500  0.04888100  0.82473500  1
  C  2610  1  0.40242000  0.97907200  0.81034100  1
  C  2612  1  0.42048500  0.05745900  0.80871700  1
  C  2614  1  0.40643000  0.03772600  0.22702200  1
  C  2615  1  0.39436300  0.02474900  0.21686800  1
  C  2616  1  0.39840500  0.00463700  0.21696900  1
  C  2617  1  0.41473700  0.99801500  0.22761100  1
  C  2621  1  0.38686800  0.99198700  0.20648700  1
  C  2622  1  0.36772700  0.98744100  0.21379500  1
  C  2627  1  0.40246600  0.05732500  0.22825600  1
  C  2629  1  0.42051500  0.97893400  0.22991700  1
  C  2631  1  0.62993400  0.99863700  0.22702600  1
  C  2632  1  0.64200200  0.01161100  0.21687100  1
  C  2633  1  0.63795300  0.03172100  0.21696200  1
  C  2634  1  0.62161900  0.03834500  0.22759500  1
  C  2638  1  0.64949500  0.04437100  0.20648300  1
  C  2639  1  0.66863000  0.04892100  0.21380100  1
  C  2644  1  0.63389700  0.97903700  0.22827200  1
  C  2646  1  0.61583500  0.05742600  0.22988800  1
  C  2648  1  0.62996100  0.03773700  0.81153100  1
  C  2649  1  0.64205400  0.02476600  0.82166100  1
  C  2650  1  0.63797400  0.00466200  0.82162700  1
  C  2651  1  0.62159900  0.99803900  0.81105400  1
  C  2655  1  0.64955300  0.99200800  0.83207200  1
  C  2656  1  0.66879100  0.98757000  0.82504800  1
  C  2661  1  0.63393900  0.05733000  0.81024400  1
  C  2663  1  0.61579800  0.97895700  0.80881100  1
  C  2665  1  0.72802400  0.49789700  0.89843300  1
  C  2666  1  0.71823000  0.51129000  0.88653200  1
  C  2667  1  0.71929500  0.53140200  0.89050700  1
  C  2668  1  0.73058000  0.53764500  0.90659300  1
  C  2672  1  0.70933100  0.54436200  0.87884300  1
  C  2673  1  0.71688900  0.54881800  0.85981200  1
  C  2678  1  0.72818200  0.47820700  0.89471000  1
  C  2680  1  0.73395700  0.55655100  0.91268600  1
  C  2682  1  0.30826800  0.53852500  0.89838200  1
  C  2683  1  0.31806300  0.52513600  0.88647800  1
  C  2684  1  0.31700100  0.50502300  0.89044800  1
  C  2685  1  0.30571600  0.49877400  0.90653100  1
  C  2689  1  0.32697100  0.49206900  0.87878400  1
  C  2690  1  0.31942000  0.48761600  0.85975000  1
  C  2695  1  0.30812100  0.55821600  0.89466700  1
  C  2697  1  0.30234200  0.47986700  0.91261900  1
  C  2699  1  0.30826700  0.49787200  0.14008800  1
  C  2700  1  0.31804900  0.51126700  0.15199700  1
  C  2701  1  0.31699500  0.53137800  0.14801300  1
  C  2702  1  0.30573500  0.53761800  0.13191000  1
  C  2706  1  0.32694900  0.54433700  0.15968600  1
  C  2707  1  0.31937400  0.54879500  0.17871000  1
  C  2712  1  0.30810500  0.47818600  0.14382200  1
  C  2714  1  0.30236400  0.55652400  0.12581400  1
  C  2716  1  0.72804800  0.53849500  0.14010700  1
  C  2717  1  0.71821000  0.52509700  0.15196800  1
  C  2718  1  0.71930800  0.50498200  0.14800800  1
  C  2719  1  0.73065400  0.49874600  0.13196300  1
  C  2723  1  0.70928000  0.49200300  0.15962900  1
  C  2724  1  0.71723800  0.48748700  0.17850300  1
  C  2729  1  0.72816000  0.55818500  0.14382000  1
  C  2731  1  0.73403800  0.47984600  0.12585900  1
  C  2733  1  0.89729700  0.72808700  0.49894400  1
  C  2734  1  0.88543500  0.71824600  0.51233600  1
  C  2735  1  0.88938200  0.71935200  0.53245400  1
  C  2736  1  0.90541500  0.73071200  0.53869600  1
  C  2740  1  0.87775800  0.70932200  0.54542900  1
  C  2741  1  0.85888100  0.71727700  0.54993800  1
  C  2746  1  0.89359100  0.72819700  0.47925200  1
  C  2748  1  0.91150200  0.73411200  0.55759900  1
  C  2750  1  0.89599700  0.30683000  0.53978400  1
  C  2751  1  0.88112200  0.31038500  0.52624300  1
  C  2752  1  0.88488400  0.30914600  0.50610200  1
  C  2753  1  0.90394300  0.30423600  0.49996400  1
  C  2757  1  0.86993500  0.31217700  0.49304400  1
  C  2758  1  0.86391600  0.33191300  0.48922500  1
  C  2763  1  0.89265000  0.30631900  0.55956200  1
  C  2765  1  0.91029700  0.30087500  0.48113600  1
  C  2767  1  0.14042800  0.30679500  0.49873600  1
  C  2768  1  0.15530700  0.31035700  0.51227000  1
  C  2769  1  0.15155400  0.30911900  0.53241200  1
  C  2770  1  0.13250000  0.30420100  0.53855800  1
  C  2774  1  0.16650400  0.31216700  0.54546400  1
  C  2775  1  0.17251000  0.33191100  0.54927100  1
  C  2780  1  0.14375900  0.30628500  0.47895500  1
  C  2782  1  0.12615300  0.30084900  0.55739000  1
  C  2784  1  0.13901200  0.72806600  0.53957100  1
  C  2785  1  0.15091100  0.71826500  0.52618100  1
  C  2786  1  0.14693500  0.71932400  0.50606900  1
  C  2787  1  0.13085300  0.73061200  0.49982300  1
  C  2791  1  0.15859600  0.70935300  0.49311200  1
  C  2792  1  0.17763000  0.71690200  0.48865600  1
  C  2797  1  0.14273000  0.72822100  0.55926200  1
  C  2799  1  0.12475800  0.73397900  0.48091700  1
  C  2801  1  0.49784900  0.89737800  0.72918700  1
  C  2802  1  0.51124100  0.88547100  0.71940100  1
  C  2803  1  0.53135200  0.88945900  0.72044200  1
  C  2804  1  0.53759600  0.90556200  0.73170000  1
  C  2808  1  0.54431000  0.87778600  0.71048500  1
  C  2809  1  0.54877300  0.85876300  0.71806100  1
  C  2814  1  0.47816500  0.89363500  0.72938200  1
  C  2816  1  0.55650200  0.91166100  0.73506400  1
  C  2818  1  0.53850200  0.89731600  0.30944300  1
  C  2819  1  0.52510900  0.88540200  0.31922100  1
  C  2820  1  0.50499700  0.88937500  0.31815700  1
  C  2821  1  0.49875100  0.90546900  0.30688600  1
  C  2825  1  0.49203900  0.87769900  0.32811000  1
  C  2826  1  0.48759000  0.85867200  0.32053700  1
  C  2831  1  0.55819200  0.89359800  0.30929100  1
  C  2833  1  0.47984500  0.91156200  0.30351400  1
  C  2835  1  0.49785600  0.13901700  0.30945400  1
  C  2836  1  0.51125000  0.15093100  0.31923400  1
  C  2837  1  0.53136200  0.14695500  0.31817300  1
  C  2838  1  0.53760500  0.13085500  0.30691000  1
  C  2842  1  0.54432100  0.15863200  0.32812300  1
  C  2843  1  0.54877300  0.17765500  0.32054300  1
  C  2848  1  0.47816700  0.14273900  0.30930000  1
  C  2850  1  0.55651100  0.12476200  0.30353600  1
  C  2852  1  0.53847600  0.13909200  0.72921300  1
  C  2853  1  0.52508900  0.15094100  0.71934700  1
  C  2854  1  0.50497200  0.14698100  0.72042800  1
  C  2855  1  0.49872600  0.13094800  0.73178400  1
  C  2859  1  0.49200100  0.15858900  0.71037300  1
  C  2860  1  0.48747800  0.17747300  0.71830000  1
  C  2865  1  0.55816600  0.14280700  0.72934900  1
  C  2867  1  0.47982200  0.12484700  0.73515400  1
  C  2869  1  0.49783200  0.72802400  0.14013700  1
  C  2870  1  0.51122900  0.71819000  0.15200000  1
  C  2871  1  0.53134600  0.71929400  0.14804400  1
  C  2872  1  0.53758000  0.73064300  0.13200000  1
  C  2876  1  0.54432700  0.70927600  0.15967100  1
  C  2877  1  0.54883800  0.71724500  0.17854200  1
  C  2882  1  0.47814100  0.72814800  0.14385600  1
  C  2884  1  0.55648000  0.73404500  0.12590700  1
  C  2886  1  0.53851600  0.30834000  0.14022100  1
  C  2887  1  0.52513200  0.31821500  0.15206400  1
  C  2888  1  0.50501500  0.31712400  0.14811100  1
  C  2889  1  0.49876500  0.30574600  0.13209500  1
  C  2893  1  0.49206900  0.32718100  0.15969900  1
  C  2894  1  0.48746100  0.31937500  0.17862700  1
  C  2899  1  0.55820800  0.30821200  0.14393200  1
  C  2901  1  0.47986100  0.30235600  0.12600800  1
  C  2903  1  0.49766700  0.30681400  0.89711200  1
  C  2904  1  0.51120900  0.31036900  0.88224000  1
  C  2905  1  0.53134900  0.30913500  0.88600600  1
  C  2906  1  0.53748500  0.30423000  0.90506800  1
  C  2910  1  0.54441100  0.31217600  0.87106400  1
  C  2911  1  0.54822500  0.33191600  0.86505400  1
  C  2916  1  0.47788900  0.30628700  0.89376600  1
  C  2918  1  0.55631200  0.30087600  0.91142800  1
  C  2920  1  0.53848800  0.72809000  0.89841000  1
  C  2921  1  0.52510000  0.71828200  0.88651300  1
  C  2922  1  0.50498800  0.71933400  0.89049000  1
  C  2923  1  0.49873800  0.73061900  0.90657100  1
  C  2927  1  0.49203400  0.70935500  0.87883000  1
  C  2928  1  0.48757500  0.71689900  0.85979400  1
  C  2933  1  0.55817700  0.72824800  0.89469300  1
  C  2935  1  0.47983100  0.73397900  0.91266700  1
  C  2937  1  0.72806000  0.89734800  0.53962800  1
  C  2938  1  0.71827200  0.88544500  0.52623300  1
  C  2939  1  0.71933600  0.88942400  0.50612100  1
  C  2940  1  0.73061200  0.90551500  0.49988100  1
  C  2944  1  0.70938200  0.87775400  0.49315900  1
  C  2945  1  0.71695400  0.85873000  0.48870100  1
  C  2950  1  0.72822500  0.89362100  0.55931600  1
  C  2952  1  0.73399600  0.91160800  0.48097600  1
  C  2954  1  0.30829000  0.89736400  0.49899100  1
  C  2955  1  0.31807000  0.88545700  0.51238700  1
  C  2956  1  0.31701400  0.88944300  0.53249800  1
  C  2957  1  0.30575100  0.90554400  0.53873600  1
  C  2961  1  0.32696800  0.87777300  0.54546000  1
  C  2962  1  0.31939600  0.85874800  0.54991700  1
  C  2967  1  0.30812600  0.89362700  0.47930400  1
  C  2969  1  0.30237500  0.91164300  0.55763900  1
  C  2971  1  0.30827500  0.13907400  0.53963100  1
  C  2972  1  0.31806700  0.15097900  0.52623900  1
  C  2973  1  0.31700800  0.14700300  0.50612700  1
  C  2974  1  0.30573000  0.13091500  0.49988100  1
  C  2978  1  0.32697400  0.15866800  0.49317000  1
  C  2979  1  0.31941700  0.17770000  0.48871400  1
  C  2984  1  0.30813100  0.14279300  0.55932000  1
  C  2986  1  0.30235800  0.12482200  0.48097500  1
  C  2988  1  0.72804100  0.13905100  0.49899400  1
  C  2989  1  0.71818700  0.15090300  0.51238500  1
  C  2990  1  0.71927500  0.14694200  0.53250100  1
  C  2991  1  0.73062700  0.13090200  0.53874100  1
  C  2995  1  0.70923400  0.15855700  0.54547600  1
  C  2996  1  0.71717700  0.17743500  0.54999700  1
  C  3001  1  0.72817000  0.14276900  0.47930200  1
  C  3003  1  0.73400800  0.12480200  0.55764300  1
  C  3005  1  0.89733200  0.49790100  0.30941000  1
  C  3006  1  0.88547500  0.51130200  0.31924700  1
  C  3007  1  0.88943700  0.53141500  0.31814700  1
  C  3008  1  0.90548200  0.53764700  0.30679500  1
  C  3012  1  0.87781700  0.54439900  0.32817100  1
  C  3013  1  0.85894500  0.54891600  0.32021000  1
  C  3018  1  0.89360200  0.47821300  0.30927900  1
  C  3020  1  0.91158000  0.55654700  0.30339500  1
  C  3022  1  0.89594700  0.53873500  0.73066300  1
  C  3023  1  0.88106800  0.52520300  0.72709200  1
  C  3024  1  0.88481900  0.50506000  0.72833200  1
  C  3025  1  0.90387000  0.49891300  0.73326300  1
  C  3029  1  0.86986900  0.49201100  0.72528200  1
  C  3030  1  0.86385800  0.48821100  0.70553900  1
  C  3035  1  0.89261300  0.55851600  0.73115300  1
  C  3037  1  0.91021500  0.48008100  0.73661900  1
  C  3039  1  0.14036000  0.49769900  0.73061500  1
  C  3040  1  0.15523800  0.51123700  0.72706500  1
  C  3041  1  0.15148200  0.53137800  0.72831600  1
  C  3042  1  0.13242500  0.53751800  0.73323100  1
  C  3046  1  0.16643100  0.54443400  0.72528100  1
  C  3047  1  0.17244100  0.54825600  0.70554200  1
  C  3052  1  0.14369400  0.47791800  0.73111700  1
  C  3054  1  0.12607500  0.55634700  0.73659800  1
  C  3056  1  0.13906300  0.53853200  0.30934900  1
  C  3057  1  0.15096300  0.52514900  0.31915700  1
  C  3058  1  0.14698800  0.50503600  0.31811100  1
  C  3059  1  0.13090600  0.49878200  0.30682900  1
  C  3063  1  0.15865000  0.49208700  0.32809000  1
  C  3064  1  0.17768500  0.48762600  0.32054300  1
  C  3069  1  0.14278000  0.55822200  0.30918000  1
  C  3071  1  0.12481200  0.47987400  0.30347300  1
  N  8  1  0.33551300  0.13712800  0.43852000  1
  N  15  1  0.20140500  0.09793900  0.41046000  1
  N  17  1  0.28880500  0.11915000  0.38907000  1
  N  18  1  0.26961300  0.08174900  0.41542200  1
  N  27  1  0.21162900  0.13736900  0.41690000  1
  N  28  1  0.23145900  0.07106800  0.40924200  1
  N  29  1  0.32634500  0.12802600  0.40014600  1
  N  30  1  0.30578100  0.13527800  0.46594500  1
  N  38  1  0.70083100  0.89931300  0.43850900  1
  N  45  1  0.83495500  0.93847000  0.41047700  1
  N  47  1  0.74754000  0.91731100  0.38906900  1
  N  48  1  0.76675700  0.95470700  0.41542500  1
  N  57  1  0.82470500  0.89905100  0.41692700  1
  N  58  1  0.80492100  0.96535900  0.40925000  1
  N  59  1  0.71000400  0.90841300  0.40013500  1
  N  60  1  0.73055900  0.90116600  0.46594000  1
  N  68  1  0.70082100  0.13708500  0.60011300  1
  N  75  1  0.83496000  0.09797200  0.62812800  1
  N  77  1  0.74754300  0.11913600  0.64955800  1
  N  78  1  0.76675500  0.08175200  0.62319700  1
  N  87  1  0.82471600  0.13739800  0.62169100  1
  N  88  1  0.80491900  0.07108800  0.62936200  1
  N  89  1  0.70999600  0.12800700  0.63848400  1
  N  90  1  0.73054600  0.13523200  0.57268200  1
  N  98  1  0.33552300  0.89937100  0.60010900  1
  N  105  1  0.20136300  0.93843500  0.62810600  1
  N  107  1  0.28878100  0.91731100  0.64953800  1
  N  108  1  0.26956100  0.95468100  0.62317300  1
  N  117  1  0.21161800  0.89901800  0.62164600  1
  N  118  1  0.23139700  0.96532700  0.62934600  1
  N  119  1  0.32633500  0.90845500  0.63847700  1
  N  120  1  0.30579800  0.90119200  0.57267300  1
  N  128  1  0.43739100  0.33556100  0.13829900  1
  N  135  1  0.40936600  0.20145200  0.09908500  1
  N  137  1  0.38795000  0.28885500  0.12029400  1
  N  138  1  0.41429800  0.26966600  0.08290600  1
  N  147  1  0.41582500  0.21166800  0.13850900  1
  N  148  1  0.40812300  0.23151300  0.07222300  1
  N  149  1  0.39902600  0.32639700  0.12917400  1
  N  150  1  0.46482300  0.30583600  0.13643600  1
  N  158  1  0.43737400  0.70085800  0.90032400  1
  N  165  1  0.40934300  0.83495100  0.93958500  1
  N  167  1  0.38793400  0.74756500  0.91833400  1
  N  168  1  0.41427800  0.76673300  0.95574900  1
  N  177  1  0.41581200  0.82474500  0.90016100  1
  N  178  1  0.40810900  0.80488800  0.96644200  1
  N  179  1  0.39900100  0.71002800  0.90943200  1
  N  180  1  0.46480500  0.73058500  0.90219500  1
  N  188  1  0.59895600  0.70083400  0.13817800  1
  N  195  1  0.62700500  0.83495800  0.09903500  1
  N  197  1  0.64840400  0.74755200  0.12022200  1
  N  198  1  0.62205700  0.76674900  0.08283200  1
  N  207  1  0.62052900  0.82472900  0.13845300  1
  N  208  1  0.62823700  0.80490800  0.07216000  1
  N  209  1  0.63732700  0.71000700  0.12909400  1
  N  210  1  0.57152600  0.73055600  0.13631800  1
  N  218  1  0.59877400  0.33527400  0.90018500  1
  N  225  1  0.62733800  0.20135700  0.93963900  1
  N  227  1  0.64848100  0.28903100  0.91864700  1
  N  228  1  0.62223500  0.26956000  0.95581500  1
  N  237  1  0.62087200  0.21156800  0.90020500  1
  N  238  1  0.62848300  0.23141600  0.96650600  1
  N  239  1  0.63716500  0.32644300  0.90954600  1
  N  240  1  0.57158900  0.30529800  0.90172600  1
  N  248  1  0.13718800  0.43743700  0.33661600  1
  N  255  1  0.09787300  0.40937200  0.20254500  1
  N  257  1  0.11916700  0.38796200  0.28995300  1
  N  258  1  0.08173200  0.41428700  0.27076900  1
  N  267  1  0.13730900  0.41582300  0.21274500  1
  N  268  1  0.07102300  0.40812600  0.23261800  1
  N  269  1  0.12810000  0.39905600  0.32747900  1
  N  270  1  0.13528300  0.46485000  0.30687800  1
  N  278  1  0.89892400  0.43764700  0.70219400  1
  N  285  1  0.93847000  0.40901700  0.83606800  1
  N  287  1  0.91742400  0.38790100  0.74837900  1
  N  288  1  0.95462200  0.41411000  0.76785900  1
  N  297  1  0.89903200  0.41548800  0.82587400  1
  N  298  1  0.96532700  0.40786600  0.80600200  1
  N  299  1  0.90828600  0.39924800  0.71098300  1
  N  300  1  0.90050800  0.46481000  0.73218500  1
  N  308  1  0.13731300  0.59880800  0.70218500  1
  N  315  1  0.09787600  0.62739600  0.83610100  1
  N  317  1  0.11887300  0.64851800  0.74843100  1
  N  318  1  0.08170500  0.62228300  0.76789800  1
  N  327  1  0.13730500  0.62091700  0.82589700  1
  N  328  1  0.07101400  0.62854500  0.80603900  1
  N  329  1  0.12795600  0.63720100  0.71101800  1
  N  330  1  0.13577300  0.57162300  0.73216200  1
  N  338  1  0.89931400  0.59902800  0.33659800  1
  N  345  1  0.93840300  0.62704700  0.20245100  1
  N  347  1  0.91725800  0.64846800  0.28986700  1
  N  348  1  0.95464500  0.62211400  0.27064900  1
  N  357  1  0.89899000  0.62057900  0.21270100  1
  N  358  1  0.96529400  0.62828600  0.23248500  1
  N  359  1  0.90839000  0.63739600  0.32741800  1
  N  360  1  0.90116800  0.57159200  0.30687900  1
  N  368  1  0.13744000  0.33528300  0.59982100  1
  N  375  1  0.09786300  0.20142300  0.62848400  1
  N  377  1  0.11895500  0.28910100  0.64957600  1
  N  378  1  0.08174900  0.26964100  0.62338000  1
  N  387  1  0.13729700  0.21159200  0.62198900  1
  N  388  1  0.07102400  0.23150900  0.62963900  1
  N  389  1  0.12808400  0.32649500  0.63822300  1
  N  390  1  0.13585600  0.30528800  0.57266100  1
  N  398  1  0.89917500  0.70087300  0.60005000  1
  N  405  1  0.93844800  0.83494500  0.62815400  1
  N  407  1  0.91717100  0.74753000  0.64954000  1
  N  408  1  0.95460700  0.76672600  0.62322800  1
  N  417  1  0.89902200  0.82474200  0.62168100  1
  N  418  1  0.96530700  0.80488200  0.62938800  1
  N  419  1  0.90825000  0.71000200  0.63842900  1
  N  420  1  0.90109100  0.73060900  0.57264100  1
  N  428  1  0.13708400  0.70085500  0.43845200  1
  N  435  1  0.09789200  0.83497400  0.41044000  1
  N  437  1  0.11911100  0.74758300  0.38901900  1
  N  438  1  0.08171400  0.76676000  0.41537300  1
  N  447  1  0.13731400  0.82476000  0.41691300  1
  N  448  1  0.07102800  0.80491500  0.40920100  1
  N  449  1  0.12799200  0.71004000  0.40007900  1
  N  450  1  0.13522500  0.73057600  0.46589000  1
  N  458  1  0.89906100  0.33528600  0.43867600  1
  N  465  1  0.93847500  0.20136000  0.41009200  1
  N  467  1  0.91750200  0.28903700  0.38896600  1
  N  468  1  0.95466700  0.26955700  0.41520300  1
  N  477  1  0.89904700  0.21157900  0.41656800  1
  N  478  1  0.96534600  0.23141400  0.40894200  1
  N  479  1  0.90841900  0.32645300  0.40028400  1
  N  480  1  0.90059800  0.30530800  0.46586000  1
  N  488  1  0.33552300  0.43742700  0.90029200  1
  N  495  1  0.20142200  0.40935300  0.93949500  1
  N  497  1  0.28884600  0.38794900  0.91826800  1
  N  498  1  0.26963500  0.41427700  0.95568200  1
  N  507  1  0.21164700  0.41578900  0.90006100  1
  N  508  1  0.23147500  0.40811700  0.96636700  1
  N  509  1  0.32638200  0.39904600  0.90937400  1
  N  510  1  0.30578100  0.46483900  0.90216700  1
  N  518  1  0.70086800  0.43737200  0.13816700  1
  N  525  1  0.83498600  0.40935500  0.09898400  1
  N  527  1  0.74758000  0.38793100  0.12017900  1
  N  528  1  0.76678000  0.41427400  0.08277100  1
  N  537  1  0.82474700  0.41581500  0.13840900  1
  N  538  1  0.80494100  0.40811200  0.07210400  1
  N  539  1  0.71004000  0.39900300  0.12907800  1
  N  540  1  0.73058600  0.46480700  0.13629000  1
  N  548  1  0.70081200  0.59902000  0.90038300  1
  N  555  1  0.83494500  0.62703300  0.93952000  1
  N  557  1  0.74754300  0.64845300  0.91834000  1
  N  558  1  0.76673900  0.62208000  0.95572700  1
  N  567  1  0.82471000  0.62059700  0.90009400  1
  N  568  1  0.80489900  0.62825500  0.96639700  1
  N  569  1  0.70999800  0.63739400  0.90946900  1
  N  570  1  0.73053300  0.57158200  0.90223100  1
  N  578  1  0.33549900  0.59898900  0.13811000  1
  N  585  1  0.20135000  0.62700300  0.09901500  1
  N  587  1  0.28875900  0.64842000  0.12016300  1
  N  588  1  0.26955000  0.62205300  0.08278100  1
  N  597  1  0.21159700  0.62054100  0.13843000  1
  N  598  1  0.23139000  0.62823700  0.07213000  1
  N  599  1  0.32630900  0.63736000  0.12903000  1
  N  600  1  0.30577500  0.57155300  0.13627300  1
  N  608  1  0.43735600  0.13716100  0.70198700  1
  N  615  1  0.40932600  0.09794400  0.83609300  1
  N  617  1  0.38791100  0.11918400  0.74869700  1
  N  618  1  0.41425300  0.08177400  0.76787600  1
  N  627  1  0.41578100  0.13737000  0.82588200  1
  N  628  1  0.40808700  0.07108300  0.80602900  1
  N  629  1  0.39898700  0.12806600  0.71115500  1
  N  630  1  0.46478800  0.13529000  0.73171000  1
  N  638  1  0.43738500  0.89925200  0.33666300  1
  N  645  1  0.40934100  0.93844800  0.20255300  1
  N  647  1  0.38794200  0.91723300  0.28994800  1
  N  648  1  0.41428700  0.95463500  0.27076500  1
  N  657  1  0.41581200  0.89902600  0.21277200  1
  N  658  1  0.40811300  0.96531500  0.23260800  1
  N  659  1  0.39901300  0.90835500  0.32749100  1
  N  660  1  0.46481500  0.90110500  0.30693600  1
  N  668  1  0.59897300  0.13708100  0.33666500  1
  N  675  1  0.62700500  0.09791300  0.20254500  1
  N  677  1  0.64840800  0.11911400  0.28993800  1
  N  678  1  0.62205400  0.08172000  0.27075500  1
  N  687  1  0.62053200  0.13733300  0.21276800  1
  N  688  1  0.62823500  0.07104200  0.23259800  1
  N  689  1  0.63734600  0.12799400  0.32748200  1
  N  690  1  0.57153900  0.13522500  0.30694300  1
  N  698  1  0.59897000  0.89935800  0.70193500  1
  N  705  1  0.62696200  0.93847200  0.83608100  1
  N  707  1  0.64839800  0.91732100  0.74867100  1
  N  708  1  0.62203300  0.95470400  0.76787900  1
  N  717  1  0.62051500  0.89904900  0.82583000  1
  N  718  1  0.62820500  0.96535700  0.80604200  1
  N  719  1  0.63734000  0.90844500  0.71112200  1
  N  720  1  0.57153100  0.90119900  0.73165800  1
  N  728  1  0.70335700  0.89717900  0.59877400  1
  N  735  1  0.83555300  0.94083500  0.62714300  1
  N  737  1  0.75026000  0.90945500  0.64975500  1
  N  738  1  0.76714300  0.95437200  0.61790200  1
  N  747  1  0.82690700  0.90151500  0.62860000  1
  N  748  1  0.80453700  0.96695200  0.62173000  1
  N  749  1  0.71342300  0.89845800  0.63783800  1
  N  750  1  0.73356700  0.90675100  0.57134600  1
  N  758  1  0.33300000  0.13924400  0.59877200  1
  N  765  1  0.20082700  0.09555500  0.62718600  1
  N  767  1  0.28609400  0.12699000  0.64975700  1
  N  768  1  0.26923600  0.08204900  0.61787700  1
  N  777  1  0.20946300  0.13487200  0.62868900  1
  N  778  1  0.23185300  0.06945300  0.62174300  1
  N  779  1  0.32292300  0.13800300  0.63784100  1
  N  780  1  0.30280500  0.12965400  0.57134800  1
  N  788  1  0.33300700  0.89717400  0.43983200  1
  N  795  1  0.20081600  0.94082800  0.41144500  1
  N  797  1  0.28608700  0.90943900  0.38886500  1
  N  798  1  0.26923000  0.95433200  0.42071600  1
  N  807  1  0.20944500  0.90150500  0.40999000  1
  N  808  1  0.23184700  0.96693000  0.41686500  1
  N  809  1  0.32292700  0.89844300  0.40077200  1
  N  810  1  0.30282400  0.90676500  0.46726600  1
  N  818  1  0.70332900  0.13921300  0.43984300  1
  N  825  1  0.83551700  0.09557600  0.41136300  1
  N  827  1  0.75024000  0.12695400  0.38886500  1
  N  828  1  0.76712400  0.08205200  0.42076800  1
  N  837  1  0.82686900  0.13488800  0.40987700  1
  N  838  1  0.80451000  0.06946800  0.41686100  1
  N  839  1  0.71340500  0.13795200  0.40078200  1
  N  840  1  0.73353900  0.12964900  0.46727500  1
  N  848  1  0.59763200  0.70338600  0.89825400  1
  N  855  1  0.62601300  0.83558900  0.94189100  1
  N  857  1  0.64860800  0.75029800  0.91053000  1
  N  858  1  0.61675000  0.76718500  0.95545200  1
  N  867  1  0.62745200  0.82693100  0.90257700  1
  N  868  1  0.62059300  0.80457900  0.96802100  1
  N  869  1  0.63669300  0.71346000  0.89952700  1
  N  870  1  0.57020000  0.73358800  0.90783000  1
  N  878  1  0.59766800  0.33304200  0.14035200  1
  N  885  1  0.62605800  0.20084300  0.09671800  1
  N  887  1  0.64863200  0.28611200  0.12810900  1
  N  888  1  0.61679800  0.26925500  0.08319400  1
  N  897  1  0.62747900  0.20947800  0.13604100  1
  N  898  1  0.62067400  0.23187000  0.07060700  1
  N  899  1  0.63673100  0.32295000  0.13910100  1
  N  900  1  0.57022800  0.30284300  0.13080500  1
  N  908  1  0.43875200  0.33274700  0.89747800  1
  N  915  1  0.41029600  0.20084200  0.94197700  1
  N  917  1  0.38764800  0.28619500  0.91071400  1
  N  918  1  0.41952600  0.26926500  0.95548400  1
  N  927  1  0.40879500  0.20947900  0.90265500  1
  N  928  1  0.41569400  0.23187900  0.96808200  1
  N  929  1  0.39959400  0.32292400  0.89939100  1
  N  930  1  0.46600300  0.30294400  0.90767300  1
  N  938  1  0.43866700  0.70332700  0.14028200  1
  N  945  1  0.41036000  0.83556000  0.09670400  1
  N  947  1  0.38771300  0.75027000  0.12804300  1
  N  948  1  0.41957900  0.76714400  0.08316400  1
  N  957  1  0.40887400  0.82690800  0.13601900  1
  N  958  1  0.41575200  0.80453700  0.07058500  1
  N  959  1  0.39961000  0.71342000  0.13901900  1
  N  960  1  0.46611500  0.73353000  0.13074100  1
  N  968  1  0.89632800  0.59762900  0.70472700  1
  N  975  1  0.94078600  0.62618100  0.83663200  1
  N  977  1  0.90951600  0.64875000  0.75127300  1
  N  978  1  0.95434000  0.61691100  0.76822500  1
  N  987  1  0.90147000  0.62759600  0.82798300  1
  N  988  1  0.96691300  0.62078300  0.80562000  1
  N  989  1  0.89820000  0.63679200  0.71455000  1
  N  990  1  0.90652200  0.57038700  0.73454200  1
  N  998  1  0.13922200  0.59766800  0.33407400  1
  N  1005  1  0.09553000  0.62605800  0.20189900  1
  N  1007  1  0.12691900  0.64866100  0.28718900  1
  N  1008  1  0.08199400  0.61681500  0.27031200  1
  N  1017  1  0.13485000  0.62751900  0.21054700  1
  N  1018  1  0.06941400  0.62065800  0.23292400  1
  N  1019  1  0.13793700  0.63673500  0.32401700  1
  N  1020  1  0.12963400  0.57024800  0.30386500  1
  N  1028  1  0.89722200  0.43877000  0.33418800  1
  N  1035  1  0.94076400  0.41031100  0.20197900  1
  N  1037  1  0.90944900  0.38775500  0.28730800  1
  N  1038  1  0.95428000  0.41957800  0.27039200  1
  N  1047  1  0.90144300  0.40889200  0.21060500  1
  N  1048  1  0.96687200  0.41573500  0.23300600  1
  N  1049  1  0.89848100  0.39968700  0.32414000  1
  N  1050  1  0.90672600  0.46617400  0.30394500  1
  N  1058  1  0.13993900  0.43882200  0.70463200  1
  N  1065  1  0.09557400  0.41022300  0.83655400  1
  N  1067  1  0.12677000  0.38766500  0.75114700  1
  N  1068  1  0.08202900  0.41949100  0.76814600  1
  N  1077  1  0.13489200  0.40879600  0.82791200  1
  N  1078  1  0.06945100  0.41562400  0.80553900  1
  N  1079  1  0.13805900  0.39964100  0.71442700  1
  N  1080  1  0.12978400  0.46603800  0.73447400  1
  N  1088  1  0.89716700  0.70336600  0.43979600  1
  N  1095  1  0.94075800  0.83558500  0.41143100  1
  N  1097  1  0.90939400  0.75029300  0.38882600  1
  N  1098  1  0.95432200  0.76717800  0.42067700  1
  N  1107  1  0.90144500  0.82692600  0.40999100  1
  N  1108  1  0.96688800  0.80457400  0.41684300  1
  N  1109  1  0.89840400  0.71345400  0.40073100  1
  N  1110  1  0.90671300  0.73357500  0.46723000  1
  N  1118  1  0.14005600  0.33274000  0.43984200  1
  N  1125  1  0.09555200  0.20085500  0.41128500  1
  N  1127  1  0.12683500  0.28621000  0.38871600  1
  N  1128  1  0.08202300  0.26926800  0.42054600  1
  N  1137  1  0.13487400  0.20948800  0.40988100  1
  N  1138  1  0.06943900  0.23187900  0.41667800  1
  N  1139  1  0.13815000  0.32293500  0.40068200  1
  N  1140  1  0.12984500  0.30292600  0.46708100  1
  N  1148  1  0.89641300  0.33283400  0.59865900  1
  N  1155  1  0.94076100  0.20091100  0.62727500  1
  N  1157  1  0.90958500  0.28632700  0.64982500  1
  N  1158  1  0.95431400  0.26932100  0.61801900  1
  N  1167  1  0.90144500  0.20955700  0.62869100  1
  N  1168  1  0.96689100  0.23193400  0.62189400  1
  N  1169  1  0.89830000  0.32304700  0.63784200  1
  N  1170  1  0.90655700  0.30298400  0.57145000  1
  N  1178  1  0.13911400  0.70330200  0.59868700  1
  N  1185  1  0.09558400  0.83551800  0.62712300  1
  N  1187  1  0.12687700  0.75016900  0.64971300  1
  N  1188  1  0.08202700  0.76710800  0.61788300  1
  N  1197  1  0.13489800  0.82685800  0.62860700  1
  N  1198  1  0.06945400  0.80450000  0.62173000  1
  N  1199  1  0.13785900  0.71334300  0.63777300  1
  N  1200  1  0.12959100  0.73354500  0.57129000  1
  N  1208  1  0.70331800  0.59763800  0.14026500  1
  N  1215  1  0.83552100  0.62602900  0.09664700  1
  N  1217  1  0.75023100  0.64862100  0.12803200  1
  N  1218  1  0.76711700  0.61676300  0.08309100  1
  N  1227  1  0.82686000  0.62749900  0.13596200  1
  N  1228  1  0.80451300  0.62060800  0.07052200  1
  N  1229  1  0.71339800  0.63670300  0.13903400  1
  N  1230  1  0.73352800  0.57021000  0.13069700  1
  N  1238  1  0.33300000  0.59766700  0.89820600  1
  N  1245  1  0.20083300  0.62612600  0.94190400  1
  N  1247  1  0.28610600  0.64865300  0.91049800  1
  N  1248  1  0.26923000  0.61676500  0.95543300  1
  N  1257  1  0.20947800  0.62760300  0.90259300  1
  N  1258  1  0.23184600  0.62065100  0.96801500  1
  N  1259  1  0.32293500  0.63672900  0.89948400  1
  N  1260  1  0.30280600  0.57024200  0.90781100  1
  N  1268  1  0.33299000  0.43872200  0.14026100  1
  N  1275  1  0.20079500  0.41031500  0.09662900  1
  N  1277  1  0.28606800  0.38774800  0.12803100  1
  N  1278  1  0.26921100  0.41958200  0.08312900  1
  N  1287  1  0.20941600  0.40889700  0.13595600  1
  N  1288  1  0.23183000  0.41574200  0.07052700  1
  N  1289  1  0.32290300  0.39965500  0.13903100  1
  N  1290  1  0.30280100  0.46614900  0.13068300  1
  N  1298  1  0.70325900  0.43878300  0.89832600  1
  N  1305  1  0.83546500  0.41024900  0.94185200  1
  N  1307  1  0.75012100  0.38774900  0.91055300  1
  N  1308  1  0.76707100  0.41960800  0.95540200  1
  N  1317  1  0.82681100  0.40877700  0.90254400  1
  N  1318  1  0.80446200  0.41572100  0.96797300  1
  N  1319  1  0.71329400  0.39969600  0.89958300  1
  N  1320  1  0.73350700  0.46617500  0.90784500  1
  N  1328  1  0.59765400  0.89715100  0.33414400  1
  N  1335  1  0.62598800  0.94078200  0.20193100  1
  N  1337  1  0.64861800  0.90941200  0.28721800  1
  N  1338  1  0.61676200  0.95433200  0.27034100  1
  N  1347  1  0.62745700  0.90146700  0.21058600  1
  N  1348  1  0.62059300  0.96690500  0.23294800  1
  N  1349  1  0.63671400  0.89842400  0.32406200  1
  N  1350  1  0.57021600  0.90673500  0.30395500  1
  N  1358  1  0.59760700  0.13922800  0.70447800  1
  N  1365  1  0.62611400  0.09557700  0.83664800  1
  N  1367  1  0.64861100  0.12698500  0.75136700  1
  N  1368  1  0.61672700  0.08205900  0.76825300  1
  N  1377  1  0.62758100  0.13489200  0.82800900  1
  N  1378  1  0.62062200  0.06947300  0.80563400  1
  N  1379  1  0.63668000  0.13798600  0.71454100  1
  N  1380  1  0.57019200  0.12968100  0.73470700  1
  N  1388  1  0.43869700  0.89721600  0.70448000  1
  N  1395  1  0.41032200  0.94082100  0.83668700  1
  N  1397  1  0.38771900  0.90948000  0.75139000  1
  N  1398  1  0.41956000  0.95435000  0.76827100  1
  N  1407  1  0.40886300  0.90150200  0.82804400  1
  N  1408  1  0.41571900  0.96693600  0.80565900  1
  N  1409  1  0.39963200  0.89849500  0.71454800  1
  N  1410  1  0.46612500  0.90677300  0.73468600  1
  N  1418  1  0.43870500  0.13918900  0.33416000  1
  N  1425  1  0.41037300  0.09557700  0.20194300  1
  N  1427  1  0.38773900  0.12693000  0.28723400  1
  N  1428  1  0.41959800  0.08202900  0.27035600  1
  N  1437  1  0.40888600  0.13489200  0.21060100  1
  N  1438  1  0.41576400  0.06945400  0.23296300  1
  N  1439  1  0.39964300  0.13792800  0.32407500  1
  N  1440  1  0.46614100  0.12960200  0.30397100  1
  N  1445  1  0.17403500  0.18216200  0.42613500  1
  N  1446  1  0.18606800  0.16786000  0.42311400  1
  N  1462  1  0.86228100  0.85425600  0.42620300  1
  N  1463  1  0.85025300  0.86855900  0.42316700  1
  N  1479  1  0.86228300  0.18222400  0.61244900  1
  N  1480  1  0.85025700  0.16791500  0.61547000  1
  N  1496  1  0.17399700  0.85425600  0.61236600  1
  N  1497  1  0.18602200  0.86856200  0.61539800  1
  N  1513  1  0.42512300  0.17400900  0.18322700  1
  N  1514  1  0.42208400  0.18604900  0.16893500  1
  N  1530  1  0.42511000  0.86240200  0.85543700  1
  N  1531  1  0.42207100  0.85036000  0.86972800  1
  N  1547  1  0.61122800  0.86236000  0.18319600  1
  N  1548  1  0.61427000  0.85032200  0.16890300  1
  N  1564  1  0.61148400  0.17406400  0.85539200  1
  N  1565  1  0.61455800  0.18606400  0.86971100  1
  N  1581  1  0.18206300  0.42512100  0.17511300  1
  N  1582  1  0.16776700  0.42208100  0.18715000  1
  N  1598  1  0.85419500  0.42487600  0.86336900  1
  N  1599  1  0.86851600  0.42180400  0.85137000  1
  N  1615  1  0.18211000  0.61151700  0.86340900  1
  N  1616  1  0.16779900  0.61459600  0.85140000  1
  N  1632  1  0.85424900  0.61127700  0.17507100  1
  N  1633  1  0.86854900  0.61431700  0.18710000  1
  N  1649  1  0.18203200  0.17399200  0.61256600  1
  N  1650  1  0.16773000  0.18601000  0.61564600  1
  N  1666  1  0.85430100  0.86240600  0.61236400  1
  N  1667  1  0.86859000  0.85036300  0.61540800  1
  N  1683  1  0.18203700  0.86240900  0.42622400  1
  N  1684  1  0.16774600  0.85036800  0.42317900  1
  N  1700  1  0.85424300  0.17407000  0.42596500  1
  N  1701  1  0.86855600  0.18607300  0.42288700  1
  N  1717  1  0.17405700  0.42503900  0.85525000  1
  N  1718  1  0.18608600  0.42201700  0.86955600  1
  N  1734  1  0.86229700  0.42510200  0.18323400  1
  N  1735  1  0.85028200  0.42206600  0.16892100  1
  N  1751  1  0.86230200  0.61135400  0.85530100  1
  N  1752  1  0.85026600  0.61437900  0.86960100  1
  N  1768  1  0.17394800  0.61126500  0.18316000  1
  N  1769  1  0.18598300  0.61429800  0.16886100  1
  N  1785  1  0.42506100  0.18209100  0.86355300  1
  N  1786  1  0.42203000  0.16779800  0.85151100  1
  N  1802  1  0.42511200  0.85429200  0.17513000  1
  N  1803  1  0.42207100  0.86858400  0.18717100  1
  N  1819  1  0.61123900  0.18207900  0.17514000  1
  N  1820  1  0.61427900  0.16778300  0.18717700  1
  N  1836  1  0.61123900  0.85426000  0.86341000  1
  N  1837  1  0.61427300  0.86856800  0.85138500  1
  N  1853  1  0.66874800  0.67848500  0.91888500  1
  N  1854  1  0.68236700  0.66572100  0.91579900  1
  N  1870  1  0.36779300  0.35810100  0.91873200  1
  N  1871  1  0.35412900  0.37082100  0.91566500  1
  N  1887  1  0.36756600  0.67844900  0.11963900  1
  N  1888  1  0.35394300  0.66568800  0.12271700  1
  N  1904  1  0.66868800  0.35800700  0.11972300  1
  N  1905  1  0.68232600  0.37075300  0.12278800  1
  N  1921  1  0.91755300  0.66852000  0.67930600  1
  N  1922  1  0.91450400  0.68219400  0.66659300  1
  N  1938  1  0.91782200  0.36786800  0.35934100  1
  N  1939  1  0.91474700  0.35422800  0.37208400  1
  N  1955  1  0.11874200  0.36805400  0.67903900  1
  N  1956  1  0.12179700  0.35437500  0.66632900  1
  N  1972  1  0.11857900  0.66877900  0.35899900  1
  N  1973  1  0.12166500  0.68240300  0.37175900  1
  N  1989  1  0.67843800  0.91783500  0.66987200  1
  N  1990  1  0.66567300  0.91475800  0.68349100  1
  N  2006  1  0.35793600  0.91778600  0.36875100  1
  N  2007  1  0.37069700  0.91469500  0.35512900  1
  N  2023  1  0.67842100  0.11858800  0.36874400  1
  N  2024  1  0.66566200  0.12167200  0.35512000  1
  N  2040  1  0.35799200  0.11866400  0.66980800  1
  N  2041  1  0.37074000  0.12174400  0.68344300  1
  N  2057  1  0.67832800  0.66866900  0.11969400  1
  N  2058  1  0.66557600  0.68230000  0.12277400  1
  N  2074  1  0.35802100  0.36772400  0.11972700  1
  N  2075  1  0.37077100  0.35409300  0.12282100  1
  N  2091  1  0.67810400  0.36786600  0.91893300  1
  N  2092  1  0.66535800  0.35422600  0.91586300  1
  N  2108  1  0.35792700  0.66876500  0.91884100  1
  N  2109  1  0.37068800  0.68238700  0.91575600  1
  N  2125  1  0.66874900  0.91780300  0.35904400  1
  N  2126  1  0.68236800  0.91472400  0.37181000  1
  N  2142  1  0.36760400  0.91786200  0.67955700  1
  N  2143  1  0.35397900  0.91478100  0.66679700  1
  N  2159  1  0.36760700  0.11859000  0.35907300  1
  N  2160  1  0.35398600  0.12168400  0.37183400  1
  N  2176  1  0.66864100  0.11862700  0.67947600  1
  N  2177  1  0.68227700  0.12170000  0.66666667  1
  N  2193  1  0.91776700  0.67840800  0.36875100  1
  N  2194  1  0.91469500  0.66565700  0.35511800  1
  N  2210  1  0.91762200  0.35843800  0.66941900  1
  N  2211  1  0.91457000  0.37114400  0.68310000  1
  N  2227  1  0.11853400  0.67814900  0.66961000  1
  N  2228  1  0.12161500  0.66540100  0.68324800  1
  N  2244  1  0.11878100  0.35809900  0.36888300  1
  N  2245  1  0.12183600  0.37082400  0.35522000  1
  N  2261  1  0.23571200  0.02484400  0.42675300  1
  N  2262  1  0.23551900  0.00633600  0.42288800  1
  N  2278  1  0.80066100  0.01155700  0.42674700  1
  N  2279  1  0.80083400  0.03006300  0.42287600  1
  N  2295  1  0.80065800  0.02487000  0.61185300  1
  N  2296  1  0.80084700  0.00636100  0.61571400  1
  N  2312  1  0.23571400  0.01152900  0.61188600  1
  N  2313  1  0.23554400  0.03003700  0.61575100  1
  N  2329  1  0.42557300  0.23580300  0.02599100  1
  N  2330  1  0.42170900  0.23559300  0.00748500  1
  N  2346  1  0.42558900  0.80060400  0.01267200  1
  N  2347  1  0.42173800  0.80082300  0.03118200  1
  N  2363  1  0.61075200  0.80065000  0.02593400  1
  N  2364  1  0.61460500  0.80086300  0.00742500  1
  N  2380  1  0.61090700  0.23570900  0.01266600  1
  N  2381  1  0.61474100  0.23554500  0.03118100  1
  N  2397  1  0.02478900  0.42562700  0.23688600  1
  N  2398  1  0.00628100  0.42176200  0.23669000  1
  N  2414  1  0.01151100  0.42541300  0.80166800  1
  N  2415  1  0.03002500  0.42157300  0.80184900  1
  N  2431  1  0.02484300  0.61098900  0.80175400  1
  N  2432  1  0.00633000  0.61483200  0.80192700  1
  N  2448  1  0.01149200  0.61081700  0.23679100  1
  N  2449  1  0.03000000  0.61467700  0.23661600  1
  N  2465  1  0.02482800  0.23585200  0.61212500  1
  N  2466  1  0.00631300  0.23565200  0.61595900  1
  N  2482  1  0.01153700  0.80057900  0.61190200  1
  N  2483  1  0.03004800  0.80079600  0.61574900  1
  N  2499  1  0.02480300  0.80064100  0.42668200  1
  N  2500  1  0.00629300  0.80085200  0.42282700  1
  N  2516  1  0.01150800  0.23571200  0.42648300  1
  N  2517  1  0.03001900  0.23555100  0.42263300  1
  N  2533  1  0.23573800  0.42562400  0.01260600  1
  N  2534  1  0.23553200  0.42176400  0.03111400  1
  N  2550  1  0.80064300  0.42561000  0.02588900  1
  N  2551  1  0.80081300  0.42174200  0.00738100  1
  N  2567  1  0.80064300  0.61074000  0.01260500  1
  N  2568  1  0.80082800  0.61460200  0.03111400  1
  N  2584  1  0.23569700  0.61078400  0.02593300  1
  N  2585  1  0.23553200  0.61465200  0.00742700  1
  N  2601  1  0.42556500  0.02485400  0.80173600  1
  N  2602  1  0.42171200  0.00634400  0.80194600  1
  N  2618  1  0.42559800  0.01154100  0.23688800  1
  N  2619  1  0.42174800  0.03005100  0.23666900  1
  N  2635  1  0.61075500  0.02481900  0.23687300  1
  N  2636  1  0.61460900  0.00631000  0.23666400  1
  N  2652  1  0.61071400  0.01156100  0.80179700  1
  N  2653  1  0.61458900  0.03006700  0.80196600  1
  N  2669  1  0.73947000  0.52365800  0.91721300  1
  N  2670  1  0.73834800  0.50518000  0.91347900  1
  N  2686  1  0.29682400  0.51275900  0.91715500  1
  N  2687  1  0.29794400  0.53123800  0.91342500  1
  N  2703  1  0.29685700  0.52362900  0.12128100  1
  N  2704  1  0.29796700  0.50515300  0.12502300  1
  N  2720  1  0.73957100  0.51273800  0.12137000  1
  N  2721  1  0.73842800  0.53121400  0.12509800  1
  N  2737  1  0.91600900  0.73963300  0.52470800  1
  N  2738  1  0.91229200  0.73848300  0.50622900  1
  N  2754  1  0.91732100  0.30113100  0.51407000  1
  N  2755  1  0.91371000  0.30231200  0.53256900  1
  N  2771  1  0.11911800  0.30108800  0.52446100  1
  N  2772  1  0.12272100  0.30226700  0.50596000  1
  N  2788  1  0.12023100  0.73950400  0.51380800  1
  N  2789  1  0.12396500  0.73838700  0.53228500  1
  N  2805  1  0.52361000  0.91618700  0.74058700  1
  N  2806  1  0.50513400  0.91244100  0.73948700  1
  N  2822  1  0.51273800  0.91609900  0.29800700  1
  N  2823  1  0.53121600  0.91236900  0.29912700  1
  N  2839  1  0.52361700  0.12022200  0.29803300  1
  N  2840  1  0.50514100  0.12395700  0.29915000  1
  N  2856  1  0.51271000  0.12036500  0.74072700  1
  N  2857  1  0.53118500  0.12409300  0.73960100  1
  N  2873  1  0.52358700  0.73955800  0.12140700  1
  N  2874  1  0.50511100  0.73840900  0.12513200  1
  N  2890  1  0.51274600  0.29678600  0.12152300  1
  N  2891  1  0.53122400  0.29792300  0.12524400  1
  N  2907  1  0.52337700  0.30112200  0.91844300  1
  N  2908  1  0.50487800  0.30229700  0.91482700  1
  N  2924  1  0.51272000  0.73951700  0.91719300  1
  N  2925  1  0.53119700  0.73840900  0.91345700  1
  N  2941  1  0.73949700  0.91613800  0.51387000  1
  N  2942  1  0.73837700  0.91239900  0.53234600  1
  N  2958  1  0.29687200  0.91617000  0.52474400  1
  N  2959  1  0.29798600  0.91242700  0.50626800  1
  N  2975  1  0.29684300  0.12029000  0.51386800  1
  N  2976  1  0.29796000  0.12402400  0.53234400  1
  N  2992  1  0.73955800  0.12031700  0.52475300  1
  N  2993  1  0.73842500  0.12404700  0.50627700  1
  N  3009  1  0.91607000  0.52365200  0.29787800  1
  N  3010  1  0.91233900  0.50517600  0.29902400  1
  N  3026  1  0.91725200  0.51301000  0.73638200  1
  N  3027  1  0.91365200  0.53151100  0.73519700  1
  N  3043  1  0.11904400  0.52341600  0.73633300  1
  N  3044  1  0.12265100  0.50491600  0.73514400  1
  N  3060  1  0.12028300  0.51276200  0.29792800  1
  N  3061  1  0.12401600  0.53123900  0.29903300  1
  O  1453  1  0.16436300  0.19930800  0.36596000  1
  O  1470  1  0.87195800  0.83705800  0.36604700  1
  O  1487  1  0.87198400  0.19934700  0.67262100  1
  O  1504  1  0.16449900  0.83720400  0.67278100  1
  O  1521  1  0.36471300  0.16450900  0.20030800  1
  O  1538  1  0.36454800  0.87197200  0.83842000  1
  O  1555  1  0.67179500  0.87196400  0.20019800  1
  O  1572  1  0.67160500  0.16423900  0.83814300  1
  O  1589  1  0.19929500  0.36497000  0.16545800  1
  O  1606  1  0.83696500  0.36475600  0.87319200  1
  O  1623  1  0.19938200  0.67162800  0.87321800  1
  O  1640  1  0.83715500  0.67168200  0.16557800  1
  O  1657  1  0.19921000  0.16440500  0.67293200  1
  O  1674  1  0.83728000  0.87199100  0.67292300  1
  O  1691  1  0.19906500  0.87199300  0.36566200  1
  O  1708  1  0.83699700  0.16422400  0.36584300  1
  O  1725  1  0.16434900  0.36486500  0.83813000  1
  O  1742  1  0.87198100  0.36495300  0.20043700  1
  O  1759  1  0.87197800  0.67152500  0.83814800  1
  O  1776  1  0.16449000  0.67167700  0.20024900  1
  O  1793  1  0.36464300  0.19916500  0.87301500  1
  O  1810  1  0.36454400  0.83729900  0.16553200  1
  O  1827  1  0.67180900  0.19907400  0.16553800  1
  O  1844  1  0.67140300  0.83708700  0.87312500  1
  O  1861  1  0.66584100  0.70280400  0.85966800  1
  O  1878  1  0.37056700  0.33362400  0.85957600  1
  O  1895  1  0.37044700  0.70276100  0.17886200  1
  O  1912  1  0.66615200  0.33366600  0.17911800  1
  O  1929  1  0.85821400  0.66609800  0.70378700  1
  O  1946  1  0.85829800  0.37029500  0.33491400  1
  O  1963  1  0.17820600  0.37035700  0.70360300  1
  O  1980  1  0.17778700  0.66588700  0.33466400  1
  O  1997  1  0.70276500  0.85862100  0.66701400  1
  O  2014  1  0.33357200  0.85858600  0.37164000  1
  O  2031  1  0.70277400  0.17779500  0.37160100  1
  O  2048  1  0.33362100  0.17804400  0.66724000  1
  O  2065  1  0.70272000  0.66613300  0.17906700  1
  O  2082  1  0.33370300  0.37037000  0.17928000  1
  O  2099  1  0.70252900  0.37026300  0.85941100  1
  O  2116  1  0.33356100  0.66591200  0.85964400  1
  O  2133  1  0.66589600  0.85858900  0.33471200  1
  O  2150  1  0.37048100  0.85865100  0.70389400  1
  O  2167  1  0.37050500  0.17779200  0.33471300  1
  O  2184  1  0.66611900  0.17800800  0.70385300  1
  O  2201  1  0.85837200  0.70274600  0.37131200  1
  O  2218  1  0.85815700  0.33386700  0.66713000  1
  O  2235  1  0.17805600  0.70256800  0.66715500  1
  O  2252  1  0.17794300  0.33364000  0.37161600  1
  O  2269  1  0.18784400  0.04317700  0.38968400  1
  O  2286  1  0.84854700  0.99326800  0.38968400  1
  O  2303  1  0.84852400  0.04318300  0.64893200  1
  O  2320  1  0.18770600  0.99345400  0.64919200  1
  O  2337  1  0.38832100  0.18778100  0.04415600  1
  O  2354  1  0.38809600  0.84861200  0.99448900  1
  O  2371  1  0.64829400  0.84862300  0.04411600  1
  O  2388  1  0.64793500  0.18775200  0.99448500  1
  O  2405  1  0.04312900  0.38858300  0.18900200  1
  O  2422  1  0.99330000  0.38847700  0.84968300  1
  O  2439  1  0.04305800  0.64796400  0.84973300  1
  O  2456  1  0.99341700  0.64811300  0.18877500  1
  O  2473  1  0.04288100  0.18772800  0.64929200  1
  O  2490  1  0.99337100  0.84860800  0.64937800  1
  O  2507  1  0.04297800  0.84863900  0.38916800  1
  O  2524  1  0.99331300  0.18771600  0.38951400  1
  O  2541  1  0.18786100  0.38857800  0.99425300  1
  O  2558  1  0.84852900  0.38854300  0.04417100  1
  O  2575  1  0.84852800  0.64779900  0.99430500  1
  O  2592  1  0.18768600  0.64808600  0.04400600  1
  O  2609  1  0.38826400  0.04300000  0.84972900  1
  O  2626  1  0.38810900  0.99336300  0.18887400  1
  O  2643  1  0.64826400  0.04299100  0.18886900  1
  O  2660  1  0.64780900  0.99325900  0.84965800  1
  O  2677  1  0.69168500  0.54351200  0.88019500  1
  O  2694  1  0.34461700  0.49292100  0.88014000  1
  O  2711  1  0.34459600  0.54348600  0.15835200  1
  O  2728  1  0.69163600  0.49307300  0.15861200  1
  O  2745  1  0.87878000  0.69167800  0.54436000  1
  O  2762  1  0.85688500  0.30020200  0.49333400  1
  O  2779  1  0.17956300  0.30020400  0.54517600  1
  O  2796  1  0.15723900  0.69170900  0.49396600  1
  O  2813  1  0.54345200  0.87911700  0.69283900  1
  O  2830  1  0.49288500  0.87903600  0.34575700  1
  O  2847  1  0.54347300  0.15730100  0.34577000  1
  O  2864  1  0.49308900  0.15754700  0.69273200  1
  O  2881  1  0.54326100  0.69163100  0.15866400  1
  O  2898  1  0.49310400  0.34484200  0.15884200  1
  O  2915  1  0.54412700  0.30020800  0.85800800  1
  O  2932  1  0.49289400  0.69171200  0.88019200  1
  O  2949  1  0.69173500  0.87908900  0.49400800  1
  O  2966  1  0.34461500  0.87911100  0.54461200  1
  O  2983  1  0.34462100  0.15732000  0.49402200  1
  O  3000  1  0.69159100  0.15752800  0.54439600  1
  O  3017  1  0.87883300  0.54333100  0.34581500  1
  O  3034  1  0.85681000  0.49229600  0.73724900  1
  O  3051  1  0.17948700  0.54413900  0.73724900  1
  O  3068  1  0.15729400  0.49295000  0.34573500  1
