# generated using pymatgen
data_H24C37(N2O)2
_symmetry_space_group_name_H-M   'P 1'
_cell_length_a   62.96550000
_cell_length_b   62.96550000
_cell_length_c   64.63700000
_cell_angle_alpha   90.00000000
_cell_angle_beta   90.00000000
_cell_angle_gamma   120.00000000
_symmetry_Int_Tables_number   1
_chemical_formula_structural   H24C37(N2O)2
_chemical_formula_sum   'H864 C1332 N144 O72'
_cell_volume   221930.57366621
_cell_formula_units_Z   36
loop_
 _symmetry_equiv_pos_site_id
 _symmetry_equiv_pos_as_xyz
  1  'x, y, z'
loop_
 _atom_site_type_symbol
 _atom_site_label
 _atom_site_symmetry_multiplicity
 _atom_site_fract_x
 _atom_site_fract_y
 _atom_site_fract_z
 _atom_site_occupancy
  H  26  1  0.97588100  0.28126100  0.88501900  1
  H  27  1  0.96528700  0.24404000  0.90227300  1
  H  28  1  0.05083500  0.30231100  0.88969000  1
  H  29  1  0.04019800  0.26566800  0.90705300  1
  H  30  1  0.03584300  0.24864100  0.94226300  1
  H  31  1  0.03893000  0.25926300  0.97750800  1
  H  32  1  0.96388000  0.23827500  0.97820400  1
  H  33  1  0.96118000  0.22871500  0.94244200  1
  H  34  1  0.96326600  0.18683800  0.94080700  1
  H  35  1  0.92643200  0.15098800  0.93220100  1
  H  36  1  0.93407800  0.17451900  0.87011500  1
  H  37  1  0.97112700  0.21095600  0.87890900  1
  H  38  1  0.02001300  0.22762100  0.88032100  1
  H  39  1  0.00727100  0.19711100  0.94025900  1
  H  40  1  0.03691300  0.18514200  0.93454700  1
  H  41  1  0.05056700  0.21680400  0.87499200  1
  H  67  1  0.29144000  0.02499600  0.88524500  1
  H  68  1  0.26479800  0.03561100  0.90245200  1
  H  69  1  0.23732000  0.95008400  0.88954700  1
  H  70  1  0.21130400  0.96073900  0.90686100  1
  H  71  1  0.19880800  0.96504300  0.94210000  1
  H  72  1  0.20626300  0.96181600  0.97733600  1
  H  73  1  0.26009600  0.03694000  0.97831300  1
  H  74  1  0.25333800  0.03977700  0.94255400  1
  H  75  1  0.20942900  0.03767800  0.94070300  1
  H  76  1  0.21043100  0.07451200  0.93205800  1
  H  77  1  0.22662600  0.06694400  0.87004900  1
  H  78  1  0.22599000  0.02990200  0.87888700  1
  H  79  1  0.19356600  0.98108700  0.88025100  1
  H  80  1  0.17579300  0.99361300  0.94026200  1
  H  81  1  0.13420400  0.96394200  0.93454200  1
  H  82  1  0.15221700  0.95050500  0.87491300  1
  H  108  1  0.71971900  0.70951100  0.88513600  1
  H  109  1  0.75698200  0.73617500  0.90231100  1
  H  110  1  0.69868700  0.76342900  0.88978800  1
  H  111  1  0.73537500  0.78946900  0.90707100  1
  H  112  1  0.75253400  0.80232100  0.94221100  1
  H  113  1  0.74178600  0.79477100  0.97742800  1
  H  114  1  0.76254500  0.74053800  0.97820400  1
  H  115  1  0.77223700  0.74742100  0.94247200  1
  H  116  1  0.81421300  0.79133300  0.94078300  1
  H  117  1  0.85004400  0.79032000  0.93216500  1
  H  118  1  0.82649100  0.77446200  0.87008300  1
  H  119  1  0.79007400  0.77509700  0.87889500  1
  H  120  1  0.77335700  0.80724600  0.88026500  1
  H  121  1  0.80403400  0.82518500  0.94013500  1
  H  122  1  0.81592600  0.86676500  0.93437200  1
  H  123  1  0.78413000  0.84859900  0.87487500  1
  H  149  1  0.69974700  0.72791400  0.16959000  1
  H  150  1  0.72618200  0.76446300  0.15167700  1
  H  151  1  0.74903100  0.70204300  0.15828700  1
  H  152  1  0.77486000  0.73819300  0.14005700  1
  H  153  1  0.78911000  0.75938300  0.10330700  1
  H  154  1  0.77931200  0.75238700  0.06756800  1
  H  155  1  0.72148100  0.76708000  0.07641100  1
  H  156  1  0.73152200  0.77450800  0.11205300  1
  H  157  1  0.77784100  0.81771500  0.10805500  1
  H  158  1  0.77765200  0.85408200  0.11615100  1
  H  159  1  0.76716600  0.83426300  0.17928400  1
  H  160  1  0.76720800  0.79734800  0.17105600  1
  H  161  1  0.79612900  0.77645900  0.16810900  1
  H  162  1  0.81200500  0.80799600  0.10849600  1
  H  163  1  0.85404100  0.82102900  0.11345300  1
  H  164  1  0.83800500  0.78874300  0.17279200  1
  H  190  1  0.27229400  0.98679400  0.16955300  1
  H  191  1  0.23574700  0.97664600  0.15162600  1
  H  192  1  0.29800100  0.06195100  0.15841700  1
  H  193  1  0.26186300  0.05159800  0.14016200  1
  H  194  1  0.24093700  0.04456500  0.10334600  1
  H  195  1  0.24801000  0.04173500  0.06762900  1
  H  196  1  0.23287000  0.96907600  0.07649300  1
  H  197  1  0.22536400  0.97171500  0.11210700  1
  H  198  1  0.18226700  0.97505100  0.10820200  1
  H  199  1  0.14588800  0.93853500  0.11637900  1
  H  200  1  0.16599800  0.94783200  0.17944300  1
  H  201  1  0.20291300  0.98474900  0.17113700  1
  H  202  1  0.22348000  0.03442300  0.16815200  1
  H  203  1  0.19229900  0.01902600  0.10840500  1
  H  204  1  0.17929900  0.04805500  0.11333200  1
  H  205  1  0.21122200  0.06403600  0.17280900  1
  H  231  1  0.01346900  0.30033100  0.16961400  1
  H  232  1  0.02359700  0.27390600  0.15171400  1
  H  233  1  0.93832300  0.25107200  0.15823600  1
  H  234  1  0.94866300  0.22525700  0.14001100  1
  H  235  1  0.95573500  0.21121400  0.10322700  1
  H  236  1  0.95868200  0.22114300  0.06751200  1
  H  237  1  0.03126300  0.27875700  0.07655800  1
  H  238  1  0.02850700  0.26858000  0.11217200  1
  H  239  1  0.02517200  0.22211000  0.10815900  1
  H  240  1  0.06168000  0.22223400  0.11632300  1
  H  241  1  0.05233400  0.23290500  0.17941100  1
  H  242  1  0.01542300  0.23292300  0.17111500  1
  H  243  1  0.96570000  0.20397700  0.16810600  1
  H  244  1  0.98119000  0.18810500  0.10842300  1
  H  245  1  0.95209600  0.14609100  0.11335900  1
  H  246  1  0.93603400  0.16212700  0.17276600  1
  H  272  1  0.01133700  0.72626100  0.16229800  1
  H  273  1  0.02216500  0.76292600  0.14373600  1
  H  274  1  0.93867200  0.71255300  0.16751000  1
  H  275  1  0.94931800  0.74839200  0.14886600  1
  H  276  1  0.95455300  0.75204800  0.10942000  1
  H  277  1  0.95173300  0.74071700  0.07423400  1
  H  278  1  0.02898000  0.77845400  0.07003700  1
  H  279  1  0.03177900  0.78906900  0.10552100  1
  H  280  1  0.02122700  0.82577500  0.11047500  1
  H  281  1  0.05792900  0.86214700  0.11830200  1
  H  282  1  0.06006700  0.83339200  0.17679900  1
  H  283  1  0.02287000  0.79698900  0.16903100  1
  H  284  1  0.97616400  0.79275400  0.16841400  1
  H  285  1  0.97416600  0.80228300  0.10400200  1
  H  286  1  0.94386000  0.81334900  0.10861800  1
  H  287  1  0.94552000  0.80365400  0.17313900  1
  H  313  1  0.70009100  0.98880000  0.16229700  1
  H  314  1  0.72592200  0.97798800  0.14369900  1
  H  315  1  0.75907700  0.06143700  0.16760500  1
  H  316  1  0.78426500  0.05081000  0.14893300  1
  H  317  1  0.78262100  0.04566800  0.10947700  1
  H  318  1  0.77421000  0.04859400  0.07430200  1
  H  319  1  0.73480200  0.97137200  0.06988800  1
  H  320  1  0.74250400  0.96844300  0.10538500  1
  H  321  1  0.78968700  0.97898000  0.11035400  1
  H  322  1  0.78934700  0.94225700  0.11809800  1
  H  323  1  0.75852000  0.94002300  0.17664800  1
  H  324  1  0.75930600  0.97723100  0.16895700  1
  H  325  1  0.80182400  0.02388600  0.16834300  1
  H  326  1  0.81321800  0.02607300  0.10390100  1
  H  327  1  0.85459400  0.05637200  0.10849000  1
  H  328  1  0.84338000  0.05451100  0.17304700  1
  H  354  1  0.27400100  0.30001100  0.16245400  1
  H  355  1  0.23738800  0.27422200  0.14380900  1
  H  356  1  0.28761100  0.24099600  0.16774200  1
  H  357  1  0.25183400  0.21585100  0.14900900  1
  H  358  1  0.24833000  0.21749700  0.10954000  1
  H  359  1  0.25971600  0.22597300  0.07437000  1
  H  360  1  0.22202300  0.26551000  0.07002300  1
  H  361  1  0.21133400  0.25771600  0.10550900  1
  H  362  1  0.17463100  0.21051700  0.11041100  1
  H  363  1  0.13823300  0.21082500  0.11817600  1
  H  364  1  0.16679900  0.24155100  0.17675900  1
  H  365  1  0.20323100  0.24079000  0.16905000  1
  H  366  1  0.20737900  0.19830100  0.16840900  1
  H  367  1  0.19814900  0.18694200  0.10396300  1
  H  368  1  0.18702200  0.14555100  0.10853300  1
  H  369  1  0.19640300  0.15673100  0.17309200  1
  H  395  1  0.29107300  0.28435000  0.88483800  1
  H  396  1  0.26434700  0.24725700  0.90230300  1
  H  397  1  0.23762900  0.30595200  0.88962500  1
  H  398  1  0.21136300  0.26929200  0.90714300  1
  H  399  1  0.20655800  0.25565400  0.94609400  1
  H  400  1  0.21681500  0.26209500  0.98180100  1
  H  401  1  0.26450200  0.23379400  0.97374300  1
  H  402  1  0.25344000  0.22639800  0.93836800  1
  H  403  1  0.20212700  0.18734600  0.93867100  1
  H  404  1  0.20148200  0.15075500  0.92987600  1
  H  405  1  0.22889300  0.17909200  0.87044600  1
  H  406  1  0.22874300  0.21574400  0.87913100  1
  H  407  1  0.19182000  0.22689400  0.88120700  1
  H  408  1  0.17723400  0.20820700  0.94431700  1
  H  409  1  0.13573300  0.19670300  0.93915800  1
  H  410  1  0.15012600  0.21520100  0.87591400  1
  H  436  1  0.71664100  0.02163400  0.88475700  1
  H  437  1  0.75374500  0.03199300  0.90220400  1
  H  438  1  0.69501700  0.94658400  0.88955500  1
  H  439  1  0.73168300  0.95696900  0.90705400  1
  H  440  1  0.74525800  0.96577300  0.94601600  1
  H  441  1  0.73868200  0.96957100  0.98169000  1
  H  442  1  0.76697600  0.04555800  0.97362100  1
  H  443  1  0.77451400  0.04191700  0.93828300  1
  H  444  1  0.81357900  0.02961900  0.93866000  1
  H  445  1  0.85018600  0.06557500  0.92993000  1
  H  446  1  0.82197600  0.06474600  0.87046300  1
  H  447  1  0.78530100  0.02793600  0.87908700  1
  H  448  1  0.77415300  0.97988300  0.88113100  1
  H  449  1  0.79268100  0.98384300  0.94426800  1
  H  450  1  0.80417700  0.95384000  0.93910000  1
  H  451  1  0.78585000  0.94988400  0.87582600  1
  H  477  1  0.97929100  0.70987200  0.88463000  1
  H  478  1  0.96893500  0.73659900  0.90210700  1
  H  479  1  0.05436000  0.76315900  0.88968900  1
  H  480  1  0.04397400  0.78942600  0.90721900  1
  H  481  1  0.03510100  0.79435900  0.94616300  1
  H  482  1  0.03114200  0.78400300  0.98185500  1
  H  483  1  0.95523500  0.73612800  0.97353900  1
  H  484  1  0.95901700  0.74730500  0.93819300  1
  H  485  1  0.97128100  0.79869800  0.93869800  1
  H  486  1  0.93533400  0.79935800  0.92994300  1
  H  487  1  0.93630500  0.77215800  0.87042900  1
  H  488  1  0.97310700  0.77228400  0.87907800  1
  H  489  1  0.02121200  0.80905400  0.88117300  1
  H  490  1  0.01701700  0.82363800  0.94426800  1
  H  491  1  0.04700000  0.86514500  0.93911700  1
  H  492  1  0.05119600  0.85076900  0.87588900  1
  H  518  1  0.30974900  0.94797500  0.55213400  1
  H  519  1  0.29919200  0.91089300  0.56960400  1
  H  520  1  0.38469800  0.96898300  0.55667600  1
  H  521  1  0.37409900  0.93249900  0.57426700  1
  H  522  1  0.36977900  0.91607200  0.60967700  1
  H  523  1  0.37291900  0.92722600  0.64477600  1
  H  524  1  0.29772000  0.90566400  0.64545200  1
  H  525  1  0.29499400  0.89566800  0.60981600  1
  H  526  1  0.29730300  0.85387700  0.60846900  1
  H  527  1  0.26037800  0.81801700  0.60007200  1
  H  528  1  0.26779100  0.84111900  0.53787900  1
  H  529  1  0.30489500  0.87757500  0.54647200  1
  H  530  1  0.35369700  0.89408300  0.54783100  1
  H  531  1  0.34150800  0.86452400  0.60810300  1
  H  532  1  0.37124300  0.85265400  0.60254500  1
  H  533  1  0.38434700  0.88336100  0.54264300  1
  H  559  1  0.62510400  0.69193800  0.55214900  1
  H  560  1  0.59858300  0.70249400  0.56963500  1
  H  561  1  0.57115500  0.61699100  0.55667200  1
  H  562  1  0.54526500  0.62758900  0.57426100  1
  H  563  1  0.53307300  0.63184500  0.60960600  1
  H  564  1  0.54097300  0.62860400  0.64471700  1
  H  565  1  0.59464100  0.70378800  0.64555900  1
  H  566  1  0.58749400  0.70660900  0.60990700  1
  H  567  1  0.54348400  0.70440900  0.60848900  1
  H  568  1  0.54457800  0.74135100  0.60009900  1
  H  569  1  0.56024700  0.73392500  0.53790100  1
  H  570  1  0.55957400  0.69680900  0.54648900  1
  H  571  1  0.52728300  0.64798900  0.54781900  1
  H  572  1  0.50985500  0.66022800  0.60805400  1
  H  573  1  0.46825600  0.63046300  0.60248100  1
  H  574  1  0.48592200  0.61732400  0.54262200  1
  H  600  1  0.05366500  0.37656200  0.55199200  1
  H  601  1  0.09073300  0.40309700  0.56947900  1
  H  602  1  0.03262600  0.43048200  0.55650000  1
  H  603  1  0.06910800  0.45638700  0.57409700  1
  H  604  1  0.08552700  0.46854900  0.60948800  1
  H  605  1  0.07434100  0.46057800  0.64458900  1
  H  606  1  0.09581800  0.40688300  0.64536500  1
  H  607  1  0.10587000  0.41412600  0.60973300  1
  H  608  1  0.14767900  0.45817400  0.60838700  1
  H  609  1  0.18355800  0.45712600  0.60002000  1
  H  610  1  0.16054700  0.44151300  0.53779900  1
  H  611  1  0.12407400  0.44214100  0.54636300  1
  H  612  1  0.10750700  0.47440600  0.54770200  1
  H  613  1  0.13710600  0.49177100  0.60796000  1
  H  614  1  0.14892500  0.53338500  0.60241900  1
  H  615  1  0.11817000  0.51575900  0.54253700  1
  H  641  1  0.03580400  0.39872400  0.84115700  1
  H  642  1  0.06161700  0.43388400  0.82087000  1
  H  643  1  0.08044100  0.36836100  0.82653100  1
  H  644  1  0.10630700  0.40348600  0.80648700  1
  H  645  1  0.12336700  0.42651500  0.76989300  1
  H  646  1  0.11308100  0.41922400  0.73429000  1
  H  647  1  0.05384900  0.43153800  0.74402600  1
  H  648  1  0.06438700  0.43932200  0.77957500  1
  H  649  1  0.10960200  0.48284400  0.77381400  1
  H  650  1  0.10992200  0.51961100  0.78126000  1
  H  651  1  0.10534300  0.50387100  0.84512700  1
  H  652  1  0.10459100  0.46644900  0.83755600  1
  H  653  1  0.12963300  0.44130200  0.83464700  1
  H  654  1  0.14586000  0.47497200  0.77586000  1
  H  655  1  0.18786900  0.48761900  0.78069500  1
  H  656  1  0.17136100  0.45313000  0.83914000  1
  H  682  1  0.60221900  0.65191900  0.84131700  1
  H  683  1  0.56706900  0.64256800  0.82100500  1
  H  684  1  0.63257100  0.72692400  0.82670900  1
  H  685  1  0.59746500  0.71765900  0.80663200  1
  H  686  1  0.57456300  0.71168200  0.76999800  1
  H  687  1  0.58196700  0.70868600  0.73441400  1
  H  688  1  0.56961900  0.63712800  0.74423800  1
  H  689  1  0.56170500  0.63990500  0.77976800  1
  H  690  1  0.51816200  0.64163400  0.77388500  1
  H  691  1  0.48138800  0.60517800  0.78129400  1
  H  692  1  0.49704400  0.61628300  0.84517700  1
  H  693  1  0.53447200  0.65296200  0.83764400  1
  H  694  1  0.55958300  0.70312500  0.83475600  1
  H  695  1  0.52610600  0.68580200  0.77589000  1
  H  696  1  0.51348400  0.71518700  0.78069400  1
  H  697  1  0.54777800  0.73304200  0.83921700  1
  H  723  1  0.34894500  0.96510300  0.84137300  1
  H  724  1  0.35834200  0.93932400  0.82108200  1
  H  725  1  0.27399500  0.92055300  0.82653600  1
  H  726  1  0.28330500  0.89472200  0.80649300  1
  H  727  1  0.28939600  0.87777400  0.76986400  1
  H  728  1  0.29254300  0.88819300  0.73428700  1
  H  729  1  0.36403500  0.94744900  0.74431300  1
  H  730  1  0.36109900  0.93673000  0.77983700  1
  H  731  1  0.35934000  0.89139700  0.77389600  1
  H  732  1  0.39576800  0.89104300  0.78132000  1
  H  733  1  0.38460500  0.89554800  0.84519700  1
  H  734  1  0.34794900  0.89633300  0.83764100  1
  H  735  1  0.29775500  0.87131700  0.83468700  1
  H  736  1  0.31519000  0.85519800  0.77585400  1
  H  737  1  0.28581100  0.81318800  0.78063300  1
  H  738  1  0.26785200  0.82958800  0.83913100  1
  H  764  1  0.34878100  0.39648500  0.83308000  1
  H  765  1  0.35790400  0.43129900  0.81230900  1
  H  766  1  0.27460700  0.37841700  0.83566500  1
  H  767  1  0.28375200  0.41308400  0.81552000  1
  H  768  1  0.28814500  0.41778100  0.77657200  1
  H  769  1  0.28523400  0.40627100  0.74143300  1
  H  770  1  0.36246700  0.44269100  0.73744000  1
  H  771  1  0.36532600  0.45353500  0.77288800  1
  H  772  1  0.35498700  0.49046600  0.77590200  1
  H  773  1  0.39146900  0.52740300  0.78290800  1
  H  774  1  0.39286700  0.50233900  0.84323200  1
  H  775  1  0.35605700  0.46530500  0.83616800  1
  H  776  1  0.30925000  0.45764000  0.83537700  1
  H  777  1  0.30812700  0.46805500  0.77102600  1
  H  778  1  0.27773900  0.47906200  0.77553700  1
  H  779  1  0.27851100  0.46837800  0.83999200  1
  H  805  1  0.03373100  0.65210600  0.83293800  1
  H  806  1  0.05945600  0.64303100  0.81215900  1
  H  807  1  0.08987700  0.72624700  0.83573800  1
  H  808  1  0.11542400  0.71715300  0.81557800  1
  H  809  1  0.11565600  0.71281500  0.77659200  1
  H  810  1  0.10712400  0.71578800  0.74144800  1
  H  811  1  0.06648500  0.63856900  0.73729600  1
  H  812  1  0.07441000  0.63563100  0.77274800  1
  H  813  1  0.12163600  0.64598500  0.77586200  1
  H  814  1  0.12208900  0.60950000  0.78287800  1
  H  815  1  0.09549600  0.60804600  0.84315900  1
  H  816  1  0.09527200  0.64484900  0.83609100  1
  H  817  1  0.13450800  0.69164500  0.83531900  1
  H  818  1  0.14599500  0.69289100  0.77095000  1
  H  819  1  0.18738000  0.72330100  0.77545400  1
  H  820  1  0.17598800  0.72241300  0.83992400  1
  H  846  1  0.60444900  0.96716700  0.83305500  1
  H  847  1  0.56963600  0.94145500  0.81228400  1
  H  848  1  0.62248500  0.91104100  0.83573800  1
  H  849  1  0.58782700  0.88550500  0.81558700  1
  H  850  1  0.58317400  0.88522000  0.77661200  1
  H  851  1  0.59473000  0.89383800  0.74148200  1
  H  852  1  0.55833000  0.93466100  0.73744100  1
  H  853  1  0.54740400  0.92663200  0.77287600  1
  H  854  1  0.51047100  0.87938000  0.77589600  1
  H  855  1  0.47352800  0.87891800  0.78291200  1
  H  856  1  0.49859500  0.90536200  0.84324000  1
  H  857  1  0.53563000  0.90559700  0.83616800  1
  H  858  1  0.54321700  0.86642600  0.83538400  1
  H  859  1  0.53294800  0.85494700  0.77101200  1
  H  860  1  0.52197500  0.81355700  0.77551200  1
  H  861  1  0.53249100  0.82494400  0.83998300  1
  H  887  1  0.62505900  0.95175100  0.55173300  1
  H  888  1  0.59860400  0.91482200  0.56953900  1
  H  889  1  0.57134900  0.97300500  0.55637500  1
  H  890  1  0.54536500  0.93653000  0.57423100  1
  H  891  1  0.54130400  0.92362900  0.61337600  1
  H  892  1  0.55184600  0.93041900  0.64903500  1
  H  893  1  0.59916400  0.90168000  0.64106800  1
  H  894  1  0.58790300  0.89402600  0.60575300  1
  H  895  1  0.53649600  0.85506000  0.60640600  1
  H  896  1  0.53585200  0.81838800  0.59793400  1
  H  897  1  0.56316700  0.84613900  0.53835200  1
  H  898  1  0.56304400  0.88287500  0.54672100  1
  H  899  1  0.52578800  0.89365900  0.54872900  1
  H  900  1  0.51183600  0.87625700  0.61210000  1
  H  901  1  0.47028800  0.86466200  0.60709900  1
  H  902  1  0.48404700  0.88187000  0.54360200  1
  H  928  1  0.05000700  0.68829800  0.55165700  1
  H  929  1  0.08691900  0.69870800  0.56946200  1
  H  930  1  0.02862400  0.61330000  0.55630200  1
  H  931  1  0.06508900  0.62373100  0.57415400  1
  H  932  1  0.07796200  0.63256800  0.61330900  1
  H  933  1  0.07107800  0.63634600  0.64895200  1
  H  934  1  0.09996000  0.71241900  0.64094100  1
  H  935  1  0.10771400  0.70878800  0.60565800  1
  H  936  1  0.14661700  0.69623800  0.60633200  1
  H  937  1  0.18331600  0.73224100  0.59787100  1
  H  938  1  0.15559400  0.73186700  0.53828900  1
  H  939  1  0.11882900  0.69503600  0.54664800  1
  H  940  1  0.10797100  0.64697600  0.54865800  1
  H  941  1  0.12531700  0.65035900  0.61203600  1
  H  942  1  0.13685100  0.62035800  0.60703400  1
  H  943  1  0.11970200  0.61698100  0.54352900  1
  H  969  1  0.31342700  0.37667500  0.55163700  1
  H  970  1  0.30296600  0.40314900  0.56941800  1
  H  971  1  0.38841800  0.43023400  0.55652500  1
  H  972  1  0.37793500  0.45623400  0.57436300  1
  H  973  1  0.36896900  0.46034200  0.61351200  1
  H  974  1  0.36502300  0.44965300  0.64913700  1
  H  975  1  0.28902100  0.40234200  0.64087600  1
  H  976  1  0.29279500  0.41376000  0.60559300  1
  H  977  1  0.30536900  0.46525200  0.60635700  1
  H  978  1  0.26938100  0.46595500  0.59785400  1
  H  979  1  0.26988400  0.43871200  0.53825500  1
  H  980  1  0.30670300  0.43877000  0.54665900  1
  H  981  1  0.35473400  0.47589500  0.54873500  1
  H  982  1  0.35124200  0.48986400  0.61209500  1
  H  983  1  0.38125500  0.53140100  0.60710400  1
  H  984  1  0.38472800  0.51761700  0.54361300  1
  H  1010  1  0.63931200  0.60951700  0.21287000  1
  H  1011  1  0.63003800  0.57410500  0.23283100  1
  H  1012  1  0.71484900  0.63696100  0.22300300  1
  H  1013  1  0.70568800  0.60162000  0.24249100  1
  H  1014  1  0.70283500  0.58117400  0.27656900  1
  H  1015  1  0.70610700  0.59225700  0.31166800  1
  H  1016  1  0.63241400  0.57601500  0.31137400  1
  H  1017  1  0.62960200  0.56596300  0.27570200  1
  H  1018  1  0.62927500  0.52300800  0.27684900  1
  H  1019  1  0.59231900  0.48676500  0.26947400  1
  H  1020  1  0.60203500  0.50391900  0.20580400  1
  H  1021  1  0.63895200  0.54098700  0.21336500  1
  H  1022  1  0.68915200  0.56442300  0.21480700  1
  H  1023  1  0.67301900  0.52982200  0.27319500  1
  H  1024  1  0.70287500  0.51804900  0.26755400  1
  H  1025  1  0.71984200  0.55383500  0.20966000  1
  H  1051  1  0.95547300  0.36078800  0.21273200  1
  H  1052  1  0.92937700  0.37014400  0.23266400  1
  H  1053  1  0.90741600  0.28529400  0.22311500  1
  H  1054  1  0.88128100  0.29453800  0.24257400  1
  H  1055  1  0.86375400  0.29754900  0.27668800  1
  H  1056  1  0.87178200  0.29443800  0.31176700  1
  H  1057  1  0.92932200  0.36809200  0.31111600  1
  H  1058  1  0.92184200  0.37073900  0.27548100  1
  H  1059  1  0.87906000  0.37097000  0.27676700  1
  H  1060  1  0.87972100  0.40789200  0.26937200  1
  H  1061  1  0.88716900  0.39815100  0.20571000  1
  H  1062  1  0.88736000  0.36125800  0.21329400  1
  H  1063  1  0.86063000  0.31108900  0.21478100  1
  H  1064  1  0.84216600  0.32715800  0.27319900  1
  H  1065  1  0.80054600  0.29728800  0.26755400  1
  H  1066  1  0.81936300  0.28040700  0.20962900  1
  H  1092  1  0.39057400  0.04475500  0.21288100  1
  H  1093  1  0.42603600  0.07084600  0.23280400  1
  H  1094  1  0.36317900  0.09284900  0.22324800  1
  H  1095  1  0.39856900  0.11898000  0.24269600  1
  H  1096  1  0.41920700  0.13666500  0.27672500  1
  H  1097  1  0.40826700  0.12888300  0.31185500  1
  H  1098  1  0.42427700  0.07126900  0.31137400  1
  H  1099  1  0.43416700  0.07847800  0.27569000  1
  H  1100  1  0.47722100  0.12119300  0.27687500  1
  H  1101  1  0.51343400  0.12043900  0.26950500  1
  H  1102  1  0.49623600  0.11291300  0.20584500  1
  H  1103  1  0.45918900  0.11280900  0.21340700  1
  H  1104  1  0.43569900  0.13957200  0.21485800  1
  H  1105  1  0.47046100  0.15813900  0.27317400  1
  H  1106  1  0.48226600  0.19976100  0.26747800  1
  H  1107  1  0.44631600  0.18084900  0.20965800  1
  H  1133  1  0.36938300  0.06521100  0.50798100  1
  H  1134  1  0.39498400  0.10033200  0.48755900  1
  H  1135  1  0.41407900  0.03498800  0.49312300  1
  H  1136  1  0.43972200  0.07005900  0.47295000  1
  H  1137  1  0.45622000  0.09269500  0.43623000  1
  H  1138  1  0.44554600  0.08515300  0.40069600  1
  H  1139  1  0.38656300  0.09777900  0.41078800  1
  H  1140  1  0.39744200  0.10572700  0.44625800  1
  H  1141  1  0.44279800  0.14920500  0.44012500  1
  H  1142  1  0.44323300  0.18605400  0.44745400  1
  H  1143  1  0.43883600  0.17061500  0.51136600  1
  H  1144  1  0.43796300  0.13311400  0.50391200  1
  H  1145  1  0.46312600  0.10815800  0.50101900  1
  H  1146  1  0.47890500  0.14109800  0.44194300  1
  H  1147  1  0.52094300  0.15375200  0.44660100  1
  H  1148  1  0.50487700  0.11999800  0.50534700  1
  H  1174  1  0.93637800  0.31896900  0.50783600  1
  H  1175  1  0.90128500  0.30951000  0.48740300  1
  H  1176  1  0.96676000  0.39389600  0.49293600  1
  H  1177  1  0.93170600  0.38453200  0.47275800  1
  H  1178  1  0.90886300  0.37849300  0.43610100  1
  H  1179  1  0.91622500  0.37538600  0.40051600  1
  H  1180  1  0.90381300  0.30382800  0.41048900  1
  H  1181  1  0.89603900  0.30673800  0.44601000  1
  H  1182  1  0.85251500  0.30850100  0.43993800  1
  H  1183  1  0.81568900  0.27206400  0.44723400  1
  H  1184  1  0.83104300  0.28308800  0.51116100  1
  H  1185  1  0.86853300  0.31974400  0.50373400  1
  H  1186  1  0.89371200  0.36995100  0.50088900  1
  H  1187  1  0.86045300  0.35267500  0.44193700  1
  H  1188  1  0.84786300  0.38209300  0.44665100  1
  H  1189  1  0.88192400  0.39989700  0.50526900  1
  H  1215  1  0.68266500  0.63235300  0.50779400  1
  H  1216  1  0.69212000  0.60673000  0.48733800  1
  H  1217  1  0.60766600  0.58748200  0.49328700  1
  H  1218  1  0.61703200  0.56181400  0.47308300  1
  H  1219  1  0.62294500  0.54519800  0.43642300  1
  H  1220  1  0.62575600  0.55562300  0.40086000  1
  H  1221  1  0.69744300  0.61467300  0.41044700  1
  H  1222  1  0.69481800  0.60406200  0.44596400  1
  H  1223  1  0.69312700  0.55888400  0.44001500  1
  H  1224  1  0.72959500  0.55852800  0.44729300  1
  H  1225  1  0.71867300  0.56298100  0.51121900  1
  H  1226  1  0.68199500  0.56377300  0.50382000  1
  H  1227  1  0.63183000  0.53850800  0.50104100  1
  H  1228  1  0.64897700  0.52266900  0.44197700  1
  H  1229  1  0.61965900  0.48063200  0.44669100  1
  H  1230  1  0.60196400  0.49674800  0.50541000  1
  H  1256  1  0.68238000  0.06347500  0.49949200  1
  H  1257  1  0.69151900  0.09822400  0.47863000  1
  H  1258  1  0.60826700  0.04558500  0.50219000  1
  H  1259  1  0.61742800  0.08019000  0.48196700  1
  H  1260  1  0.62198700  0.08426200  0.44291900  1
  H  1261  1  0.61917400  0.07217300  0.40795200  1
  H  1262  1  0.69643000  0.10949100  0.40390600  1
  H  1263  1  0.69918000  0.12075400  0.43920300  1
  H  1264  1  0.68849000  0.15747500  0.44216100  1
  H  1265  1  0.72507700  0.19437300  0.44902900  1
  H  1266  1  0.72679900  0.16933000  0.50928700  1
  H  1267  1  0.68991400  0.13234100  0.50235800  1
  H  1268  1  0.64308200  0.12500600  0.50150200  1
  H  1269  1  0.64142300  0.13441500  0.43704000  1
  H  1270  1  0.61088600  0.14524800  0.44143300  1
  H  1271  1  0.61221100  0.13557900  0.50599200  1
  H  1297  1  0.36791700  0.31928100  0.49963500  1
  H  1298  1  0.39353200  0.31010200  0.47881800  1
  H  1299  1  0.42403400  0.39345000  0.50206700  1
  H  1300  1  0.44948500  0.38425400  0.48187900  1
  H  1301  1  0.44909900  0.37954000  0.44280500  1
  H  1302  1  0.43964500  0.38211800  0.40785300  1
  H  1303  1  0.39955200  0.30484400  0.40419900  1
  H  1304  1  0.40825700  0.30231600  0.43948600  1
  H  1305  1  0.45579900  0.31314600  0.44230700  1
  H  1306  1  0.45615200  0.27658900  0.44922100  1
  H  1307  1  0.42941700  0.27493900  0.50948000  1
  H  1308  1  0.42928200  0.31180800  0.50250800  1
  H  1309  1  0.46869900  0.35864300  0.50158400  1
  H  1310  1  0.47978200  0.36019900  0.43713300  1
  H  1311  1  0.52116500  0.39070900  0.44152400  1
  H  1312  1  0.51014600  0.38947800  0.50607700  1
  H  1338  1  0.93818500  0.63391900  0.49945400  1
  H  1339  1  0.90343200  0.60828800  0.47859700  1
  H  1340  1  0.95621600  0.57779300  0.50203600  1
  H  1341  1  0.92161600  0.55233100  0.48181000  1
  H  1342  1  0.91742800  0.55284700  0.44272400  1
  H  1343  1  0.92928600  0.56209100  0.40771200  1
  H  1344  1  0.89174900  0.60183000  0.40391100  1
  H  1345  1  0.88071500  0.59334800  0.43925600  1
  H  1346  1  0.84413000  0.54580400  0.44222200  1
  H  1347  1  0.80722400  0.54546200  0.44911900  1
  H  1348  1  0.83241400  0.57248600  0.50929300  1
  H  1349  1  0.86941200  0.57261200  0.50233700  1
  H  1350  1  0.87677900  0.53309800  0.50144900  1
  H  1351  1  0.86740200  0.52199900  0.43698900  1
  H  1352  1  0.85663300  0.48065100  0.44139700  1
  H  1353  1  0.86627500  0.49168400  0.50595900  1
  H  1379  1  0.95493800  0.61427600  0.21257100  1
  H  1380  1  0.92950500  0.57875300  0.23261400  1
  H  1381  1  0.90587300  0.64041700  0.22334100  1
  H  1382  1  0.88036400  0.60488100  0.24289900  1
  H  1383  1  0.87090200  0.58778300  0.28098000  1
  H  1384  1  0.88226500  0.59528000  0.31640700  1
  H  1385  1  0.93570200  0.57459800  0.30644600  1
  H  1386  1  0.92358200  0.56606100  0.27131500  1
  H  1387  1  0.87346700  0.52454500  0.27590700  1
  H  1388  1  0.87226900  0.48736700  0.26847700  1
  H  1389  1  0.88980000  0.50889900  0.20605500  1
  H  1390  1  0.89049700  0.54624200  0.21352900  1
  H  1391  1  0.85926600  0.56314100  0.21552200  1
  H  1392  1  0.84410300  0.54064200  0.27782800  1
  H  1393  1  0.80242600  0.52876900  0.27268100  1
  H  1394  1  0.81759800  0.55123100  0.21027700  1
  H  1420  1  0.38598500  0.35555900  0.21270600  1
  H  1421  1  0.42152800  0.36564300  0.23271900  1
  H  1422  1  0.35972200  0.28035900  0.22363800  1
  H  1423  1  0.39528300  0.29038000  0.24316400  1
  H  1424  1  0.41271300  0.29793300  0.28114000  1
  H  1425  1  0.40544600  0.30178700  0.31662300  1
  H  1426  1  0.42572900  0.37581600  0.30671900  1
  H  1427  1  0.43402200  0.37224800  0.27152100  1
  H  1428  1  0.47567300  0.36386900  0.27605700  1
  H  1429  1  0.51282600  0.39986900  0.26861800  1
  H  1430  1  0.49132900  0.39574800  0.20617400  1
  H  1431  1  0.45400900  0.35907900  0.21365900  1
  H  1432  1  0.43684100  0.31086700  0.21561300  1
  H  1433  1  0.45989600  0.31849400  0.27777200  1
  H  1434  1  0.47176400  0.28869800  0.27255100  1
  H  1435  1  0.44873700  0.28110500  0.21029200  1
  H  1461  1  0.64457900  0.04514000  0.21284800  1
  H  1462  1  0.63456500  0.07062600  0.23290300  1
  H  1463  1  0.71984000  0.09443900  0.22313800  1
  H  1464  1  0.70988200  0.11998700  0.24271000  1
  H  1465  1  0.70247900  0.12943700  0.28080300  1
  H  1466  1  0.69888600  0.11830000  0.31628000  1
  H  1467  1  0.62463700  0.06493600  0.30680200  1
  H  1468  1  0.62795000  0.07680400  0.27162300  1
  H  1469  1  0.63645900  0.12679900  0.27598700  1
  H  1470  1  0.60041500  0.12790200  0.26859700  1
  H  1471  1  0.60426800  0.11017400  0.20620500  1
  H  1472  1  0.64096600  0.10956700  0.21363400  1
  H  1473  1  0.68910100  0.14097000  0.21550300  1
  H  1474  1  0.68191700  0.15617400  0.27783400  1
  H  1475  1  0.71173000  0.19784100  0.27266100  1
  H  1476  1  0.71888200  0.18264400  0.21023400  1
  H  1483  1  0.84521000  0.11045100  0.88124700  1
  H  1486  1  0.85416400  0.15646900  0.89713800  1
  H  1487  1  0.87792900  0.18563600  0.88886300  1
  H  1488  1  0.88324300  0.17059300  0.90955100  1
  H  1496  1  0.25143400  0.15584400  0.88131500  1
  H  1499  1  0.28879300  0.14689400  0.89686100  1
  H  1500  1  0.29379300  0.12281300  0.88872200  1
  H  1501  1  0.27371300  0.11798300  0.90953400  1
  H  1509  1  0.89054900  0.74960900  0.88120700  1
  H  1512  1  0.84413800  0.71236700  0.89706400  1
  H  1513  1  0.81509500  0.70726200  0.88869900  1
  H  1514  1  0.83019200  0.72751200  0.90943400  1
  H  1522  1  0.73853300  0.89548600  0.16707300  1
  H  1525  1  0.70174700  0.84815000  0.15275400  1
  H  1526  1  0.69766300  0.81976200  0.16189100  1
  H  1527  1  0.71702400  0.83424900  0.14052000  1
  H  1535  1  0.10467500  0.85795400  0.16714800  1
  H  1538  1  0.15230300  0.86847400  0.15314400  1
  H  1539  1  0.18059900  0.89306600  0.16215400  1
  H  1540  1  0.16594700  0.89748800  0.14065700  1
  H  1548  1  0.14223700  0.26155500  0.16715900  1
  H  1551  1  0.13142100  0.29843700  0.15285500  1
  H  1552  1  0.10696300  0.30222700  0.16208300  1
  H  1553  1  0.10221800  0.28293300  0.14069400  1
  H  1561  1  0.17899800  0.77741500  0.54884200  1
  H  1564  1  0.18802200  0.82402200  0.56381000  1
  H  1565  1  0.21227400  0.85293200  0.55552500  1
  H  1566  1  0.21681400  0.83791000  0.57667900  1
  H  1574  1  0.58535300  0.82274500  0.54889400  1
  H  1577  1  0.62296300  0.81369900  0.56382200  1
  H  1578  1  0.62759600  0.78944300  0.55550700  1
  H  1579  1  0.60806800  0.78490500  0.57668600  1
  H  1587  1  0.22431900  0.41652100  0.54875000  1
  H  1590  1  0.17805100  0.37927700  0.56413300  1
  H  1591  1  0.14903100  0.37416100  0.55572000  1
  H  1592  1  0.16387900  0.39409700  0.57669600  1
  H  1600  1  0.07551000  0.56384400  0.83495500  1
  H  1603  1  0.03701300  0.51536000  0.82406700  1
  H  1604  1  0.03457800  0.48771300  0.83342200  1
  H  1605  1  0.05094500  0.50102100  0.81039300  1
  H  1613  1  0.43706300  0.52651600  0.83505400  1
  H  1616  1  0.48564600  0.53672700  0.82374900  1
  H  1617  1  0.51325200  0.56178400  0.83333200  1
  H  1618  1  0.50003800  0.56521800  0.81041300  1
  H  1626  1  0.47438900  0.92536000  0.83508800  1
  H  1629  1  0.46437000  0.96354900  0.82376500  1
  H  1630  1  0.43945800  0.96638000  0.83328100  1
  H  1631  1  0.43589300  0.94963500  0.81039200  1
  H  1639  1  0.51335200  0.44173600  0.21454900  1
  H  1642  1  0.52178600  0.48975900  0.22516000  1
  H  1643  1  0.54675900  0.51775100  0.21607400  1
  H  1644  1  0.54968200  0.50474300  0.23933600  1
  H  1652  1  0.91366000  0.48683900  0.21443200  1
  H  1655  1  0.95306800  0.47818700  0.22552800  1
  H  1656  1  0.95623100  0.45337500  0.21624300  1
  H  1657  1  0.93994300  0.45004800  0.23935900  1
  H  1665  1  0.55836100  0.08634500  0.21462900  1
  H  1668  1  0.51034900  0.04681200  0.22529000  1
  H  1669  1  0.48235500  0.04379600  0.21621500  1
  H  1670  1  0.49539900  0.05977000  0.23945200  1
  H  1678  1  0.40947400  0.23088700  0.50141700  1
  H  1681  1  0.37064800  0.18239400  0.49079100  1
  H  1682  1  0.36817700  0.15474600  0.50018100  1
  H  1683  1  0.38429400  0.16784800  0.47701000  1
  H  1691  1  0.77082300  0.19347100  0.50125300  1
  H  1694  1  0.81899000  0.20315100  0.49017300  1
  H  1695  1  0.84675200  0.22802900  0.49970000  1
  H  1696  1  0.83374700  0.23154700  0.47668200  1
  H  1704  1  0.80827600  0.59235100  0.50119300  1
  H  1707  1  0.79865800  0.63115100  0.49049700  1
  H  1708  1  0.77350200  0.63368400  0.49985100  1
  H  1709  1  0.77046200  0.61749200  0.47672000  1
  H  1717  1  0.98968600  0.30631700  0.85525000  1
  H  1720  1  0.96759700  0.33063000  0.84076400  1
  H  1721  1  0.97724000  0.35342000  0.82123400  1
  H  1722  1  0.98853300  0.36184700  0.84668500  1
  H  1730  1  0.30270400  0.01125200  0.85540500  1
  H  1733  1  0.34906000  0.03325000  0.84121900  1
  H  1734  1  0.36232900  0.02383100  0.82163100  1
  H  1735  1  0.35935300  0.01228100  0.84700300  1
  H  1743  1  0.69456400  0.69813800  0.85544200  1
  H  1746  1  0.67075100  0.65203400  0.84057900  1
  H  1747  1  0.64770900  0.63873000  0.82126000  1
  H  1748  1  0.63955200  0.64141300  0.84686600  1
  H  1756  1  0.68786500  0.70160100  0.19764600  1
  H  1759  1  0.64197500  0.67868100  0.21304900  1
  H  1760  1  0.62877300  0.65590700  0.23258600  1
  H  1761  1  0.63043700  0.64728800  0.20691400  1
  H  1769  1  0.29868600  0.00109900  0.19750700  1
  H  1772  1  0.32115800  0.97800000  0.21318600  1
  H  1773  1  0.34419900  0.98761300  0.23249300  1
  H  1774  1  0.35250100  0.99758600  0.20670200  1
  H  1782  1  0.99914700  0.31251600  0.19746700  1
  H  1785  1  0.02222400  0.35813100  0.21309100  1
  H  1786  1  0.01259800  0.37156200  0.23238500  1
  H  1787  1  0.00261400  0.36985400  0.20659300  1
  H  1795  1  0.99923600  0.70462400  0.19577800  1
  H  1798  1  0.02164800  0.68164200  0.21028900  1
  H  1799  1  0.01243300  0.65810700  0.22907600  1
  H  1800  1  0.00132200  0.65055000  0.20349100  1
  H  1808  1  0.69064700  0.00093300  0.19588300  1
  H  1811  1  0.64558400  0.97821900  0.21121800  1
  H  1812  1  0.63123400  0.98774200  0.22973200  1
  H  1813  1  0.63440000  0.99804800  0.20390100  1
  H  1821  1  0.29561200  0.30958000  0.19592300  1
  H  1824  1  0.31859300  0.35504900  0.21058200  1
  H  1825  1  0.34228300  0.36935800  0.22925400  1
  H  1826  1  0.34961500  0.36573200  0.20361700  1
  H  1834  1  0.29840300  0.30724700  0.85265300  1
  H  1837  1  0.34151800  0.32666300  0.83393400  1
  H  1838  1  0.35486300  0.34988400  0.81478400  1
  H  1839  1  0.35605500  0.35811400  0.84104900  1
  H  1847  1  0.69366400  0.00607000  0.85260600  1
  H  1850  1  0.67472900  0.02988200  0.83324900  1
  H  1851  1  0.65112900  0.01977400  0.81441300  1
  H  1852  1  0.64342300  0.01344000  0.84084000  1
  H  1860  1  0.99494000  0.70257600  0.85250400  1
  H  1863  1  0.97116500  0.65948900  0.83349200  1
  H  1864  1  0.98122100  0.64617400  0.81445000  1
  H  1865  1  0.98795100  0.64488500  0.84077700  1
  H  1873  1  0.32330500  0.97312300  0.52253500  1
  H  1876  1  0.30097200  0.99691400  0.50787600  1
  H  1877  1  0.31056300  0.01995400  0.48856800  1
  H  1878  1  0.32167400  0.02809800  0.51410600  1
  H  1886  1  0.63654200  0.67833300  0.52243100  1
  H  1889  1  0.68261300  0.70067800  0.50765000  1
  H  1890  1  0.69602400  0.69106300  0.48832700  1
  H  1891  1  0.69316900  0.68003500  0.51388300  1
  H  1899  1  0.02864400  0.36515000  0.52225000  1
  H  1902  1  0.00432500  0.31878700  0.50815300  1
  H  1903  1  0.98170400  0.30546700  0.48851600  1
  H  1904  1  0.97305100  0.30856000  0.51382500  1
  H  1912  1  0.63231900  0.97445700  0.51947200  1
  H  1915  1  0.67506100  0.99338100  0.50016200  1
  H  1916  1  0.68854700  0.01691300  0.48126900  1
  H  1917  1  0.68981700  0.02471100  0.50766400  1
  H  1925  1  0.02730500  0.67285000  0.51937400  1
  H  1928  1  0.00792600  0.69661100  0.50050300  1
  H  1929  1  0.98460700  0.68664100  0.48142100  1
  H  1930  1  0.97651900  0.67963300  0.50770700  1
  H  1938  1  0.32892200  0.36938100  0.51945800  1
  H  1941  1  0.30527600  0.32628300  0.50077900  1
  H  1942  1  0.31511900  0.31294000  0.48160200  1
  H  1943  1  0.32232300  0.31187000  0.50784000  1
  H  1951  1  0.02734200  0.23835900  0.00943500  1
  H  1954  1  0.99858700  0.20289800  0.05895200  1
  H  1955  1  0.02766100  0.20755000  0.06611200  1
  H  1956  1  0.01802300  0.20117300  0.03991600  1
  H  1964  1  0.19674700  0.97318100  0.00927400  1
  H  1967  1  0.19005600  0.00182100  0.05897300  1
  H  1968  1  0.16542400  0.97277800  0.06587200  1
  H  1969  1  0.16898200  0.98271600  0.03975100  1
  H  1977  1  0.76245200  0.80391400  0.00946200  1
  H  1980  1  0.79761100  0.81044400  0.05904800  1
  H  1981  1  0.79293400  0.83484200  0.06623200  1
  H  1982  1  0.79940000  0.83166500  0.04004500  1
  H  1990  1  0.96150800  0.76783900  0.04329500  1
  H  1993  1  0.98827500  0.80571900  0.99343500  1
  H  1994  1  0.95876400  0.80120000  0.98831500  1
  H  1995  1  0.97034400  0.80723300  0.01399100  1
  H  2003  1  0.79181000  0.03887200  0.04347800  1
  H  2006  1  0.80287600  0.01197300  0.99375000  1
  H  2007  1  0.82829100  0.04133400  0.98904300  1
  H  2008  1  0.82199600  0.02949000  0.01462300  1
  H  2016  1  0.23247400  0.20855500  0.04345900  1
  H  2019  1  0.19479500  0.19761700  0.99350600  1
  H  2020  1  0.19910300  0.17247500  0.98847400  1
  H  2021  1  0.19307800  0.17814500  0.01411500  1
  H  2029  1  0.36227000  0.90773400  0.67705300  1
  H  2032  1  0.33411500  0.87215900  0.72645500  1
  H  2033  1  0.36349200  0.87768700  0.73360600  1
  H  2034  1  0.35396000  0.87122700  0.70739800  1
  H  2042  1  0.53199500  0.63924300  0.67695900  1
  H  2045  1  0.52450100  0.66739300  0.72622800  1
  H  2046  1  0.50047100  0.63804200  0.73322800  1
  H  2047  1  0.50387000  0.64764900  0.70703300  1
  H  2055  1  0.09396400  0.46948200  0.67686600  1
  H  2058  1  0.12952300  0.47705600  0.72622000  1
  H  2059  1  0.12383700  0.50078600  0.73347600  1
  H  2060  1  0.13034100  0.49786700  0.70724500  1
  H  2068  1  0.29579800  0.43393200  0.71072100  1
  H  2071  1  0.32376700  0.47209700  0.66105800  1
  H  2072  1  0.29472500  0.46882000  0.65610100  1
  H  2073  1  0.30634900  0.47419900  0.68175900  1
  H  2081  1  0.12445000  0.70519000  0.71079200  1
  H  2084  1  0.13496500  0.67743100  0.66122200  1
  H  2085  1  0.16063000  0.70654200  0.65620300  1
  H  2086  1  0.15446900  0.69498700  0.68188600  1
  H  2094  1  0.56692500  0.87671900  0.71074300  1
  H  2097  1  0.52900600  0.86658200  0.66094600  1
  H  2098  1  0.53246000  0.84093000  0.65587600  1
  H  2099  1  0.52684900  0.84691700  0.68154900  1
  H  2107  1  0.69384100  0.57255500  0.34370100  1
  H  2110  1  0.66362100  0.53711400  0.39219500  1
  H  2111  1  0.69218000  0.54083100  0.39986700  1
  H  2112  1  0.68340400  0.53550500  0.37344400  1
  H  2120  1  0.86466300  0.30682400  0.34386300  1
  H  2123  1  0.85935300  0.33709300  0.39222500  1
  H  2124  1  0.83493400  0.30846300  0.40031400  1
  H  2125  1  0.83779000  0.31683700  0.37380600  1
  H  2133  1  0.42795400  0.13626000  0.34383500  1
  H  2136  1  0.46383800  0.14170900  0.39220700  1
  H  2137  1  0.45996000  0.16639500  0.40005800  1
  H  2138  1  0.46529100  0.16314500  0.37358600  1
  H  2146  1  0.62785200  0.09700700  0.37644800  1
  H  2149  1  0.65399000  0.13500100  0.32674000  1
  H  2150  1  0.62408700  0.12925400  0.32142700  1
  H  2151  1  0.63537500  0.13550400  0.34718000  1
  H  2159  1  0.45542400  0.37337300  0.37624700  1
  H  2162  1  0.46729800  0.34731400  0.32644600  1
  H  2163  1  0.49093600  0.37733900  0.32067700  1
  H  2164  1  0.48671000  0.36642100  0.34653200  1
  H  2172  1  0.90445700  0.54588000  0.37631400  1
  H  2175  1  0.86609200  0.53361100  0.32666700  1
  H  2176  1  0.87216900  0.50971700  0.32117000  1
  H  2177  1  0.86579500  0.51445800  0.34697900  1
  H  2185  1  0.10593900  0.18536000  0.87481200  1
  H  2188  1  0.07929700  0.20926400  0.84829900  1
  H  2189  1  0.05424100  0.18280700  0.83753700  1
  H  2190  1  0.08241800  0.18352500  0.84186000  1
  H  2198  1  0.06540600  0.89495400  0.87479500  1
  H  2201  1  0.11594700  0.92167100  0.84826500  1
  H  2202  1  0.11448500  0.94669700  0.83751200  1
  H  2203  1  0.08705900  0.91849000  0.84183800  1
  H  2211  1  0.81573400  0.93557100  0.87477200  1
  H  2214  1  0.79137500  0.88442200  0.84857100  1
  H  2215  1  0.81786900  0.88625400  0.83746800  1
  H  2216  1  0.81670000  0.91345400  0.84186100  1
  H  2224  1  0.92605300  0.82829100  0.17283100  1
  H  2227  1  0.87538300  0.80122300  0.19969000  1
  H  2228  1  0.87462700  0.82689100  0.20981600  1
  H  2229  1  0.90322900  0.82845700  0.20565700  1
  H  2237  1  0.17169000  0.11260800  0.17266500  1
  H  2240  1  0.19891600  0.08891700  0.19939800  1
  H  2241  1  0.17322400  0.06262900  0.20964600  1
  H  2242  1  0.17184200  0.08976500  0.20550100  1
  H  2250  1  0.88751100  0.07396000  0.17262400  1
  H  2253  1  0.91125600  0.12515400  0.19924600  1
  H  2254  1  0.93734800  0.12546000  0.20963500  1
  H  2255  1  0.91009000  0.09708900  0.20541300  1
  H  2263  1  0.43996200  0.85221100  0.54281100  1
  H  2266  1  0.41314300  0.87582100  0.51612500  1
  H  2267  1  0.38808500  0.84923700  0.50552600  1
  H  2268  1  0.41631800  0.85007400  0.50985000  1
  H  2276  1  0.39908900  0.56171000  0.54283300  1
  H  2279  1  0.44984000  0.58857300  0.51634000  1
  H  2280  1  0.44817300  0.61345600  0.50553400  1
  H  2281  1  0.42086800  0.58513800  0.50985200  1
  H  2289  1  0.14939200  0.60256900  0.54276300  1
  H  2292  1  0.12584400  0.55213800  0.51600900  1
  H  2293  1  0.15247800  0.55373100  0.50545500  1
  H  2294  1  0.15157600  0.58109200  0.50979000  1
  H  2302  1  0.25919700  0.49292100  0.83995200  1
  H  2305  1  0.20819600  0.46503400  0.86619900  1
  H  2306  1  0.20719900  0.49032500  0.87691300  1
  H  2307  1  0.23590200  0.49209400  0.87280400  1
  H  2315  1  0.50785700  0.78105500  0.83984400  1
  H  2318  1  0.53608800  0.75782800  0.86587400  1
  H  2319  1  0.51069500  0.73184600  0.87683200  1
  H  2320  1  0.50932900  0.75897500  0.87264300  1
  H  2328  1  0.21983600  0.74175100  0.83984600  1
  H  2331  1  0.24299000  0.79271400  0.86617300  1
  H  2332  1  0.26929000  0.79367700  0.87682900  1
  H  2333  1  0.24234300  0.76499000  0.87270900  1
  H  2341  1  0.77370300  0.52097300  0.20824400  1
  H  2344  1  0.74851600  0.54706400  0.18297700  1
  H  2345  1  0.72361600  0.52161400  0.17094800  1
  H  2346  1  0.75140600  0.52154600  0.17526400  1
  H  2354  1  0.73258000  0.22657700  0.20824600  1
  H  2357  1  0.78410100  0.25187500  0.18306700  1
  H  2358  1  0.78327700  0.27659200  0.17095000  1
  H  2359  1  0.75556700  0.24869400  0.17534500  1
  H  2367  1  0.47900900  0.26748400  0.20808600  1
  H  2370  1  0.45307800  0.21644000  0.18271400  1
  H  2371  1  0.47852400  0.21687000  0.17077300  1
  H  2372  1  0.47874100  0.24480200  0.17509900  1
  H  2380  1  0.59275600  0.15992900  0.50572200  1
  H  2383  1  0.54162800  0.13193700  0.53200900  1
  H  2384  1  0.54077400  0.15728700  0.54274600  1
  H  2385  1  0.56940700  0.15891300  0.53861200  1
  H  2393  1  0.84207500  0.44792800  0.50576400  1
  H  2396  1  0.86987800  0.42478800  0.53219600  1
  H  2397  1  0.84449800  0.39849500  0.54281300  1
  H  2398  1  0.84279500  0.42545700  0.53866300  1
  H  2406  1  0.55392200  0.40891500  0.50586900  1
  H  2409  1  0.57702400  0.45979200  0.53230000  1
  H  2410  1  0.60334800  0.46076500  0.54291000  1
  H  2411  1  0.57642000  0.43206900  0.53876100  1
  C  1  1  0.04684000  0.19976500  0.90419200  1
  C  2  1  0.03325300  0.19374200  0.92279000  1
  C  3  1  0.01581900  0.20106800  0.92619400  1
  C  4  1  0.01185300  0.21561200  0.91159600  1
  C  5  1  0.02316800  0.21857300  0.89196900  1
  C  6  1  0.04086800  0.21154600  0.88852100  1
  C  7  1  0.99514300  0.22612700  0.91658300  1
  C  8  1  0.97029500  0.20405200  0.91122500  1
  C  9  1  0.96146200  0.19898000  0.89053300  1
  C  10  1  0.93964000  0.17740900  0.88523500  1
  C  11  1  0.92623900  0.15949000  0.90038200  1
  C  12  1  0.93539700  0.16369500  0.92081000  1
  C  13  1  0.95706000  0.18526600  0.92597300  1
  C  14  1  0.99752200  0.23514300  0.93890200  1
  C  15  1  0.00141200  0.24963100  0.90496000  1
  C  16  1  0.98340100  0.25580700  0.89919800  1
  C  17  1  0.98968600  0.27797800  0.88902600  1
  C  18  1  0.01445300  0.29553300  0.88482600  1
  C  19  1  0.03257600  0.29030900  0.89205300  1
  C  20  1  0.02620800  0.26821000  0.90212800  1
  C  21  1  0.02034500  0.24620400  0.94948000  1
  C  22  1  0.02221500  0.25250400  0.97049200  1
  C  23  1  0.00139300  0.24862000  0.98188000  1
  C  24  1  0.97938600  0.24097500  0.97076600  1
  C  25  1  0.97770500  0.23490200  0.94962800  1
  C  42  1  0.13889700  0.95412800  0.90414400  1
  C  43  1  0.14645400  0.96767400  0.92276300  1
  C  44  1  0.17120100  0.98516100  0.92615900  1
  C  45  1  0.18971100  0.98914900  0.91155300  1
  C  46  1  0.18135700  0.97792100  0.89189500  1
  C  47  1  0.15663500  0.96020200  0.88844100  1
  C  48  1  0.21693900  0.00582100  0.91655000  1
  C  49  1  0.21977700  0.03069100  0.91118100  1
  C  50  1  0.22362200  0.03955000  0.89049300  1
  C  51  1  0.22388500  0.06137000  0.88516600  1
  C  52  1  0.21927700  0.07474500  0.90027400  1
  C  53  1  0.21423700  0.06556700  0.92069400  1
  C  54  1  0.21413200  0.04390200  0.92588000  1
  C  55  1  0.22352500  0.00340300  0.93887500  1
  C  56  1  0.23415600  0.99952800  0.90493300  1
  C  57  1  0.25841100  0.01750500  0.89930500  1
  C  58  1  0.27430400  0.01121000  0.88915500  1
  C  59  1  0.26703300  0.98644800  0.88486900  1
  C  60  1  0.24361100  0.96833900  0.89196300  1
  C  61  1  0.22788200  0.97472400  0.90201600  1
  C  62  1  0.21181100  0.98052600  0.94937400  1
  C  63  1  0.21618100  0.97857600  0.97038500  1
  C  64  1  0.23301700  0.99937000  0.98185500  1
  C  65  1  0.24734200  0.02145000  0.97082300  1
  C  66  1  0.24301700  0.02321200  0.94968200  1
  C  83  1  0.80125900  0.86199100  0.90402500  1
  C  84  1  0.80733700  0.85448200  0.92262700  1
  C  85  1  0.80009200  0.82974300  0.92605000  1
  C  86  1  0.78546600  0.81119200  0.91151100  1
  C  87  1  0.78244100  0.81949000  0.89187800  1
  C  88  1  0.78950700  0.84421600  0.88836800  1
  C  89  1  0.77493400  0.78397900  0.91656100  1
  C  90  1  0.79697500  0.78115000  0.91121200  1
  C  91  1  0.80205000  0.77739900  0.89051600  1
  C  92  1  0.82361000  0.77713200  0.88520700  1
  C  93  1  0.84153100  0.78163700  0.90034600  1
  C  94  1  0.83733500  0.78658600  0.92077900  1
  C  95  1  0.81577200  0.78669200  0.92594800  1
  C  96  1  0.76595200  0.77742600  0.93889400  1
  C  97  1  0.75141800  0.76672800  0.90496700  1
  C  98  1  0.74521400  0.74252200  0.89924200  1
  C  99  1  0.72301800  0.72661300  0.88910800  1
  C  100  1  0.70545100  0.73381400  0.88493200  1
  C  101  1  0.71069800  0.75718000  0.89212900  1
  C  102  1  0.73282100  0.77292800  0.90216200  1
  C  103  1  0.75494900  0.78925800  0.94945200  1
  C  104  1  0.74855700  0.78480700  0.97044500  1
  C  105  1  0.75231800  0.76780100  0.98185000  1
  C  106  1  0.75996100  0.75341700  0.97076500  1
  C  107  1  0.76610800  0.75781900  0.94964100  1
  C  124  1  0.85031200  0.80625500  0.14364500  1
  C  125  1  0.84201500  0.81174500  0.12519700  1
  C  126  1  0.81703100  0.80379600  0.12224700  1
  C  127  1  0.79896000  0.78888100  0.13702900  1
  C  128  1  0.80793300  0.78563800  0.15625800  1
  C  129  1  0.83292500  0.79357200  0.15936200  1
  C  130  1  0.77168300  0.77935600  0.13311400  1
  C  131  1  0.77037500  0.80230900  0.13840500  1
  C  132  1  0.76865500  0.80871800  0.15918200  1
  C  133  1  0.76874100  0.83054800  0.16413000  1
  C  134  1  0.77175500  0.84746000  0.14847500  1
  C  135  1  0.77509500  0.84214000  0.12792500  1
  C  136  1  0.77472600  0.82026100  0.12311600  1
  C  137  1  0.76285400  0.76999400  0.11117100  1
  C  138  1  0.75462000  0.75642900  0.14545000  1
  C  139  1  0.73173700  0.75186200  0.15350900  1
  C  140  1  0.71589700  0.73000900  0.16408400  1
  C  141  1  0.72182200  0.71123800  0.16664700  1
  C  142  1  0.74376700  0.71497100  0.15726100  1
  C  143  1  0.75940600  0.73670800  0.14664000  1
  C  144  1  0.77457600  0.76082400  0.09808000  1
  C  145  1  0.76845100  0.75602300  0.07700500  1
  C  146  1  0.74951200  0.75913000  0.06861300  1
  C  147  1  0.73520300  0.76449100  0.08209200  1
  C  148  1  0.74145500  0.76920700  0.10311400  1
  C  165  1  0.19389100  0.05897200  0.14359100  1
  C  166  1  0.18850700  0.04525600  0.12510900  1
  C  167  1  0.19644700  0.02821200  0.12217400  1
  C  168  1  0.21124700  0.02496800  0.13701500  1
  C  169  1  0.21438500  0.03711100  0.15626600  1
  C  170  1  0.20648100  0.05419500  0.15934500  1
  C  171  1  0.22075500  0.00719400  0.13314900  1
  C  172  1  0.19780400  0.98296500  0.13850200  1
  C  173  1  0.19148400  0.97483900  0.15928900  1
  C  174  1  0.16966100  0.95311100  0.16428300  1
  C  175  1  0.15265500  0.93924600  0.14867400  1
  C  176  1  0.15788900  0.94790400  0.12812000  1
  C  177  1  0.17976900  0.96939200  0.12326300  1
  C  178  1  0.23008400  0.00764200  0.11121100  1
  C  179  1  0.24370900  0.01311000  0.14546700  1
  C  180  1  0.24831600  0.99480600  0.15349400  1
  C  181  1  0.27016600  0.00084300  0.16408200  1
  C  182  1  0.28889100  0.02554800  0.16670300  1
  C  183  1  0.28510500  0.04375000  0.15736300  1
  C  184  1  0.26337700  0.03763200  0.14671900  1
  C  185  1  0.23940200  0.02854800  0.09812400  1
  C  186  1  0.24424300  0.02720000  0.07706400  1
  C  187  1  0.24102400  0.00511000  0.06866300  1
  C  188  1  0.23550600  0.98541100  0.08215800  1
  C  189  1  0.23075000  0.98696300  0.10316600  1
  C  206  1  0.94113800  0.14981700  0.14358600  1
  C  207  1  0.95488000  0.15811600  0.12511500  1
  C  208  1  0.97197100  0.18308900  0.12218000  1
  C  209  1  0.97521700  0.20115400  0.13699800  1
  C  210  1  0.96302000  0.19218100  0.15623400  1
  C  211  1  0.94591800  0.16720100  0.15932500  1
  C  212  1  0.99302000  0.22842700  0.13312600  1
  C  213  1  0.01723500  0.22967100  0.13847400  1
  C  214  1  0.02533900  0.23142100  0.15926300  1
  C  215  1  0.04706100  0.23130700  0.16425100  1
  C  216  1  0.06094400  0.22821200  0.14863100  1
  C  217  1  0.05229800  0.22483200  0.12807300  1
  C  218  1  0.03081600  0.22523700  0.12322500  1
  C  219  1  0.99260800  0.23733300  0.11118800  1
  C  220  1  0.98712800  0.24548800  0.14543900  1
  C  221  1  0.00544000  0.26835200  0.15353400  1
  C  222  1  0.99941300  0.28418300  0.16410800  1
  C  223  1  0.97471700  0.27826700  0.16664700  1
  C  224  1  0.95651600  0.25632700  0.15724400  1
  C  225  1  0.96262200  0.24069400  0.14662300  1
  C  226  1  0.97176000  0.22571700  0.09804100  1
  C  227  1  0.97313300  0.23198300  0.07699600  1
  C  228  1  0.99526100  0.25085400  0.06865500  1
  C  229  1  0.01491200  0.26505100  0.08218900  1
  C  230  1  0.01329200  0.25871800  0.10319400  1
  C  247  1  0.94103600  0.80915000  0.14132600  1
  C  248  1  0.95046900  0.80909100  0.12148600  1
  C  249  1  0.96826300  0.80212200  0.11874600  1
  C  250  1  0.97688500  0.79394200  0.13553600  1
  C  251  1  0.96973800  0.79726700  0.15559600  1
  C  252  1  0.95180000  0.80411700  0.15846100  1
  C  253  1  0.99433000  0.78377700  0.13270200  1
  C  254  1  0.01873900  0.80643100  0.13821800  1
  C  255  1  0.03041900  0.81004500  0.15775600  1
  C  256  1  0.05236900  0.83175700  0.16252400  1
  C  257  1  0.06307800  0.85135500  0.14824900  1
  C  258  1  0.05092600  0.84852000  0.12919800  1
  C  259  1  0.02926900  0.82673500  0.12445000  1
  C  260  1  0.99347600  0.77371700  0.11095100  1
  C  261  1  0.98755200  0.76103700  0.14576000  1
  C  262  1  0.00463200  0.75288300  0.14920700  1
  C  263  1  0.99826100  0.73116800  0.16018600  1
  C  264  1  0.97404300  0.71587900  0.16735000  1
  C  265  1  0.95654400  0.72305800  0.16290200  1
  C  266  1  0.96309100  0.74485000  0.15221900  1
  C  267  1  0.97055100  0.75746500  0.10157000  1
  C  268  1  0.96880200  0.75075500  0.08066700  1
  C  269  1  0.99007700  0.75915700  0.06839400  1
  C  270  1  0.01309300  0.77213800  0.07832200  1
  C  271  1  0.01467700  0.77896900  0.09926500  1
  C  288  1  0.85328800  0.05910400  0.14121300  1
  C  289  1  0.84375200  0.04973500  0.12136800  1
  C  290  1  0.81898600  0.03194000  0.11864800  1
  C  291  1  0.80221600  0.02327200  0.13546100  1
  C  292  1  0.81272700  0.03039500  0.15551000  1
  C  293  1  0.83752900  0.04829800  0.15836100  1
  C  294  1  0.77460100  0.00583100  0.13265400  1
  C  295  1  0.77284000  0.98140900  0.13812800  1
  C  296  1  0.76480300  0.96970200  0.15765700  1
  C  297  1  0.76458100  0.94775100  0.16238200  1
  C  298  1  0.77343300  0.93705100  0.14806200  1
  C  299  1  0.78273800  0.94924200  0.12902200  1
  C  300  1  0.78261500  0.97091200  0.12432300  1
  C  301  1  0.76537200  0.00673600  0.11092400  1
  C  302  1  0.75865700  0.01258600  0.14576400  1
  C  303  1  0.73342100  0.99550900  0.14920400  1
  C  304  1  0.71808100  0.00186800  0.16020200  1
  C  305  1  0.72702000  0.02607700  0.16739100  1
  C  306  1  0.75170600  0.04357300  0.16297300  1
  C  307  1  0.76694800  0.03703400  0.15227600  1
  C  308  1  0.77199000  0.02969000  0.10162200  1
  C  309  1  0.76713500  0.03150500  0.08070200  1
  C  310  1  0.75436800  0.01027400  0.06836300  1
  C  311  1  0.74434000  0.98722400  0.07822600  1
  C  312  1  0.74945000  0.98556700  0.09919000  1
  C  329  1  0.19107400  0.14684100  0.14125500  1
  C  330  1  0.19121800  0.15638200  0.12141800  1
  C  331  1  0.19823900  0.18116200  0.11870700  1
  C  332  1  0.20635800  0.19792400  0.13552600  1
  C  333  1  0.20295100  0.18740300  0.15557100  1
  C  334  1  0.19607500  0.16260500  0.15840900  1
  C  335  1  0.21654700  0.22554300  0.13272800  1
  C  336  1  0.19389100  0.22731100  0.13820400  1
  C  337  1  0.19021100  0.23531200  0.15774700  1
  C  338  1  0.16847600  0.23551900  0.16248200  1
  C  339  1  0.14892700  0.22667800  0.14816100  1
  C  340  1  0.15181900  0.21740500  0.12910800  1
  C  341  1  0.17362800  0.21756500  0.12439100  1
  C  342  1  0.22669100  0.23478600  0.11100400  1
  C  343  1  0.23924600  0.24148300  0.14584200  1
  C  344  1  0.24740200  0.26671200  0.14931000  1
  C  345  1  0.26909100  0.28203000  0.16032700  1
  C  346  1  0.28433300  0.27306700  0.16754300  1
  C  347  1  0.27714100  0.24838600  0.16309500  1
  C  348  1  0.25537900  0.23316700  0.15236300  1
  C  349  1  0.24300600  0.22814800  0.10168900  1
  C  350  1  0.24973800  0.23307900  0.08078600  1
  C  351  1  0.24132200  0.24590900  0.06847300  1
  C  352  1  0.22835500  0.25598600  0.07835700  1
  C  353  1  0.22147500  0.25074200  0.09928800  1
  C  370  1  0.13864900  0.20509100  0.90706500  1
  C  371  1  0.14736600  0.20319700  0.92674000  1
  C  372  1  0.17215100  0.21040400  0.92983300  1
  C  373  1  0.18975900  0.22103300  0.91374100  1
  C  374  1  0.18030100  0.22066400  0.89368200  1
  C  375  1  0.15545600  0.21328500  0.89041700  1
  C  376  1  0.21698700  0.22967700  0.91690600  1
  C  377  1  0.21719200  0.20645600  0.91041800  1
  C  378  1  0.22367700  0.20259800  0.89028300  1
  C  379  1  0.22351400  0.18080300  0.88499600  1
  C  380  1  0.21549300  0.16134400  0.89932800  1
  C  381  1  0.20729200  0.16425500  0.91890000  1
  C  382  1  0.20800200  0.18617500  0.92419500  1
  C  383  1  0.22676000  0.23780300  0.93886000  1
  C  384  1  0.23389600  0.25299300  0.90494100  1
  C  385  1  0.25807900  0.25908300  0.89920600  1
  C  386  1  0.27401600  0.28112500  0.88892500  1
  C  387  1  0.26691200  0.29874700  0.88481800  1
  C  388  1  0.24362600  0.29373600  0.89197900  1
  C  389  1  0.22775100  0.27162300  0.90202600  1
  C  390  1  0.21887500  0.25096000  0.95158800  1
  C  391  1  0.22530200  0.25528900  0.97265100  1
  C  392  1  0.24103300  0.24779300  0.98141800  1
  C  393  1  0.25242500  0.23875100  0.96805800  1
  C  394  1  0.24559100  0.23413500  0.94714700  1
  C  411  1  0.79587100  0.94844300  0.90699000  1
  C  412  1  0.79771600  0.95900800  0.92667900  1
  C  413  1  0.79051100  0.97658800  0.92977700  1
  C  414  1  0.77992900  0.98360700  0.91367500  1
  C  415  1  0.78032600  0.97454500  0.89361200  1
  C  416  1  0.78772600  0.95709600  0.89033800  1
  C  417  1  0.77129200  0.00219500  0.91683700  1
  C  418  1  0.79452800  0.02562200  0.91038200  1
  C  419  1  0.79842800  0.03599800  0.89025800  1
  C  420  1  0.82023500  0.05763600  0.88500700  1
  C  421  1  0.83966200  0.06905300  0.89937100  1
  C  422  1  0.83671100  0.05790600  0.91893200  1
  C  423  1  0.81478000  0.03668800  0.92418900  1
  C  424  1  0.76313100  0.00383300  0.93878100  1
  C  425  1  0.74799500  0.99580300  0.90484800  1
  C  426  1  0.74191400  0.01390100  0.89910600  1
  C  427  1  0.71987400  0.00780300  0.88882500  1
  C  428  1  0.70223100  0.98307600  0.88474600  1
  C  429  1  0.70723900  0.96479800  0.89190500  1
  C  430  1  0.72935800  0.97103000  0.90193400  1
  C  431  1  0.74995600  0.98278900  0.95150000  1
  C  432  1  0.74553100  0.98487000  0.97254300  1
  C  433  1  0.75297900  0.00808900  0.98130500  1
  C  434  1  0.76206700  0.02852900  0.96794800  1
  C  435  1  0.76677200  0.02632600  0.94705800  1
  C  452  1  0.05250700  0.86223600  0.90703000  1
  C  453  1  0.04189200  0.85351000  0.92670300  1
  C  454  1  0.02432300  0.82871900  0.92979200  1
  C  455  1  0.01736100  0.81111500  0.91369800  1
  C  456  1  0.02650500  0.82056900  0.89365100  1
  C  457  1  0.04394900  0.84542200  0.89038900  1
  C  458  1  0.99875600  0.78389300  0.91686000  1
  C  459  1  0.97535500  0.78374500  0.91039100  1
  C  460  1  0.96501900  0.77731600  0.89025000  1
  C  461  1  0.94338600  0.77748900  0.88498700  1
  C  462  1  0.93193300  0.78545100  0.89935700  1
  C  463  1  0.94302100  0.79357000  0.91894700  1
  C  464  1  0.96424300  0.79286800  0.92421200  1
  C  465  1  0.99707500  0.77407900  0.93880300  1
  C  466  1  0.00514600  0.76698000  0.90488200  1
  C  467  1  0.98703500  0.74283600  0.89906400  1
  C  468  1  0.99313300  0.72689800  0.88877800  1
  C  469  1  0.01786400  0.73395600  0.88474700  1
  C  470  1  0.03614500  0.75718900  0.89200100  1
  C  471  1  0.02991600  0.77306900  0.90204700  1
  C  472  1  0.01807300  0.78198500  0.95158800  1
  C  473  1  0.01589100  0.77554700  0.97265300  1
  C  474  1  0.99264500  0.75970700  0.98134100  1
  C  475  1  0.97227900  0.74827800  0.96791500  1
  C  476  1  0.97456600  0.75517700  0.94701800  1
  C  493  1  0.38091400  0.86681100  0.57202800  1
  C  494  1  0.36745800  0.86104000  0.59069100  1
  C  495  1  0.34993500  0.86827800  0.59399100  1
  C  496  1  0.34580100  0.88255800  0.57923600  1
  C  497  1  0.35700700  0.88527500  0.55958800  1
  C  498  1  0.37475700  0.87829500  0.55622900  1
  C  499  1  0.32904600  0.89306100  0.58407100  1
  C  500  1  0.30420400  0.87091000  0.57882100  1
  C  501  1  0.29527300  0.86569000  0.55816100  1
  C  502  1  0.27339400  0.84411000  0.55298600  1
  C  503  1  0.26001700  0.82629700  0.56821900  1
  C  504  1  0.26930800  0.83062200  0.58860800  1
  C  505  1  0.29103500  0.85220100  0.59364600  1
  C  506  1  0.33141000  0.90227700  0.60632300  1
  C  507  1  0.33530700  0.91646200  0.57227300  1
  C  508  1  0.31729700  0.92261800  0.56645600  1
  C  509  1  0.32356300  0.94471100  0.55614400  1
  C  510  1  0.34831800  0.96222400  0.55183700  1
  C  511  1  0.36644400  0.95701200  0.55908700  1
  C  512  1  0.36009700  0.93500700  0.56932100  1
  C  513  1  0.35425400  0.91360200  0.61686900  1
  C  514  1  0.35615200  0.92020800  0.63781100  1
  C  515  1  0.33531800  0.91632400  0.64918800  1
  C  516  1  0.31324900  0.90834800  0.63806800  1
  C  517  1  0.31155000  0.90201200  0.61699200  1
  C  534  1  0.47277200  0.62077600  0.57198300  1
  C  535  1  0.48044800  0.63423600  0.59064400  1
  C  536  1  0.50519600  0.65179200  0.59394300  1
  C  537  1  0.52362300  0.65591500  0.57920700  1
  C  538  1  0.51515500  0.64469400  0.55956300  1
  C  539  1  0.49042600  0.62694900  0.55619000  1
  C  540  1  0.55088000  0.67264000  0.58407400  1
  C  541  1  0.55360600  0.69750200  0.57884000  1
  C  542  1  0.55732100  0.70643500  0.55818000  1
  C  543  1  0.55762700  0.72831900  0.55300800  1
  C  544  1  0.55321100  0.74170800  0.56824400  1
  C  545  1  0.54825100  0.73241800  0.58863300  1
  C  546  1  0.54808400  0.71068100  0.59366700  1
  C  547  1  0.55767400  0.67021800  0.60633200  1
  C  548  1  0.56802800  0.66638100  0.57228500  1
  C  549  1  0.59220000  0.68439100  0.56648000  1
  C  550  1  0.60801900  0.67812600  0.55615300  1
  C  551  1  0.60077200  0.65337200  0.55184200  1
  C  552  1  0.57743800  0.63524500  0.55909000  1
  C  553  1  0.56177700  0.64159300  0.56931600  1
  C  554  1  0.54609400  0.64734900  0.61684300  1
  C  555  1  0.55075200  0.64538900  0.63778500  1
  C  556  1  0.56767500  0.66618800  0.64921000  1
  C  557  1  0.58181300  0.68828300  0.63813600  1
  C  558  1  0.57724800  0.69004100  0.61705200  1
  C  575  1  0.13473600  0.52887500  0.57191800  1
  C  576  1  0.14053000  0.52120500  0.59057300  1
  C  577  1  0.13331800  0.49645000  0.59386200  1
  C  578  1  0.11906400  0.47804100  0.57909700  1
  C  579  1  0.11636900  0.48653000  0.55944100  1
  C  580  1  0.12332400  0.51125600  0.55608800  1
  C  581  1  0.10854000  0.45077900  0.58394100  1
  C  582  1  0.13069200  0.44807700  0.57872100  1
  C  583  1  0.13594400  0.44439600  0.55806200  1
  C  584  1  0.15753800  0.44411200  0.55290400  1
  C  585  1  0.17532400  0.44852200  0.56815600  1
  C  586  1  0.17096400  0.45345800  0.58854500  1
  C  587  1  0.14937300  0.45358900  0.59356500  1
  C  588  1  0.09929600  0.44394800  0.60619000  1
  C  589  1  0.08515300  0.43364000  0.57212700  1
  C  590  1  0.07900800  0.40947400  0.56631800  1
  C  591  1  0.05692800  0.39364300  0.55599200  1
  C  592  1  0.03941200  0.40087700  0.55167600  1
  C  593  1  0.04460700  0.42421300  0.55891800  1
  C  594  1  0.06661000  0.43988000  0.56914900  1
  C  595  1  0.08797000  0.45549100  0.61670200  1
  C  596  1  0.08136900  0.45082400  0.63764700  1
  C  597  1  0.08518900  0.43384800  0.64904400  1
  C  598  1  0.09316300  0.41973400  0.63795800  1
  C  599  1  0.09953200  0.42435300  0.61688500  1
  C  616  1  0.18389200  0.47173100  0.81043700  1
  C  617  1  0.17574400  0.47789700  0.79225500  1
  C  618  1  0.15080100  0.47019900  0.78938200  1
  C  619  1  0.13261500  0.45487800  0.80393400  1
  C  620  1  0.14144600  0.45074500  0.82288000  1
  C  621  1  0.16639200  0.45846600  0.82592200  1
  C  622  1  0.10543000  0.44587000  0.80000900  1
  C  623  1  0.10475200  0.46929600  0.80474200  1
  C  624  1  0.10499500  0.47708000  0.82543700  1
  C  625  1  0.10551400  0.49919800  0.82998900  1
  C  626  1  0.10694700  0.51503600  0.81392100  1
  C  627  1  0.10845900  0.50842600  0.79334000  1
  C  628  1  0.10769900  0.48625800  0.78894300  1
  C  629  1  0.09637500  0.43597300  0.77822100  1
  C  630  1  0.08803900  0.42352800  0.81284500  1
  C  631  1  0.06633000  0.42061400  0.82227000  1
  C  632  1  0.05065700  0.39960300  0.83388500  1
  C  633  1  0.05592400  0.38043500  0.83608300  1
  C  634  1  0.07643500  0.38222600  0.82564900  1
  C  635  1  0.09173300  0.40306200  0.81386500  1
  C  636  1  0.10845000  0.42740800  0.76490200  1
  C  637  1  0.10200600  0.42235400  0.74390500  1
  C  638  1  0.08251400  0.42472900  0.73577500  1
  C  639  1  0.06798900  0.42950600  0.74950700  1
  C  640  1  0.07443100  0.43428600  0.77049500  1
  C  657  1  0.52926400  0.72703100  0.81047800  1
  C  658  1  0.52314000  0.71273800  0.79228600  1
  C  659  1  0.53084000  0.69549200  0.78942500  1
  C  660  1  0.54610400  0.69258700  0.80401200  1
  C  661  1  0.55017500  0.70551300  0.82297100  1
  C  662  1  0.54249000  0.72276900  0.82598300  1
  C  663  1  0.55510900  0.67440200  0.80011600  1
  C  664  1  0.53166700  0.65030300  0.80482700  1
  C  665  1  0.52385900  0.64274900  0.82551600  1
  C  666  1  0.50173500  0.62114400  0.83004300  1
  C  667  1  0.48592100  0.60675000  0.81395900  1
  C  668  1  0.49255100  0.61489800  0.79338600  1
  C  669  1  0.51472500  0.63630800  0.78901100  1
  C  670  1  0.56505100  0.67522900  0.77835000  1
  C  671  1  0.57742000  0.67934800  0.81299100  1
  C  672  1  0.58032900  0.66055400  0.82242400  1
  C  673  1  0.60132000  0.66589800  0.83407000  1
  C  674  1  0.62048400  0.69033200  0.83627300  1
  C  675  1  0.61870200  0.70905100  0.82582900  1
  C  676  1  0.59788100  0.70351100  0.81402300  1
  C  677  1  0.57362000  0.69584700  0.76500800  1
  C  678  1  0.57885600  0.69450600  0.74404900  1
  C  679  1  0.57648800  0.67261900  0.73597000  1
  C  680  1  0.57171100  0.65332800  0.74970800  1
  C  681  1  0.56672500  0.65495300  0.77064800  1
  C  698  1  0.27391400  0.81711000  0.81039800  1
  C  699  1  0.28823800  0.82528600  0.79222400  1
  C  700  1  0.30550100  0.85023200  0.78938800  1
  C  701  1  0.30835200  0.86839700  0.80395900  1
  C  702  1  0.29540500  0.85952700  0.82290800  1
  C  703  1  0.27816000  0.83458100  0.82591400  1
  C  704  1  0.32656000  0.89558700  0.80009000  1
  C  705  1  0.35064700  0.89623600  0.80482700  1
  C  706  1  0.35817200  0.89593800  0.82551800  1
  C  707  1  0.37976400  0.89539800  0.83006200  1
  C  708  1  0.39417000  0.89398400  0.81398600  1
  C  709  1  0.38604500  0.89248400  0.79340900  1
  C  710  1  0.36464800  0.89327000  0.78902500  1
  C  711  1  0.32579800  0.90473400  0.77832200  1
  C  712  1  0.32158900  0.91293600  0.81296300  1
  C  713  1  0.34035600  0.93461500  0.82244700  1
  C  714  1  0.33498700  0.95025500  0.83407900  1
  C  715  1  0.31055400  0.94501400  0.83620200  1
  C  716  1  0.29186600  0.92454100  0.82570700  1
  C  717  1  0.29743300  0.90926300  0.81392500  1
  C  718  1  0.30523700  0.89268900  0.76491900  1
  C  719  1  0.30670000  0.89925600  0.74394700  1
  C  720  1  0.32860300  0.91880400  0.73591900  1
  C  721  1  0.34782100  0.93330400  0.74972200  1
  C  722  1  0.34609500  0.92670100  0.77067100  1
  C  739  1  0.27448900  0.47441700  0.80820000  1
  C  740  1  0.28417100  0.47461600  0.78841100  1
  C  741  1  0.30203700  0.46772500  0.78573100  1
  C  742  1  0.31042900  0.45929700  0.80251100  1
  C  743  1  0.30290700  0.46220800  0.82254000  1
  C  744  1  0.28496400  0.46904900  0.82535100  1
  C  745  1  0.32822500  0.44957900  0.79966100  1
  C  746  1  0.35243800  0.47274200  0.80460400  1
  C  747  1  0.36370900  0.47770400  0.82441600  1
  C  748  1  0.38544100  0.49980000  0.82874000  1
  C  749  1  0.39634900  0.51848600  0.81366500  1
  C  750  1  0.38440300  0.51443900  0.79435000  1
  C  751  1  0.36290000  0.49228500  0.79008800  1
  C  752  1  0.32710500  0.43894600  0.77812700  1
  C  753  1  0.32235700  0.42742200  0.81316700  1
  C  754  1  0.34033900  0.42068400  0.81754600  1
  C  755  1  0.33493500  0.39988700  0.82952500  1
  C  756  1  0.31091000  0.38429000  0.83687800  1
  C  757  1  0.29247600  0.38978300  0.83138300  1
  C  758  1  0.29802900  0.41057200  0.81953800  1
  C  759  1  0.30411200  0.42284900  0.76879000  1
  C  760  1  0.30230900  0.41599300  0.74791700  1
  C  761  1  0.32357800  0.42407200  0.73569100  1
  C  762  1  0.34658700  0.43663500  0.74568300  1
  C  763  1  0.34822100  0.44358500  0.76659500  1
  C  780  1  0.18600900  0.72650500  0.80812200  1
  C  781  1  0.17651400  0.71684700  0.78833200  1
  C  782  1  0.15176000  0.69896400  0.78565700  1
  C  783  1  0.13495800  0.69052100  0.80244900  1
  C  784  1  0.14540400  0.69802400  0.82247600  1
  C  785  1  0.17017500  0.71600900  0.82527600  1
  C  786  1  0.10744200  0.67271500  0.79960500  1
  C  787  1  0.10641500  0.64851000  0.80454400  1
  C  788  1  0.10003400  0.63720500  0.82434000  1
  C  789  1  0.10040700  0.61548000  0.82867200  1
  C  790  1  0.10822800  0.60459200  0.81361600  1
  C  791  1  0.11614900  0.61654600  0.79430300  1
  C  792  1  0.11550900  0.63805300  0.79003700  1
  C  793  1  0.09793000  0.67385300  0.77807600  1
  C  794  1  0.09114400  0.67856100  0.81312400  1
  C  795  1  0.06640800  0.66057800  0.81744700  1
  C  796  1  0.05100300  0.66595000  0.82944100  1
  C  797  1  0.05943200  0.68995100  0.83685500  1
  C  798  1  0.08337900  0.70839200  0.83142000  1
  C  799  1  0.09863000  0.70286800  0.81956500  1
  C  800  1  0.10476900  0.69686100  0.76879300  1
  C  801  1  0.09981000  0.69870200  0.74790300  1
  C  802  1  0.08666100  0.67746400  0.73563300  1
  C  803  1  0.07625000  0.65443000  0.74557700  1
  C  804  1  0.08153200  0.65275100  0.76649300  1
  C  821  1  0.52655900  0.81493200  0.80817900  1
  C  822  1  0.52639000  0.82442600  0.78838900  1
  C  823  1  0.53326400  0.84918000  0.78571700  1
  C  824  1  0.54163600  0.86598400  0.80250900  1
  C  825  1  0.53870800  0.85553900  0.82253500  1
  C  826  1  0.53192200  0.83076800  0.82533200  1
  C  827  1  0.55135600  0.89350000  0.79966900  1
  C  828  1  0.52818400  0.89453500  0.80460400  1
  C  829  1  0.52323900  0.90087200  0.82441200  1
  C  830  1  0.50114500  0.90050900  0.82873900  1
  C  831  1  0.48245000  0.89271100  0.81367200  1
  C  832  1  0.48650200  0.88483300  0.79434700  1
  C  833  1  0.50865300  0.88548200  0.79007800  1
  C  834  1  0.56201500  0.90302500  0.77814400  1
  C  835  1  0.57350500  0.90978000  0.81318700  1
  C  836  1  0.58024200  0.93450600  0.81754600  1
  C  837  1  0.60102900  0.94990300  0.82953300  1
  C  838  1  0.61661900  0.94147700  0.83690800  1
  C  839  1  0.61112100  0.91754100  0.83143700  1
  C  840  1  0.59033400  0.90229400  0.81959700  1
  C  841  1  0.57815000  0.89615600  0.76883800  1
  C  842  1  0.58500000  0.90118500  0.74796200  1
  C  843  1  0.57697300  0.91441500  0.73572900  1
  C  844  1  0.56437500  0.92483500  0.74569700  1
  C  845  1  0.55737600  0.91949400  0.76659900  1
  C  862  1  0.47286900  0.87238900  0.57488900  1
  C  863  1  0.48179700  0.87091900  0.59459400  1
  C  864  1  0.50661700  0.87818700  0.59758900  1
  C  865  1  0.52405500  0.88844500  0.58134000  1
  C  866  1  0.51440100  0.88771300  0.56129600  1
  C  867  1  0.48952300  0.88026600  0.55813500  1
  C  868  1  0.55133000  0.89718400  0.58435200  1
  C  869  1  0.55150200  0.87388800  0.57803700  1
  C  870  1  0.55800600  0.86984700  0.55797300  1
  C  871  1  0.55784000  0.84799700  0.55288100  1
  C  872  1  0.54984500  0.82866900  0.56734800  1
  C  873  1  0.54167300  0.83178500  0.58686600  1
  C  874  1  0.54237200  0.85375300  0.59196600  1
  C  875  1  0.56133200  0.90558300  0.60621400  1
  C  876  1  0.56804700  0.92038700  0.57216300  1
  C  877  1  0.59222200  0.92653100  0.56633900  1
  C  878  1  0.60798700  0.94846600  0.55583500  1
  C  879  1  0.60073600  0.96595200  0.55159400  1
  C  880  1  0.57745500  0.96089000  0.55881700  1
  C  881  1  0.56174400  0.93887800  0.56906900  1
  C  882  1  0.55363600  0.91895600  0.61887000  1
  C  883  1  0.56024500  0.92351700  0.63988900  1
  C  884  1  0.57595100  0.91600000  0.64867200  1
  C  885  1  0.58715700  0.90671900  0.63535700  1
  C  886  1  0.58017000  0.90191200  0.61448800  1
  C  903  1  0.12914400  0.61524600  0.57482100  1
  C  904  1  0.13061900  0.62563700  0.59452800  1
  C  905  1  0.12337900  0.64320900  0.59752600  1
  C  906  1  0.11317100  0.65043600  0.58127200  1
  C  907  1  0.11392100  0.64153400  0.56122200  1
  C  908  1  0.12130900  0.62405900  0.55806400  1
  C  909  1  0.10448000  0.66901100  0.58428000  1
  C  910  1  0.12780200  0.69245400  0.57796300  1
  C  911  1  0.13185900  0.70300800  0.55790300  1
  C  912  1  0.15372500  0.72467400  0.55281500  1
  C  913  1  0.17305200  0.73598700  0.56728800  1
  C  914  1  0.16991500  0.72469000  0.58680300  1
  C  915  1  0.14794300  0.70342200  0.59189000  1
  C  916  1  0.09609800  0.67064700  0.60614200  1
  C  917  1  0.08128900  0.66256300  0.57208700  1
  C  918  1  0.07518700  0.68062200  0.56626200  1
  C  919  1  0.05326000  0.67448800  0.55576300  1
  C  920  1  0.03574200  0.64976100  0.55152100  1
  C  921  1  0.04076500  0.63151400  0.55874000  1
  C  922  1  0.06277000  0.63777900  0.56899100  1
  C  923  1  0.08268100  0.64958800  0.61879900  1
  C  924  1  0.07812900  0.65166600  0.63981400  1
  C  925  1  0.08560300  0.67488700  0.64857400  1
  C  926  1  0.09494800  0.69537100  0.63525200  1
  C  927  1  0.09980200  0.69317200  0.61440000  1
  C  944  1  0.38641800  0.52880000  0.57490100  1
  C  945  1  0.37600100  0.51988700  0.59460200  1
  C  946  1  0.35842200  0.49507400  0.59759400  1
  C  947  1  0.35122500  0.47763600  0.58134300  1
  C  948  1  0.36018100  0.48728300  0.56130400  1
  C  949  1  0.37762900  0.51215400  0.55814300  1
  C  950  1  0.33263500  0.45037200  0.58433800  1
  C  951  1  0.30921100  0.45026600  0.57798300  1
  C  952  1  0.29870600  0.44381100  0.55790300  1
  C  953  1  0.27705300  0.44402400  0.55278800  1
  C  954  1  0.26570200  0.45199900  0.56725700  1
  C  955  1  0.27695900  0.46013100  0.58678900  1
  C  956  1  0.29821900  0.45942200  0.59190200  1
  C  957  1  0.33092600  0.44031900  0.60619600  1
  C  958  1  0.33911000  0.43363700  0.57216300  1
  C  959  1  0.32106300  0.40949900  0.56627100  1
  C  960  1  0.32722800  0.39371900  0.55579000  1
  C  961  1  0.35196800  0.40092100  0.55161700  1
  C  962  1  0.37019500  0.42416400  0.55890700  1
  C  963  1  0.36390300  0.43988700  0.56915100  1
  C  964  1  0.35193400  0.44796500  0.61891900  1
  C  965  1  0.34975800  0.44132900  0.63994000  1
  C  966  1  0.32649900  0.42556500  0.64863400  1
  C  967  1  0.30608100  0.41442400  0.63524000  1
  C  968  1  0.30838100  0.42143200  0.61437100  1
  C  985  1  0.71440200  0.53468100  0.23800900  1
  C  986  1  0.69991000  0.52752800  0.25612200  1
  C  987  1  0.68231800  0.53467000  0.25946600  1
  C  988  1  0.67912300  0.55019900  0.24538400  1
  C  989  1  0.69171000  0.55470400  0.22621500  1
  C  990  1  0.70945600  0.54774200  0.22279900  1
  C  991  1  0.66194200  0.56010500  0.25060800  1
  C  992  1  0.63720300  0.53735100  0.24614800  1
  C  993  1  0.62892200  0.53019800  0.22548700  1
  C  994  1  0.60711900  0.50827700  0.22094000  1
  C  995  1  0.59303100  0.49206400  0.23693400  1
  C  996  1  0.60170400  0.49824100  0.25744300  1
  C  997  1  0.62341400  0.52014300  0.26184800  1
  C  998  1  0.66499400  0.56981100  0.27276000  1
  C  999  1  0.66691700  0.58290600  0.23843000  1
  C  1000  1  0.64806900  0.58684300  0.23056700  1
  C  1001  1  0.65341700  0.60799200  0.21912300  1
  C  1002  1  0.67795900  0.62636800  0.21565300  1
  C  1003  1  0.69683900  0.62369300  0.22477000  1
  C  1004  1  0.69132600  0.60270400  0.23629900  1
  C  1005  1  0.68760300  0.57968400  0.28356800  1
  C  1006  1  0.68960600  0.58635000  0.30449900  1
  C  1007  1  0.66915200  0.58391600  0.31561300  1
  C  1008  1  0.64762900  0.57761900  0.30418600  1
  C  1009  1  0.64587100  0.57132400  0.28309100  1
  C  1026  1  0.80563800  0.28581800  0.23797900  1
  C  1027  1  0.81298600  0.30028400  0.25611000  1
  C  1028  1  0.83771100  0.31791300  0.25944400  1
  C  1029  1  0.85643500  0.32109700  0.24536500  1
  C  1030  1  0.84834900  0.30854200  0.22618400  1
  C  1031  1  0.82364300  0.29080500  0.22275700  1
  C  1032  1  0.88352300  0.33830600  0.25056400  1
  C  1033  1  0.88549600  0.36303200  0.24607700  1
  C  1034  1  0.88658900  0.37129000  0.22541100  1
  C  1035  1  0.88644600  0.39307600  0.22084800  1
  C  1036  1  0.88430800  0.40716400  0.23683300  1
  C  1037  1  0.88182100  0.39850800  0.25734600  1
  C  1038  1  0.88204000  0.37681400  0.26176000  1
  C  1039  1  0.89024700  0.33535500  0.27271500  1
  C  1040  1  0.90131600  0.33329000  0.23838200  1
  C  1041  1  0.92408500  0.35210500  0.23046000  1
  C  1042  1  0.93987300  0.34671000  0.21905100  1
  C  1043  1  0.93369800  0.32215200  0.21564800  1
  C  1044  1  0.91215900  0.30331100  0.22482000  1
  C  1045  1  0.89670800  0.30887400  0.23633200  1
  C  1046  1  0.87754700  0.31280900  0.28361400  1
  C  1047  1  0.88233700  0.31090500  0.30453400  1
  C  1048  1  0.90046700  0.33139400  0.31554200  1
  C  1049  1  0.91562600  0.35285500  0.30401900  1
  C  1050  1  0.91095900  0.35451300  0.28294100  1
  C  1067  1  0.46557500  0.19461800  0.23795300  1
  C  1068  1  0.47275400  0.18729800  0.25606700  1
  C  1069  1  0.46563000  0.16257100  0.25943000  1
  C  1070  1  0.45001300  0.14382400  0.24540200  1
  C  1071  1  0.44546100  0.15187600  0.22623800  1
  C  1072  1  0.45249400  0.17658900  0.22276200  1
  C  1073  1  0.44010000  0.11674000  0.25065800  1
  C  1074  1  0.46283000  0.11471700  0.24618800  1
  C  1075  1  0.46998200  0.11357400  0.22552800  1
  C  1076  1  0.49188900  0.11366400  0.22098000  1
  C  1077  1  0.50810700  0.11579600  0.23697100  1
  C  1078  1  0.50195300  0.11833400  0.25747600  1
  C  1079  1  0.48006400  0.11816700  0.26187600  1
  C  1080  1  0.43045400  0.11011100  0.27282300  1
  C  1081  1  0.41726800  0.09892800  0.23851000  1
  C  1082  1  0.41329500  0.07614600  0.23060300  1
  C  1083  1  0.39210400  0.06036000  0.21919900  1
  C  1084  1  0.37373300  0.06654800  0.21578800  1
  C  1085  1  0.37644300  0.08809400  0.22496100  1
  C  1086  1  0.39746300  0.10354000  0.23646500  1
  C  1087  1  0.42070000  0.12291200  0.28369900  1
  C  1088  1  0.41410800  0.11825600  0.30464700  1
  C  1089  1  0.41653300  0.10020400  0.31572000  1
  C  1090  1  0.42270600  0.08492300  0.30423200  1
  C  1091  1  0.42890600  0.08944100  0.28312100  1
  C  1108  1  0.51719100  0.13823000  0.47647800  1
  C  1109  1  0.50891000  0.14419800  0.45826700  1
  C  1110  1  0.48394900  0.13650500  0.45550400  1
  C  1111  1  0.46586800  0.12135100  0.47019600  1
  C  1112  1  0.47484900  0.11745600  0.48916200  1
  C  1113  1  0.49980600  0.12517000  0.49209600  1
  C  1114  1  0.43865000  0.11232500  0.46642300  1
  C  1115  1  0.43800600  0.13578700  0.47109100  1
  C  1116  1  0.43834100  0.14368900  0.49176000  1
  C  1117  1  0.43892900  0.16585900  0.49624200  1
  C  1118  1  0.44034000  0.18164200  0.48013000  1
  C  1119  1  0.44177800  0.17491800  0.45957100  1
  C  1120  1  0.44095800  0.15270400  0.45524500  1
  C  1121  1  0.42936600  0.10228300  0.44471100  1
  C  1122  1  0.42141600  0.09004800  0.47939700  1
  C  1123  1  0.39975700  0.08710300  0.48894300  1
  C  1124  1  0.38422200  0.06612200  0.50065600  1
  C  1125  1  0.38955400  0.04699200  0.50281700  1
  C  1126  1  0.41002100  0.04881900  0.49227700  1
  C  1127  1  0.42517600  0.06961900  0.48039600  1
  C  1128  1  0.44127300  0.09359100  0.43133000  1
  C  1129  1  0.43459700  0.08837800  0.41038500  1
  C  1130  1  0.41499200  0.09065700  0.40240400  1
  C  1131  1  0.40064800  0.09560700  0.41619300  1
  C  1132  1  0.40739400  0.10064000  0.43710700  1
  C  1149  1  0.86354900  0.39393000  0.47646700  1
  C  1150  1  0.85747100  0.37963200  0.45827900  1
  C  1151  1  0.86513000  0.36234300  0.45548200  1
  C  1152  1  0.88035600  0.35943800  0.47011100  1
  C  1153  1  0.88436400  0.37236200  0.48906300  1
  C  1154  1  0.87669500  0.38963700  0.49202600  1
  C  1155  1  0.88936700  0.34124400  0.46627000  1
  C  1156  1  0.86590400  0.31712600  0.47091100  1
  C  1157  1  0.85797900  0.30954400  0.49157400  1
  C  1158  1  0.83582500  0.28793400  0.49603900  1
  C  1159  1  0.82006500  0.27356300  0.47991400  1
  C  1160  1  0.82680600  0.28174300  0.45936200  1
  C  1161  1  0.84900900  0.30315600  0.45505500  1
  C  1162  1  0.89938300  0.34206600  0.44453300  1
  C  1163  1  0.91165900  0.34624200  0.47920400  1
  C  1164  1  0.91454300  0.32750100  0.48877400  1
  C  1165  1  0.93551500  0.33290900  0.50048400  1
  C  1166  1  0.95468200  0.35735400  0.50263600  1
  C  1167  1  0.95290500  0.37601600  0.49208500  1
  C  1168  1  0.93211700  0.37041000  0.48020300  1
  C  1169  1  0.90795300  0.36265700  0.43115700  1
  C  1170  1  0.91308900  0.36122400  0.41018700  1
  C  1171  1  0.91081900  0.33936000  0.40217200  1
  C  1172  1  0.90599100  0.32007500  0.41593000  1
  C  1173  1  0.90106000  0.32177400  0.43687500  1
  C  1190  1  0.60789400  0.48439800  0.47656300  1
  C  1191  1  0.62212300  0.49267600  0.45834100  1
  C  1192  1  0.63936100  0.51764000  0.45554800  1
  C  1193  1  0.64227800  0.53573000  0.47022400  1
  C  1194  1  0.62941500  0.52677200  0.48919600  1
  C  1195  1  0.61220200  0.50180700  0.49215600  1
  C  1196  1  0.66038900  0.56295600  0.46638400  1
  C  1197  1  0.68455000  0.56369100  0.47099300  1
  C  1198  1  0.69217900  0.56340900  0.49165200  1
  C  1199  1  0.71380000  0.56288200  0.49610100  1
  C  1200  1  0.72814500  0.56146700  0.47996800  1
  C  1201  1  0.71993300  0.55998900  0.45942200  1
  C  1202  1  0.69850500  0.56076000  0.45512800  1
  C  1203  1  0.65945400  0.57211100  0.44466000  1
  C  1204  1  0.65536700  0.58021500  0.47934600  1
  C  1205  1  0.67411800  0.60192800  0.48880000  1
  C  1206  1  0.66870900  0.61748300  0.50052100  1
  C  1207  1  0.64424300  0.61209700  0.50281100  1
  C  1208  1  0.62556100  0.59157400  0.49235900  1
  C  1209  1  0.63116600  0.57639400  0.48047200  1
  C  1210  1  0.63874600  0.56011000  0.43140600  1
  C  1211  1  0.63997400  0.56670400  0.41046100  1
  C  1212  1  0.66181200  0.58621100  0.40230800  1
  C  1213  1  0.68122700  0.60063900  0.41597200  1
  C  1214  1  0.67970200  0.59404600  0.43691200  1
  C  1231  1  0.60788300  0.14106900  0.47413700  1
  C  1232  1  0.61744300  0.14102200  0.45434800  1
  C  1233  1  0.63539300  0.13422600  0.45174300  1
  C  1234  1  0.64403900  0.12619600  0.46861800  1
  C  1235  1  0.63662600  0.12935700  0.48861500  1
  C  1236  1  0.61854500  0.13602600  0.49134100  1
  C  1237  1  0.66191000  0.11654500  0.46591400  1
  C  1238  1  0.68608700  0.13977400  0.47083800  1
  C  1239  1  0.69750100  0.14472500  0.49058900  1
  C  1240  1  0.71929500  0.16680000  0.49482900  1
  C  1241  1  0.73016600  0.18547000  0.47973100  1
  C  1242  1  0.71807100  0.18142600  0.46048500  1
  C  1243  1  0.69648600  0.15930700  0.45631100  1
  C  1244  1  0.66091100  0.10584300  0.44442900  1
  C  1245  1  0.65601100  0.09444000  0.47952100  1
  C  1246  1  0.67396100  0.08765700  0.48390100  1
  C  1247  1  0.66854700  0.06690000  0.49594600  1
  C  1248  1  0.64453100  0.05135300  0.50335100  1
  C  1249  1  0.62613000  0.05689900  0.49786600  1
  C  1250  1  0.63169900  0.07766700  0.48598100  1
  C  1251  1  0.63798000  0.08946400  0.43513600  1
  C  1252  1  0.63624700  0.08232500  0.41434300  1
  C  1253  1  0.65752300  0.09043700  0.40210700  1
  C  1254  1  0.68051200  0.10341900  0.41209600  1
  C  1255  1  0.68208800  0.11061800  0.43293100  1
  C  1272  1  0.51999500  0.39375200  0.47422500  1
  C  1273  1  0.51037200  0.38419100  0.45443800  1
  C  1274  1  0.48562100  0.36625600  0.45183100  1
  C  1275  1  0.46894000  0.35763500  0.46870200  1
  C  1276  1  0.47950200  0.36511500  0.48869500  1
  C  1277  1  0.50427200  0.38313400  0.49142600  1
  C  1278  1  0.44142600  0.33972900  0.46600800  1
  C  1279  1  0.44052300  0.31558500  0.47098800  1
  C  1280  1  0.43409000  0.30421200  0.49075300  1
  C  1281  1  0.43440000  0.28243900  0.49502000  1
  C  1282  1  0.44219100  0.27155200  0.47993200  1
  C  1283  1  0.45022300  0.28361400  0.46067200  1
  C  1284  1  0.44966600  0.30518100  0.45647000  1
  C  1285  1  0.43168000  0.34061700  0.44451600  1
  C  1286  1  0.42521200  0.34564600  0.47958700  1
  C  1287  1  0.40050500  0.32768000  0.48403200  1
  C  1288  1  0.38515400  0.33311800  0.49604100  1
  C  1289  1  0.39359500  0.35716300  0.50335500  1
  C  1290  1  0.41751800  0.37557000  0.49781700  1
  C  1291  1  0.43271600  0.36998300  0.48594700  1
  C  1292  1  0.43819000  0.36349500  0.43513400  1
  C  1293  1  0.43272200  0.36508900  0.41432900  1
  C  1294  1  0.41946700  0.34373200  0.40220000  1
  C  1295  1  0.40950700  0.32081200  0.41230100  1
  C  1296  1  0.41517000  0.31937100  0.43314800  1
  C  1313  1  0.86079400  0.48183500  0.47410400  1
  C  1314  1  0.86083400  0.49143300  0.45431200  1
  C  1315  1  0.86760800  0.51617200  0.45169300  1
  C  1316  1  0.87559300  0.53285300  0.46856400  1
  C  1317  1  0.87247500  0.52229500  0.48856200  1
  C  1318  1  0.86583900  0.49755500  0.49129900  1
  C  1319  1  0.88516000  0.56036100  0.46586600  1
  C  1320  1  0.86190000  0.56122900  0.47085200  1
  C  1321  1  0.85698600  0.56774000  0.49059300  1
  C  1322  1  0.83490300  0.56743600  0.49485300  1
  C  1323  1  0.81619700  0.55957500  0.47978200  1
  C  1324  1  0.82019100  0.55143300  0.46056100  1
  C  1325  1  0.84231800  0.55199500  0.45636400  1
  C  1326  1  0.89577300  0.57009900  0.44436400  1
  C  1327  1  0.90728900  0.57660800  0.47943600  1
  C  1328  1  0.91402700  0.60132000  0.48385000  1
  C  1329  1  0.93478400  0.61667500  0.49588900  1
  C  1330  1  0.95036800  0.60823500  0.50326100  1
  C  1331  1  0.94486400  0.58431000  0.49774600  1
  C  1332  1  0.92410300  0.56910200  0.48585500  1
  C  1333  1  0.91220100  0.56365500  0.43500400  1
  C  1334  1  0.91918800  0.56903200  0.41417700  1
  C  1335  1  0.91089300  0.58207900  0.40199200  1
  C  1336  1  0.89795200  0.59207600  0.41206900  1
  C  1337  1  0.89088300  0.58646000  0.43292700  1
  C  1354  1  0.80571100  0.53906700  0.24102300  1
  C  1355  1  0.81423500  0.53612400  0.26044600  1
  C  1356  1  0.83906700  0.54346100  0.26352700  1
  C  1357  1  0.85690200  0.55545500  0.24779300  1
  C  1358  1  0.84765300  0.55611800  0.22787800  1
  C  1359  1  0.82277500  0.54853200  0.22459100  1
  C  1360  1  0.88410600  0.56417600  0.25117600  1
  C  1361  1  0.88420600  0.54058400  0.24593800  1
  C  1362  1  0.88743100  0.53442900  0.22547900  1
  C  1363  1  0.88682000  0.51224800  0.22096000  1
  C  1364  1  0.88146700  0.49456900  0.23657000  1
  C  1365  1  0.87628800  0.49962000  0.25664800  1
  C  1366  1  0.87743300  0.52195100  0.26111000  1
  C  1367  1  0.89421100  0.57363000  0.27282300  1
  C  1368  1  0.90094900  0.58677700  0.23839600  1
  C  1369  1  0.92384900  0.59121900  0.23040200  1
  C  1370  1  0.93923700  0.61246600  0.21892400  1
  C  1371  1  0.93266900  0.63059300  0.21565600  1
  C  1372  1  0.91090000  0.62733300  0.22485700  1
  C  1373  1  0.89574900  0.60618000  0.23635000  1
  C  1374  1  0.88465700  0.58492300  0.28598400  1
  C  1375  1  0.89176700  0.58999400  0.30686700  1
  C  1376  1  0.90967900  0.58508000  0.31499100  1
  C  1377  1  0.92230600  0.57792100  0.30116900  1
  C  1378  1  0.91490700  0.57267100  0.28041500  1
  C  1395  1  0.46117000  0.28152600  0.24096100  1
  C  1396  1  0.46428900  0.29308500  0.26036400  1
  C  1397  1  0.45696000  0.31057900  0.26348800  1
  C  1398  1  0.44479500  0.31632200  0.24783800  1
  C  1399  1  0.44395400  0.30631700  0.22792900  1
  C  1400  1  0.45155100  0.28904300  0.22458900  1
  C  1401  1  0.43607000  0.33478900  0.25130500  1
  C  1402  1  0.45964300  0.35850500  0.24607800  1
  C  1403  1  0.46580800  0.36785600  0.22561000  1
  C  1404  1  0.48797500  0.38944100  0.22108500  1
  C  1405  1  0.50563800  0.40180300  0.23669800  1
  C  1406  1  0.50058200  0.39160800  0.25678700  1
  C  1407  1  0.47826100  0.37040900  0.26125400  1
  C  1408  1  0.42664900  0.33536600  0.27298300  1
  C  1409  1  0.41344100  0.32905600  0.23857700  1
  C  1410  1  0.40902800  0.34752000  0.23055300  1
  C  1411  1  0.38775800  0.34166900  0.21910900  1
  C  1412  1  0.36960200  0.31697500  0.21588200  1
  C  1413  1  0.37282900  0.29846600  0.22512100  1
  C  1414  1  0.39399400  0.30446500  0.23659600  1
  C  1415  1  0.41555700  0.31453500  0.28617000  1
  C  1416  1  0.41054200  0.31653400  0.30707600  1
  C  1417  1  0.41545500  0.33934800  0.31522300  1
  C  1418  1  0.42241200  0.35910900  0.30141200  1
  C  1419  1  0.42753600  0.35697100  0.28061900  1
  C  1436  1  0.71867700  0.19453300  0.24098800  1
  C  1437  1  0.70723700  0.18602900  0.26042500  1
  C  1438  1  0.68973600  0.16120200  0.26351900  1
  C  1439  1  0.68385800  0.14336000  0.24778300  1
  C  1440  1  0.69373900  0.15259200  0.22786000  1
  C  1441  1  0.71103200  0.17746600  0.22455700  1
  C  1442  1  0.66543200  0.11615100  0.25122100  1
  C  1443  1  0.64170000  0.11599400  0.24603000  1
  C  1444  1  0.63224500  0.11265800  0.22559000  1
  C  1445  1  0.61063600  0.11321000  0.22109600  1
  C  1446  1  0.59834100  0.11859900  0.23670900  1
  C  1447  1  0.60861700  0.12383700  0.25677000  1
  C  1448  1  0.62985000  0.12276700  0.26120800  1
  C  1449  1  0.66492800  0.10615000  0.27288200  1
  C  1450  1  0.67116000  0.09929000  0.23843900  1
  C  1451  1  0.65267900  0.07631600  0.23058700  1
  C  1452  1  0.65849700  0.06090300  0.21909900  1
  C  1453  1  0.68318400  0.06752900  0.21567900  1
  C  1454  1  0.70173000  0.08937400  0.22475300  1
  C  1455  1  0.69576600  0.10453800  0.23626800  1
  C  1456  1  0.68588700  0.11574600  0.28591600  1
  C  1457  1  0.68400400  0.10880000  0.30683200  1
  C  1458  1  0.66123800  0.09096900  0.31510100  1
  C  1459  1  0.64132700  0.07826500  0.30140700  1
  C  1460  1  0.64331400  0.08553300  0.28062700  1
  C  1477  1  0.86139300  0.09157400  0.89521400  1
  C  1478  1  0.86136900  0.11204900  0.88629600  1
  C  1479  1  0.88299800  0.13538300  0.88656200  1
  C  1480  1  0.90439300  0.13725700  0.89574500  1
  C  1484  1  0.88231500  0.15607600  0.88002700  1
  C  1485  1  0.87392500  0.16772600  0.89469000  1
  C  1490  1  0.21628400  0.13962800  0.89511000  1
  C  1491  1  0.23682600  0.13966600  0.88628000  1
  C  1492  1  0.23849200  0.11801800  0.88650600  1
  C  1493  1  0.21890300  0.09658800  0.89558300  1
  C  1497  1  0.25989700  0.11871700  0.88011300  1
  C  1498  1  0.28009000  0.12708900  0.89458400  1
  C  1503  1  0.90941600  0.78465800  0.89517700  1
  C  1504  1  0.88893400  0.76415200  0.88628100  1
  C  1505  1  0.86561300  0.76246900  0.88653100  1
  C  1506  1  0.86375400  0.78201300  0.89568400  1
  C  1510  1  0.84494300  0.74114100  0.87997800  1
  C  1511  1  0.83304100  0.72103900  0.89457600  1
  C  1516  1  0.77293800  0.91459200  0.15201600  1
  C  1517  1  0.75313700  0.89416500  0.16171200  1
  C  1518  1  0.75216500  0.87116900  0.16202300  1
  C  1519  1  0.77172900  0.86957600  0.15261300  1
  C  1523  1  0.73143500  0.85042200  0.16942900  1
  C  1524  1  0.71092000  0.83754800  0.15538300  1
  C  1529  1  0.08552000  0.87330700  0.15226100  1
  C  1530  1  0.10599700  0.87389000  0.16181400  1
  C  1531  1  0.12897300  0.89592900  0.16218700  1
  C  1532  1  0.13054400  0.91712100  0.15286900  1
  C  1536  1  0.14972500  0.89590300  0.16945500  1
  C  1537  1  0.16276200  0.88828400  0.15560700  1
  C  1542  1  0.12695100  0.22713900  0.15213700  1
  C  1543  1  0.12631200  0.24694700  0.16180500  1
  C  1544  1  0.10426000  0.24786100  0.16215400  1
  C  1545  1  0.08308200  0.22824800  0.15281400  1
  C  1549  1  0.10424000  0.26856500  0.16954800  1
  C  1550  1  0.11164900  0.28909700  0.15554200  1
  C  1555  1  0.19487400  0.75849700  0.56325300  1
  C  1556  1  0.19506700  0.77896300  0.55408500  1
  C  1557  1  0.21678300  0.80223100  0.55428300  1
  C  1558  1  0.23805500  0.80408200  0.56370900  1
  C  1562  1  0.21626200  0.82290600  0.54751300  1
  C  1563  1  0.20785400  0.83501100  0.56164100  1
  C  1568  1  0.55055100  0.80686300  0.56329000  1
  C  1569  1  0.57086200  0.80668600  0.55419200  1
  C  1570  1  0.57239500  0.78496200  0.55435100  1
  C  1571  1  0.55294900  0.76365800  0.56371700  1
  C  1575  1  0.59357400  0.78547300  0.54754400  1
  C  1576  1  0.61411000  0.79387000  0.56164900  1
  C  1581  1  0.24318900  0.45129400  0.56319700  1
  C  1582  1  0.22274000  0.43101500  0.55401500  1
  C  1583  1  0.19944900  0.42941400  0.55423500  1
  C  1584  1  0.19755700  0.44881600  0.56365200  1
  C  1588  1  0.17878800  0.40821300  0.54738300  1
  C  1589  1  0.16689200  0.38790200  0.56176500  1
  C  1594  1  0.10805800  0.58221600  0.81720800  1
  C  1595  1  0.08945600  0.56227500  0.82837100  1
  C  1596  1  0.08864100  0.53936800  0.82872800  1
  C  1597  1  0.10709100  0.53729100  0.81776100  1
  C  1601  1  0.06890000  0.51907100  0.83776600  1
  C  1602  1  0.04670900  0.50512300  0.82576100  1
  C  1607  1  0.41874000  0.54068500  0.81723600  1
  C  1608  1  0.43867000  0.54202000  0.82841200  1
  C  1609  1  0.46158900  0.56410000  0.82875100  1
  C  1610  1  0.46366900  0.58461900  0.81777000  1
  C  1614  1  0.48184600  0.56468200  0.83788400  1
  C  1615  1  0.49586200  0.55662900  0.82568500  1
  C  1620  1  0.46023900  0.89287600  0.81725300  1
  C  1621  1  0.45888500  0.91143800  0.82846700  1
  C  1622  1  0.43680100  0.91227600  0.82880500  1
  C  1623  1  0.41629700  0.89385700  0.81779200  1
  C  1627  1  0.43621300  0.93198100  0.83793200  1
  C  1628  1  0.44446800  0.95402000  0.82566800  1
  C  1633  1  0.52775000  0.42413100  0.23298800  1
  C  1634  1  0.52886000  0.44378300  0.22156300  1
  C  1635  1  0.55064700  0.46697500  0.22147200  1
  C  1636  1  0.57106700  0.46961400  0.23301200  1
  C  1640  1  0.55084800  0.48698200  0.21220000  1
  C  1641  1  0.54174100  0.50045100  0.22382300  1
  C  1646  1  0.88167100  0.47244800  0.23288200  1
  C  1647  1  0.90018700  0.47132100  0.22142400  1
  C  1648  1  0.90161900  0.44955000  0.22137400  1
  C  1649  1  0.88383100  0.42913400  0.23291300  1
  C  1653  1  0.92139500  0.44933800  0.21206500  1
  C  1654  1  0.94381800  0.45825700  0.22394300  1
  C  1659  1  0.57600100  0.11837300  0.23303600  1
  C  1660  1  0.55635500  0.09986000  0.22158000  1
  C  1661  1  0.53316100  0.09845100  0.22152600  1
  C  1662  1  0.53054200  0.11624100  0.23307400  1
  C  1666  1  0.51313300  0.07863400  0.21228500  1
  C  1667  1  0.49966700  0.05608500  0.22394300  1
  C  1672  1  0.44185100  0.24906200  0.48342900  1
  C  1673  1  0.42325700  0.22918300  0.49465300  1
  C  1674  1  0.42231400  0.20621300  0.49500900  1
  C  1675  1  0.44058000  0.20396900  0.48390200  1
  C  1679  1  0.40262800  0.18602700  0.50422200  1
  C  1680  1  0.38027900  0.17208800  0.49241000  1
  C  1685  1  0.75265300  0.20763100  0.48320900  1
  C  1686  1  0.77251000  0.20895600  0.49450400  1
  C  1687  1  0.79549700  0.23097100  0.49481400  1
  C  1688  1  0.79774400  0.25145600  0.48365800  1
  C  1692  1  0.81568900  0.23149500  0.50408700  1
  C  1693  1  0.82944100  0.22306300  0.49199500  1
  C  1698  1  0.79405200  0.55993000  0.48326600  1
  C  1699  1  0.79276900  0.57852400  0.49449500  1
  C  1700  1  0.77075800  0.57949900  0.49482200  1
  C  1701  1  0.75023500  0.56122800  0.48372600  1
  C  1705  1  0.77028900  0.59922600  0.50398000  1
  C  1706  1  0.77872000  0.62154500  0.49211900  1
  C  1711  1  0.02159900  0.31755900  0.87344200  1
  C  1712  1  0.00703000  0.32038400  0.85821600  1
  C  1713  1  0.01700100  0.34178000  0.84575600  1
  C  1714  1  0.04188200  0.35994500  0.84896200  1
  C  1718  1  0.00347200  0.34389600  0.82977100  1
  C  1719  1  0.98312600  0.34758200  0.83493700  1
  C  1724  1  0.28191500  0.97928700  0.87351000  1
  C  1725  1  0.29941900  0.99390600  0.85837100  1
  C  1726  1  0.31086600  0.98394900  0.84592000  1
  C  1727  1  0.30406500  0.95903400  0.84906900  1
  C  1731  1  0.32657300  0.99750600  0.82993900  1
  C  1732  1  0.35054300  0.01779400  0.83529200  1
  C  1737  1  0.68340100  0.71891500  0.87358100  1
  C  1738  1  0.68053100  0.70147100  0.85839000  1
  C  1739  1  0.65911500  0.69002400  0.84595500  1
  C  1740  1  0.64097100  0.69677100  0.84915400  1
  C  1744  1  0.65695000  0.67430900  0.83000300  1
  C  1745  1  0.65362400  0.65040500  0.83498900  1
  C  1750  1  0.70698900  0.68944600  0.17839900  1
  C  1751  1  0.69042800  0.68718000  0.19424300  1
  C  1752  1  0.67876500  0.66575900  0.20665800  1
  C  1753  1  0.68440100  0.64693500  0.20282800  1
  C  1757  1  0.66388600  0.66417700  0.22310600  1
  C  1758  1  0.64006000  0.66142800  0.21862700  1
  C  1763  1  0.31067800  0.03252800  0.17847500  1
  C  1764  1  0.31304400  0.01814600  0.19418100  1
  C  1765  1  0.33443600  0.02792400  0.20663700  1
  C  1766  1  0.35315200  0.05247300  0.20296200  1
  C  1770  1  0.33609900  0.01452200  0.22296900  1
  C  1771  1  0.33856000  0.99329700  0.21855600  1
  C  1776  1  0.96774600  0.29309900  0.17839600  1
  C  1777  1  0.98208800  0.30979700  0.19414400  1
  C  1778  1  0.97231500  0.32144400  0.20656200  1
  C  1779  1  0.94779000  0.31565700  0.20283400  1
  C  1783  1  0.98570900  0.33653200  0.22288700  1
  C  1784  1  0.00691700  0.36022300  0.21845600  1
  C  1789  1  0.96678000  0.69384400  0.17859700  1
  C  1790  1  0.98169300  0.69069200  0.19321200  1
  C  1791  1  0.97177000  0.66928100  0.20566800  1
  C  1792  1  0.94663000  0.65143800  0.20300100  1
  C  1796  1  0.98563000  0.66709000  0.22135600  1
  C  1797  1  0.00635900  0.66425700  0.21569200  1
  C  1802  1  0.71223600  0.03333800  0.17862200  1
  C  1803  1  0.69422300  0.01845700  0.19328500  1
  C  1804  1  0.68277900  0.02841300  0.20575200  1
  C  1805  1  0.69000100  0.05352400  0.20300700  1
  C  1809  1  0.66679600  0.01459900  0.22146700  1
  C  1810  1  0.64331200  0.99352500  0.21625300  1
  C  1815  1  0.30635500  0.28782700  0.17881700  1
  C  1816  1  0.30951500  0.30591100  0.19341500  1
  C  1817  1  0.33093000  0.31740700  0.20586200  1
  C  1818  1  0.34876600  0.31010200  0.20321300  1
  C  1822  1  0.33315200  0.33350500  0.22147800  1
  C  1823  1  0.33599800  0.35710500  0.21588700  1
  C  1828  1  0.28200300  0.32069800  0.87355500  1
  C  1829  1  0.29716500  0.32228600  0.85679000  1
  C  1830  1  0.30869100  0.34373100  0.84439100  1
  C  1831  1  0.30443300  0.36329700  0.84930800  1
  C  1835  1  0.32162000  0.34434400  0.82677100  1
  C  1836  1  0.34468300  0.34471400  0.82933400  1
  C  1841  1  0.68026200  0.97622700  0.87351500  1
  C  1842  1  0.67865700  0.98975500  0.85672300  1
  C  1843  1  0.65718800  0.97982700  0.84436000  1
  C  1844  1  0.63761900  0.95602200  0.84932100  1
  C  1848  1  0.65653200  0.99214400  0.82677900  1
  C  1849  1  0.65651200  0.01503200  0.82898800  1
  C  1854  1  0.02472100  0.71886500  0.87348000  1
  C  1855  1  0.01120300  0.70378700  0.85665700  1
  C  1856  1  0.02111700  0.69223900  0.84428600  1
  C  1857  1  0.04488200  0.69638900  0.84928100  1
  C  1861  1  0.00884800  0.67937800  0.82666000  1
  C  1862  1  0.98608200  0.65631300  0.82902200  1
  C  1867  1  0.35546600  0.98419300  0.54034200  1
  C  1868  1  0.34073000  0.98711500  0.52534300  1
  C  1869  1  0.35064500  0.00845900  0.51281400  1
  C  1870  1  0.37562900  0.02649800  0.51574300  1
  C  1874  1  0.33692500  0.01062700  0.49701400  1
  C  1875  1  0.31643900  0.01401800  0.50221500  1
  C  1880  1  0.61559700  0.64623400  0.54034700  1
  C  1881  1  0.63312800  0.66091500  0.52524700  1
  C  1882  1  0.64456000  0.65099900  0.51272600  1
  C  1883  1  0.63773400  0.62606100  0.51574900  1
  C  1887  1  0.66038000  0.66468500  0.49687500  1
  C  1888  1  0.68426000  0.68521100  0.50200500  1
  C  1893  1  0.01744300  0.38603300  0.54019800  1
  C  1894  1  0.01460100  0.36849400  0.52510800  1
  C  1895  1  0.99325900  0.35704800  0.51257800  1
  C  1896  1  0.97515100  0.36388600  0.51558100  1
  C  1900  1  0.99116000  0.34127000  0.49667700  1
  C  1901  1  0.98741800  0.31730600  0.50214200  1
  C  1906  1  0.61569700  0.98784500  0.54020000  1
  C  1907  1  0.63095400  0.98945400  0.52350500  1
  C  1908  1  0.64240000  0.01084300  0.51103100  1
  C  1909  1  0.63806100  0.03038700  0.51583400  1
  C  1913  1  0.65543900  0.01145200  0.49351100  1
  C  1914  1  0.67838200  0.01156000  0.49582600  1
  C  1919  1  0.01385400  0.64287800  0.54013900  1
  C  1920  1  0.01229400  0.65649300  0.52339300  1
  C  1921  1  0.99089800  0.64658600  0.51093500  1
  C  1922  1  0.97132000  0.62273400  0.51575700  1
  C  1926  1  0.99030700  0.65900100  0.49340800  1
  C  1927  1  0.98987800  0.68168100  0.49594600  1
  C  1932  1  0.35888500  0.38594200  0.54023200  1
  C  1933  1  0.34527500  0.37073600  0.52349900  1
  C  1934  1  0.35521100  0.35927900  0.51102900  1
  C  1935  1  0.37911300  0.36366800  0.51581700  1
  C  1939  1  0.34280800  0.34626800  0.49346600  1
  C  1940  1  0.32017700  0.32316800  0.49612700  1
  C  1945  1  0.00214000  0.25079200  0.00387600  1
  C  1946  1  0.01673700  0.24452500  0.01622400  1
  C  1947  1  0.01556800  0.24493500  0.03802600  1
  C  1948  1  0.99935000  0.25185600  0.04705800  1
  C  1952  1  0.02850300  0.23676600  0.04993500  1
  C  1953  1  0.01759700  0.21072500  0.05388200  1
  C  1958  1  0.23437600  0.99851300  0.00384900  1
  C  1959  1  0.21347800  0.98379400  0.01612600  1
  C  1960  1  0.21494900  0.98489600  0.03793300  1
  C  1961  1  0.23803200  0.00113300  0.04704800  1
  C  1965  1  0.19380900  0.97180100  0.04976200  1
  C  1966  1  0.17880300  0.98288600  0.05374100  1
  C  1971  1  0.74997600  0.76628300  0.00383500  1
  C  1972  1  0.75616700  0.78710600  0.01621600  1
  C  1973  1  0.75564400  0.78545400  0.03801500  1
  C  1974  1  0.74862300  0.76227500  0.04701300  1
  C  1978  1  0.76377300  0.80652100  0.04996800  1
  C  1979  1  0.78980100  0.82164300  0.05397900  1
  C  1984  1  0.98839500  0.75723500  0.04647900  1
  C  1985  1  0.97242800  0.76278800  0.03543300  1
  C  1986  1  0.97280200  0.76343300  0.01358900  1
  C  1987  1  0.98939700  0.75795600  0.00316200  1
  C  1991  1  0.95901200  0.77175800  0.00313700  1
  C  1992  1  0.96968900  0.79785400  0.99958400  1
  C  1997  1  0.75427400  0.01204200  0.04644800  1
  C  1998  1  0.77588400  0.02805500  0.03552600  1
  C  1999  1  0.77633700  0.02773900  0.01368200  1
  C  2000  1  0.75432600  0.01122600  0.00313500  1
  C  2004  1  0.79856100  0.04154400  0.00334600  1
  C  2005  1  0.81368900  0.03046400  0.00007600  1
  C  2010  1  0.24327400  0.24610200  0.04656300  1
  C  2011  1  0.23768200  0.22454000  0.03556600  1
  C  2012  1  0.23707700  0.22422700  0.01372100  1
  C  2013  1  0.24269300  0.24631500  0.00325000  1
  C  2017  1  0.22863000  0.20207200  0.00330400  1
  C  2018  1  0.20252600  0.18679900  0.99971200  1
  C  2023  1  0.33609400  0.91883900  0.67117400  1
  C  2024  1  0.35121600  0.91344200  0.68369600  1
  C  2025  1  0.34988200  0.91390700  0.70548900  1
  C  2026  1  0.33303900  0.92009900  0.71435800  1
  C  2030  1  0.36339000  0.90655600  0.71754600  1
  C  2031  1  0.35318100  0.88053900  0.72139600  1
  C  2036  1  0.56933000  0.66535700  0.67119900  1
  C  2037  1  0.54874200  0.65022000  0.68365200  1
  C  2038  1  0.55043400  0.65148800  0.70545200  1
  C  2039  1  0.57344200  0.66827900  0.71439100  1
  C  2043  1  0.52948900  0.63799200  0.71746000  1
  C  2044  1  0.51379000  0.64834900  0.72111900  1
  C  2049  1  0.08265500  0.43214200  0.67102700  1
  C  2050  1  0.08816600  0.45270900  0.68352500  1
  C  2051  1  0.08759800  0.45091900  0.70531900  1
  C  2052  1  0.08128800  0.42786400  0.71420800  1
  C  2056  1  0.09511200  0.47182400  0.71736000  1
  C  2057  1  0.12107200  0.48770000  0.72122500  1
  C  2062  1  0.32196700  0.42236500  0.71376000  1
  C  2063  1  0.30644900  0.42859700  0.70278800  1
  C  2064  1  0.30698700  0.42958500  0.68095200  1
  C  2065  1  0.32325900  0.42372100  0.67045300  1
  C  2069  1  0.29367900  0.43853500  0.67060200  1
  C  2070  1  0.30526600  0.46479200  0.66725900  1
  C  2075  1  0.08665800  0.67913700  0.71370600  1
  C  2076  1  0.10847300  0.69464700  0.70281200  1
  C  2077  1  0.10900900  0.69419500  0.68097800  1
  C  2078  1  0.08689400  0.67802500  0.67040200  1
  C  2082  1  0.13133100  0.70740800  0.67069200  1
  C  2083  1  0.14609900  0.69596200  0.66737800  1
  C  2088  1  0.57870300  0.91450500  0.71380300  1
  C  2089  1  0.57237800  0.89273900  0.70282500  1
  C  2090  1  0.57155300  0.89235400  0.68098700  1
  C  2091  1  0.57763800  0.91455500  0.67049800  1
  C  2095  1  0.56251300  0.87010300  0.67059600  1
  C  2096  1  0.53633000  0.85538500  0.66711000  1
  C  2101  1  0.66967700  0.58615500  0.33762500  1
  C  2102  1  0.68357900  0.57925800  0.35025400  1
  C  2103  1  0.68202100  0.57961400  0.37203300  1
  C  2104  1  0.66622000  0.58724300  0.38077200  1
  C  2108  1  0.69435300  0.57096700  0.38422400  1
  C  2109  1  0.68274700  0.54472500  0.38754400  1
  C  2114  1  0.90237100  0.33096900  0.33754200  1
  C  2115  1  0.88168400  0.31714000  0.35030800  1
  C  2116  1  0.88378800  0.31883700  0.37207100  1
  C  2117  1  0.90727500  0.33474100  0.38066600  1
  C  2121  1  0.86292200  0.30663600  0.38437500  1
  C  2122  1  0.84798300  0.31786600  0.38780500  1
  C  2127  1  0.41442800  0.09851200  0.33774300  1
  C  2128  1  0.42138600  0.11931200  0.35038700  1
  C  2129  1  0.42121800  0.11742000  0.37216100  1
  C  2130  1  0.41374500  0.09401800  0.38088800  1
  C  2134  1  0.42987200  0.13837700  0.38433400  1
  C  2135  1  0.45611800  0.15316200  0.38766300  1
  C  2140  1  0.65595200  0.08814000  0.38017400  1
  C  2141  1  0.63936900  0.09256000  0.36882400  1
  C  2142  1  0.64003300  0.09318600  0.34697700  1
  C  2143  1  0.65755000  0.08881000  0.33685300  1
  C  2147  1  0.62549500  0.10038700  0.33619600  1
  C  2148  1  0.63529100  0.12640900  0.33276300  1
  C  2153  1  0.41856300  0.34514000  0.38026300  1
  C  2154  1  0.43941900  0.36170000  0.36874800  1
  C  2155  1  0.43913000  0.36092500  0.34690300  1
  C  2156  1  0.41718300  0.34324500  0.33694900  1
  C  2160  1  0.46071900  0.37544400  0.33596700  1
  C  2161  1  0.47726300  0.36611200  0.33226300  1
  C  2166  1  0.91302900  0.58275600  0.38004400  1
  C  2167  1  0.90868800  0.56178300  0.36868500  1
  C  2168  1  0.90792300  0.56178800  0.34684100  1
  C  2169  1  0.91203300  0.58359500  0.33672500  1
  C  2173  1  0.90084300  0.54008900  0.33608900  1
  C  2174  1  0.87485800  0.52363100  0.33259900  1
  C  2179  1  0.11436500  0.20090600  0.90477800  1
  C  2180  1  0.09976100  0.19139600  0.88683500  1
  C  2181  1  0.07649000  0.18977000  0.88560700  1
  C  2182  1  0.06831600  0.19769400  0.90292400  1
  C  2186  1  0.06151000  0.17922200  0.86849700  1
  C  2187  1  0.06989400  0.18924800  0.84799000  1
  C  2192  1  0.07256900  0.88653800  0.90474900  1
  C  2193  1  0.07762900  0.90114700  0.88681300  1
  C  2194  1  0.09925200  0.92443300  0.88558200  1
  C  2195  1  0.11538900  0.93260200  0.90287400  1
  C  2199  1  0.10364900  0.93941000  0.86847400  1
  C  2200  1  0.10530100  0.93104000  0.84796400  1
  C  2205  1  0.80005900  0.92834800  0.90469100  1
  C  2206  1  0.80963500  0.92331000  0.88676100  1
  C  2207  1  0.81123100  0.90164900  0.88549500  1
  C  2208  1  0.80322400  0.88549200  0.90277200  1
  C  2212  1  0.82186900  0.89727000  0.86840100  1
  C  2213  1  0.81137200  0.89531500  0.84803100  1
  C  2218  1  0.91980500  0.81159800  0.14335500  1
  C  2219  1  0.91375200  0.82085700  0.16094100  1
  C  2220  1  0.89092700  0.82021300  0.16204900  1
  C  2221  1  0.87464600  0.81037400  0.14493800  1
  C  2225  1  0.88537900  0.83032600  0.17883700  1
  C  2226  1  0.88469300  0.82123700  0.19957100  1
  C  2231  1  0.18857600  0.12314000  0.14326900  1
  C  2232  1  0.17920100  0.10777500  0.16081300  1
  C  2233  1  0.17985300  0.08560000  0.16193300  1
  C  2234  1  0.18981400  0.07921300  0.14487800  1
  C  2238  1  0.16960900  0.06987800  0.17865600  1
  C  2239  1  0.17889500  0.07832600  0.19936700  1
  C  2244  1  0.87696800  0.08033200  0.14323900  1
  C  2245  1  0.89233100  0.08631900  0.16078500  1
  C  2246  1  0.91449300  0.10915900  0.16192700  1
  C  2247  1  0.92087100  0.12551500  0.14487600  1
  C  2251  1  0.93024300  0.11463800  0.17866000  1
  C  2252  1  0.92169000  0.11556000  0.19929700  1
  C  2257  1  0.44853600  0.86810500  0.57264900  1
  C  2258  1  0.43382800  0.85835600  0.55478700  1
  C  2259  1  0.41053600  0.85668200  0.55355600  1
  C  2260  1  0.40241800  0.86477100  0.57080100  1
  C  2264  1  0.39549900  0.84594700  0.53650800  1
  C  2265  1  0.40378400  0.85580500  0.51594100  1
  C  2270  1  0.40646400  0.55313200  0.57264900  1
  C  2271  1  0.41139600  0.56783600  0.55478900  1
  C  2272  1  0.43302200  0.59112000  0.55353400  1
  C  2273  1  0.44925800  0.59923700  0.57076000  1
  C  2277  1  0.43728000  0.60616800  0.53651300  1
  C  2278  1  0.43906400  0.59780600  0.51600300  1
  C  2283  1  0.13340200  0.59518100  0.57256500  1
  C  2284  1  0.14319200  0.59025500  0.55471500  1
  C  2285  1  0.14487200  0.56863900  0.55347500  1
  C  2286  1  0.13669900  0.55238400  0.57068700  1
  C  2290  1  0.15566700  0.56437600  0.53644900  1
  C  2291  1  0.14585800  0.56282300  0.51586400  1
  C  2296  1  0.25333100  0.47700500  0.81016400  1
  C  2297  1  0.24708000  0.48585400  0.82790500  1
  C  2298  1  0.22427000  0.48522300  0.82900300  1
  C  2299  1  0.20821700  0.47586200  0.81171100  1
  C  2303  1  0.21848000  0.49480300  0.84603000  1
  C  2304  1  0.21746400  0.48504100  0.86654500  1
  C  2309  1  0.52400900  0.79120500  0.81014600  1
  C  2310  1  0.51503500  0.77605400  0.82784800  1
  C  2311  1  0.51570300  0.75389400  0.82898000  1
  C  2312  1  0.52518100  0.74725600  0.81173800  1
  C  2316  1  0.50595700  0.73843200  0.84595500  1
  C  2317  1  0.51607100  0.74733200  0.86637200  1
  C  2322  1  0.20975300  0.74766500  0.81008900  1
  C  2323  1  0.22486600  0.75389300  0.82782000  1
  C  2324  1  0.24704300  0.77670600  0.82892900  1
  C  2325  1  0.25371900  0.79278100  0.81165400  1
  C  2329  1  0.26243800  0.78245900  0.84593300  1
  C  2330  1  0.25372500  0.78343800  0.86647100  1
  C  2335  1  0.78139600  0.53480000  0.23880200  1
  C  2336  1  0.76725400  0.52636500  0.22052200  1
  C  2337  1  0.74416100  0.52509800  0.21922100  1
  C  2338  1  0.73566500  0.53224400  0.23681900  1
  C  2342  1  0.72967300  0.51569000  0.20169200  1
  C  2343  1  0.73887300  0.52709300  0.18169100  1
  C  2348  1  0.73876200  0.21882900  0.23877000  1
  C  2349  1  0.74444700  0.23299500  0.22050600  1
  C  2350  1  0.76629000  0.25607600  0.21919900  1
  C  2351  1  0.78195400  0.26453700  0.23678700  1
  C  2355  1  0.77135300  0.27062000  0.20167700  1
  C  2356  1  0.77362500  0.26136300  0.18173900  1
  C  2361  1  0.46544300  0.26148400  0.23872500  1
  C  2362  1  0.47374100  0.25570700  0.22040300  1
  C  2363  1  0.47503800  0.23389600  0.21910900  1
  C  2364  1  0.46806200  0.21834100  0.23676000  1
  C  2368  1  0.48430500  0.22874700  0.20151400  1
  C  2369  1  0.47305600  0.22667800  0.18149300  1
  C  2374  1  0.58668400  0.14359700  0.47609400  1
  C  2375  1  0.58054600  0.15267100  0.49375400  1
  C  2376  1  0.55770700  0.15197600  0.49489400  1
  C  2377  1  0.54153700  0.14238900  0.47769400  1
  C  2381  1  0.55204000  0.16177500  0.51182700  1
  C  2382  1  0.55098100  0.15195200  0.53235600  1
  C  2387  1  0.85826600  0.45810800  0.47607800  1
  C  2388  1  0.84927300  0.44294200  0.49377400  1
  C  2389  1  0.84993000  0.42077800  0.49490800  1
  C  2390  1  0.85945300  0.41415400  0.47768700  1
  C  2394  1  0.84022900  0.40536700  0.51189800  1
  C  2395  1  0.84986500  0.41406700  0.53245300  1
  C  2400  1  0.54374800  0.41491300  0.47617900  1
  C  2401  1  0.55891500  0.42109100  0.49387300  1
  C  2402  1  0.58108300  0.44391000  0.49500300  1
  C  2403  1  0.58770200  0.46005600  0.47778200  1
  C  2407  1  0.59648900  0.44962400  0.51199600  1
  C  2408  1  0.58777900  0.45053600  0.53255200  1
  N  1481  1  0.90289400  0.11645100  0.90337400  1
  N  1482  1  0.88288600  0.09519600  0.90318800  1
  N  1494  1  0.19959300  0.09809800  0.90319400  1
  N  1495  1  0.19837000  0.11812000  0.90303100  1
  N  1507  1  0.88455900  0.80130300  0.90333800  1
  N  1508  1  0.90580900  0.80253700  0.90316100  1
  N  1520  1  0.79031200  0.89026200  0.14411000  1
  N  1521  1  0.79087800  0.91120300  0.14383500  1
  N  1533  1  0.10983800  0.91503600  0.14442300  1
  N  1534  1  0.08889400  0.89466200  0.14414800  1
  N  1546  1  0.08522800  0.20969500  0.14429300  1
  N  1547  1  0.10562000  0.20916400  0.14398500  1
  N  1559  1  0.23634700  0.78328900  0.57160100  1
  N  1560  1  0.21626600  0.76208900  0.57144500  1
  N  1572  1  0.53388300  0.76538400  0.57163500  1
  N  1573  1  0.53276500  0.78546600  0.57149000  1
  N  1585  1  0.21833200  0.46789500  0.57157600  1
  N  1586  1  0.23954600  0.46904500  0.57142500  1
  N  1598  1  0.12451400  0.55748900  0.80775400  1
  N  1599  1  0.12497100  0.57838200  0.80750600  1
  N  1611  1  0.44348000  0.58185900  0.80776000  1
  N  1612  1  0.42258100  0.56142700  0.80751900  1
  N  1624  1  0.41906200  0.87642500  0.80778800  1
  N  1625  1  0.43949700  0.87596700  0.80754200  1
  N  1637  1  0.56846900  0.44957400  0.24319500  1
  N  1638  1  0.54832200  0.42842200  0.24324900  1
  N  1650  1  0.86637200  0.43172200  0.24307600  1
  N  1651  1  0.86537400  0.45187100  0.24312800  1
  N  1663  1  0.55060700  0.13371700  0.24320500  1
  N  1664  1  0.57174900  0.13470400  0.24325700  1
  N  1676  1  0.45798600  0.22409100  0.47380100  1
  N  1677  1  0.45858300  0.24505700  0.47359100  1
  N  1689  1  0.77762400  0.24872500  0.47354300  1
  N  1690  1  0.75666500  0.22835100  0.47334000  1
  N  1702  1  0.75294800  0.54381600  0.47363200  1
  N  1703  1  0.77331000  0.54320800  0.47342700  1
  N  1715  1  0.05449600  0.35609900  0.86408800  1
  N  1716  1  0.04497400  0.33643000  0.87545900  1
  N  1728  1  0.28755100  0.94639200  0.86415100  1
  N  1729  1  0.27738000  0.95590000  0.87550700  1
  N  1741  1  0.64487100  0.71330100  0.86423000  1
  N  1742  1  0.66455700  0.72346300  0.87557900  1
  N  1754  1  0.70011500  0.65028100  0.18716900  1
  N  1755  1  0.71044400  0.66996700  0.17582300  1
  N  1767  1  0.34973100  0.06490400  0.18740300  1
  N  1768  1  0.33006600  0.05554600  0.17603500  1
  N  1780  1  0.93537300  0.29981100  0.18726800  1
  N  1781  1  0.94474200  0.28949500  0.17592200  1
  N  1793  1  0.93381800  0.65567000  0.18828600  1
  N  1794  1  0.94319500  0.67535700  0.17695100  1
  N  1806  1  0.70702000  0.06630700  0.18826600  1
  N  1807  1  0.71732000  0.05691300  0.17693800  1
  N  1819  1  0.34450400  0.29300200  0.18854500  1
  N  1820  1  0.32481400  0.28268600  0.17720900  1
  N  1832  1  0.29016300  0.36045400  0.86601500  1
  N  1833  1  0.27976400  0.34070000  0.87728500  1
  N  1845  1  0.64050300  0.94460000  0.86601300  1
  N  1846  1  0.66027800  0.95397500  0.87725800  1
  N  1858  1  0.05627900  0.71062100  0.86601300  1
  N  1859  1  0.04692300  0.72103400  0.87726500  1
  N  1871  1  0.38838500  0.02260100  0.53070400  1
  N  1872  1  0.37892200  0.00297600  0.54212600  1
  N  1884  1  0.62114200  0.61333300  0.53076100  1
  N  1885  1  0.61098600  0.62280400  0.54218500  1
  N  1897  1  0.97898800  0.38045700  0.53060100  1
  N  1898  1  0.99860700  0.39061900  0.54203100  1
  N  1910  1  0.62367000  0.02750100  0.53246600  1
  N  1911  1  0.61330900  0.00778600  0.54378900  1
  N  1923  1  0.97417800  0.61122000  0.53239600  1
  N  1924  1  0.99388900  0.62056000  0.54372500  1
  N  1936  1  0.39059900  0.37801100  0.53247500  1
  N  1937  1  0.38122000  0.38833400  0.54381400  1
  N  1949  1  0.98539200  0.25700200  0.03426200  1
  N  1950  1  0.98675600  0.25651700  0.01407700  1
  N  1962  1  0.25716800  0.01520600  0.03432000  1
  N  1963  1  0.25540800  0.01392700  0.01412900  1
  N  1975  1  0.74354200  0.74321300  0.03418700  1
  N  1976  1  0.74416500  0.74513600  0.01400700  1
  N  1988  1  0.00459000  0.75339500  0.01494300  1
  N  1989  1  0.00420500  0.75313100  0.03519300  1
  N  2001  1  0.73447000  0.99601000  0.01480500  1
  N  2002  1  0.73443500  0.99630000  0.03505500  1
  N  2014  1  0.24731000  0.26611800  0.01498600  1
  N  2015  1  0.24750800  0.26603100  0.03523600  1
  N  2027  1  0.31865600  0.92447100  0.70140900  1
  N  2028  1  0.32015200  0.92390200  0.68124100  1
  N  2040  1  0.59227800  0.68266400  0.70151100  1
  N  2041  1  0.59030400  0.68123100  0.68133700  1
  N  2053  1  0.07682900  0.40905700  0.70128900  1
  N  2054  1  0.07744400  0.41110600  0.68111700  1
  N  2066  1  0.33806000  0.41852900  0.68215200  1
  N  2067  1  0.33755000  0.41799100  0.70240100  1
  N  2079  1  0.06683000  0.66323500  0.68203200  1
  N  2080  1  0.06671700  0.66365900  0.70228300  1
  N  2092  1  0.58290300  0.93456400  0.68220500  1
  N  2093  1  0.58331500  0.93454600  0.70245800  1
  N  2105  1  0.65294600  0.59303700  0.36774600  1
  N  2106  1  0.65463100  0.59253200  0.34758400  1
  N  2118  1  0.92622000  0.34795300  0.36751400  1
  N  2119  1  0.92386100  0.34611900  0.34736900  1
  N  2131  1  0.40790200  0.07495300  0.36784600  1
  N  2132  1  0.40821900  0.07712200  0.34768900  1
  N  2144  1  0.67323900  0.08524700  0.34886500  1
  N  2145  1  0.67254400  0.08500200  0.36910600  1
  N  2157  1  0.39809500  0.32757400  0.34911500  1
  N  2158  1  0.39874900  0.32842000  0.36935300  1
  N  2170  1  0.91552700  0.60281100  0.34875300  1
  N  2171  1  0.91593200  0.60240700  0.36899100  1
  N  2183  1  0.08351700  0.20639700  0.91954700  1
  N  2184  1  0.10486100  0.20787200  0.92045900  1
  N  2196  1  0.10891900  0.91739700  0.91949400  1
  N  2197  1  0.08906300  0.89604300  0.92041400  1
  N  2209  1  0.79449800  0.89195600  0.91940100  1
  N  2210  1  0.79303300  0.91183000  0.92033800  1
  N  2222  1  0.88204000  0.80210500  0.12861600  1
  N  2223  1  0.90296300  0.80265600  0.12789200  1
  N  2235  1  0.19818400  0.09492300  0.12858800  1
  N  2236  1  0.19763400  0.11529500  0.12785700  1
  N  2248  1  0.90518100  0.11816900  0.12857400  1
  N  2249  1  0.88481900  0.09723900  0.12783000  1
  N  2261  1  0.41771300  0.87369600  0.58735400  1
  N  2262  1  0.43908800  0.87523000  0.58826200  1
  N  2274  1  0.44290300  0.58395500  0.58732000  1
  N  2275  1  0.42306200  0.56258400  0.58824500  1
  N  2287  1  0.12777500  0.55874400  0.58724500  1
  N  2288  1  0.12625400  0.57858900  0.58816600  1
  N  2300  1  0.21580500  0.46803100  0.79521900  1
  N  2301  1  0.23671400  0.46854000  0.79451900  1
  N  2313  1  0.53308300  0.76269700  0.79526000  1
  N  2314  1  0.53256400  0.78309300  0.79454000  1
  N  2326  1  0.23828700  0.78522000  0.79517100  1
  N  2327  1  0.21788700  0.76430800  0.79446300  1
  N  2339  1  0.75035300  0.53981100  0.25380300  1
  N  2340  1  0.77157900  0.54100200  0.25476900  1
  N  2352  1  0.77483600  0.24984300  0.25376600  1
  N  2353  1  0.75479200  0.22862500  0.25473000  1
  N  2365  1  0.46058500  0.22551100  0.25377100  1
  N  2366  1  0.45937500  0.24553500  0.25473100  1
  N  2378  1  0.54904100  0.13440300  0.46124900  1
  N  2379  1  0.56996700  0.13494000  0.46052500  1
  N  2391  1  0.86735400  0.42959200  0.46120800  1
  N  2392  1  0.86682700  0.44998600  0.46048100  1
  N  2404  1  0.57223800  0.45253200  0.46131900  1
  N  2405  1  0.55184600  0.43161200  0.46059500  1
  O  1489  1  0.87616100  0.15569800  0.86200800  1
  O  1502  1  0.26557300  0.12466600  0.86203200  1
  O  1515  1  0.84524800  0.73503300  0.86204600  1
  O  1528  1  0.72623100  0.85145600  0.18750400  1
  O  1541  1  0.14877500  0.88985900  0.18759300  1
  O  1554  1  0.11075900  0.27415100  0.18753300  1
  O  1567  1  0.21050500  0.82241700  0.52934500  1
  O  1580  1  0.59881500  0.79123300  0.52937500  1
  O  1593  1  0.17935100  0.40277000  0.52929300  1
  O  1606  1  0.06599400  0.52112200  0.85624400  1
  O  1619  1  0.47982900  0.55922300  0.85624600  1
  O  1632  1  0.44140600  0.93506500  0.85634800  1
  O  1645  1  0.54637100  0.48483000  0.19363000  1
  O  1658  1  0.92431200  0.45434400  0.19360100  1
  O  1671  1  0.51525600  0.07626800  0.19371800  1
  O  1684  1  0.39996700  0.18821400  0.52272400  1
  O  1697  1  0.81347100  0.22641800  0.52252900  1
  O  1710  1  0.77514300  0.60193800  0.52247900  1
  O  1723  1  0.00012200  0.33066800  0.81480300  1
  O  1736  1  0.31651800  0.00063700  0.81499700  1
  O  1749  1  0.66984000  0.68452400  0.81493300  1
  O  1762  1  0.67456500  0.67722700  0.23797500  1
  O  1775  1  0.32338800  0.01270800  0.23794500  1
  O  1788  1  0.98754200  0.32566000  0.23787400  1
  O  1801  1  0.98829500  0.67959300  0.23668100  1
  O  1814  1  0.67685900  0.01247400  0.23690100  1
  O  1827  1  0.32064500  0.32394200  0.23687000  1
  O  1840  1  0.30886400  0.33236600  0.81218500  1
  O  1853  1  0.66815800  0.99092300  0.81209200  1
  O  1866  1  0.00947100  0.69199400  0.81200800  1
  O  1879  1  0.33405100  0.99770200  0.48192200  1
  O  1892  1  0.65025900  0.66749100  0.48180000  1
  O  1905  1  0.00441600  0.35125600  0.48175500  1
  O  1918  1  0.64264700  0.99972900  0.47883200  1
  O  1931  1  0.00239700  0.65859500  0.47873900  1
  O  1944  1  0.34344800  0.35895900  0.47887700  1
  O  1957  1  0.05079600  0.24810500  0.04763500  1
  O  1970  1  0.18244800  0.94955100  0.04722500  1
  O  1983  1  0.75244500  0.81748500  0.04765600  1
  O  1996  1  0.93690600  0.76038500  0.00648600  1
  O  2009  1  0.80948500  0.06360500  0.00685600  1
  O  2022  1  0.23986000  0.19120700  0.00672200  1
  O  2035  1  0.38567600  0.91822200  0.71529600  1
  O  2048  1  0.51911200  0.61572500  0.71519700  1
  O  2061  1  0.08308100  0.48208400  0.71521200  1
  O  2074  1  0.27161000  0.42813500  0.67406300  1
  O  2087  1  0.14264400  0.72951700  0.67403000  1
  O  2100  1  0.57326100  0.85874600  0.67395300  1
  O  2113  1  0.71669100  0.58197200  0.38239500  1
  O  2126  1  0.85181300  0.28425400  0.38281800  1
  O  2139  1  0.41906300  0.14992100  0.38259000  1
  O  2152  1  0.60340700  0.08822200  0.33939000  1
  O  2165  1  0.47038600  0.39756900  0.33895400  1
  O  2178  1  0.91290100  0.53003800  0.33926000  1
  O  2191  1  0.04861600  0.15689100  0.86949200  1
  O  2204  1  0.09417200  0.95226600  0.86947800  1
  O  2217  1  0.84422300  0.90700400  0.86919300  1
  O  2230  1  0.89321000  0.85240100  0.17735900  1
  O  2243  1  0.14748400  0.05578500  0.17747200  1
  O  2256  1  0.94423800  0.10651100  0.17731700  1
  O  2269  1  0.38266500  0.82361900  0.53764200  1
  O  2282  1  0.42758600  0.61883200  0.53728300  1
  O  2295  1  0.17799200  0.57389400  0.53762500  1
  O  2308  1  0.22632900  0.51691700  0.84506200  1
  O  2321  1  0.48380800  0.72439400  0.84510600  1
  O  2334  1  0.27669700  0.77460700  0.84491400  1
  O  2347  1  0.71659100  0.49335800  0.20141200  1
  O  2360  1  0.76201400  0.28361600  0.20159500  1
  O  2373  1  0.50662700  0.23783900  0.20149900  1
  O  2386  1  0.56004900  0.18392000  0.51106200  1
  O  2399  1  0.81811800  0.39112700  0.51083700  1
  O  2412  1  0.61075800  0.44178900  0.51092800  1
