# generated using pymatgen
data_SiH22C34(N3O)2
_symmetry_space_group_name_H-M   'P 1'
_cell_length_a   46.30800000
_cell_length_b   63.08520000
_cell_length_c   63.08520000
_cell_angle_alpha   120.00000000
_cell_angle_beta   90.00000000
_cell_angle_gamma   90.00000000
_symmetry_Int_Tables_number   1
_chemical_formula_structural   SiH22C34(N3O)2
_chemical_formula_sum   'Si24 H528 C816 N144 O48'
_cell_volume   159603.21110779
_cell_formula_units_Z   24
loop_
 _symmetry_equiv_pos_site_id
 _symmetry_equiv_pos_as_xyz
  1  'x, y, z'
loop_
 _atom_site_type_symbol
 _atom_site_label
 _atom_site_symmetry_multiplicity
 _atom_site_fract_x
 _atom_site_fract_y
 _atom_site_fract_z
 _atom_site_occupancy
  Si  7  1  0.88892300  0.66561300  0.10789200  1
  Si  48  1  0.88843700  0.43647700  0.33695400  1
  Si  89  1  0.88875300  0.89511400  0.56629300  1
  Si  130  1  0.38835400  0.33270800  0.89956300  1
  Si  171  1  0.38879400  0.56108600  0.66990200  1
  Si  212  1  0.38855900  0.10342500  0.44173300  1
  Si  253  1  0.08282800  0.56620900  0.90045500  1
  Si  294  1  0.08369600  0.10167000  0.67330700  1
  Si  335  1  0.08329600  0.32897700  0.43630500  1
  Si  376  1  0.58355100  0.43179100  0.10606500  1
  Si  417  1  0.58261600  0.89607600  0.33333800  1
  Si  458  1  0.58304800  0.66899400  0.57069100  1
  Si  499  1  0.08017800  0.33549500  0.90136300  1
  Si  540  1  0.08052400  0.56092200  0.66679500  1
  Si  581  1  0.08022100  0.10060400  0.44156800  1
  Si  622  1  0.58073100  0.66248200  0.10492400  1
  Si  663  1  0.58023900  0.43747900  0.33981300  1
  Si  704  1  0.58060400  0.89707200  0.56501500  1
  Si  745  1  0.88898700  0.43266100  0.10536700  1
  Si  786  1  0.88884300  0.89817900  0.33645100  1
  Si  827  1  0.88902100  0.66622800  0.56969700  1
  Si  868  1  0.38910500  0.56541100  0.90263100  1
  Si  909  1  0.38927800  0.10090500  0.67193800  1
  Si  950  1  0.38906000  0.33074100  0.43699900  1
  H  26  1  0.97190500  0.67043800  0.06504100  1
  H  27  1  0.94427200  0.68253800  0.10065900  1
  H  28  1  0.90791200  0.61849800  0.02280000  1
  H  29  1  0.88083900  0.62990400  0.05836300  1
  H  30  1  0.84940000  0.62606700  0.09691100  1
  H  31  1  0.85470700  0.58977700  0.09903300  1
  H  32  1  0.94024100  0.60962900  0.12434700  1
  H  33  1  0.93549300  0.64594200  0.12176600  1
  H  34  1  0.89811900  0.67674900  0.15758700  1
  H  35  1  0.90443000  0.71410900  0.19388900  1
  H  36  1  0.90599600  0.75120700  0.15370100  1
  H  37  1  0.89926400  0.71360300  0.11699500  1
  H  38  1  0.85865800  0.67348500  0.07185100  1
  H  39  1  0.84054100  0.67495500  0.13845700  1
  H  40  1  0.79127200  0.68303500  0.13486500  1
  H  41  1  0.80892000  0.68001600  0.06778400  1
  H  67  1  0.97071200  0.38788700  0.33144200  1
  H  68  1  0.94300200  0.41119200  0.31919000  1
  H  69  1  0.90825600  0.39991900  0.38526300  1
  H  70  1  0.88111300  0.42389300  0.37367600  1
  H  71  1  0.84897100  0.46594300  0.37617700  1
  H  72  1  0.85490700  0.50407300  0.41259400  1
  H  73  1  0.94098800  0.50814500  0.39298800  1
  H  74  1  0.93559500  0.46947000  0.35652200  1
  H  75  1  0.90202300  0.47386100  0.32464600  1
  H  76  1  0.90969700  0.47136400  0.28650600  1
  H  77  1  0.90190100  0.39444700  0.25085200  1
  H  78  1  0.89494500  0.39662900  0.28911200  1
  H  79  1  0.85769400  0.39337300  0.33076300  1
  H  80  1  0.84034100  0.45729500  0.32679200  1
  H  81  1  0.79100900  0.44571500  0.31877600  1
  H  82  1  0.80795900  0.38285500  0.32418200  1
  H  108  1  0.97189200  0.93773900  0.61381100  1
  H  109  1  0.94415300  0.90219100  0.59029900  1
  H  110  1  0.90767000  0.98025300  0.60478700  1
  H  111  1  0.88049300  0.94475800  0.58061800  1
  H  112  1  0.84951600  0.90659500  0.53794100  1
  H  113  1  0.85521400  0.90523800  0.49991600  1
  H  114  1  0.94059800  0.87959600  0.49439600  1
  H  115  1  0.93545000  0.88139800  0.53289300  1
  H  116  1  0.89808900  0.84549700  0.52759400  1
  H  117  1  0.90441700  0.80909900  0.52849600  1
  H  118  1  0.90582300  0.84904700  0.60579300  1
  H  119  1  0.89904100  0.88581200  0.60504400  1
  H  120  1  0.85830800  0.93080000  0.61026500  1
  H  121  1  0.84045800  0.86459200  0.54462800  1
  H  122  1  0.79113000  0.86800200  0.55610500  1
  H  123  1  0.80850800  0.93471100  0.62067400  1
  H  149  1  0.47067200  0.32710400  0.94252800  1
  H  150  1  0.44294300  0.31492900  0.90700300  1
  H  151  1  0.40824900  0.38091800  0.98442200  1
  H  152  1  0.38108500  0.36940600  0.94888700  1
  H  153  1  0.34902400  0.37204500  0.90942500  1
  H  154  1  0.35508500  0.40846000  0.90772600  1
  H  155  1  0.44104500  0.38857700  0.88379400  1
  H  156  1  0.43552900  0.35211300  0.88598800  1
  H  157  1  0.40178600  0.32028400  0.84980600  1
  H  158  1  0.40941300  0.28207400  0.81420300  1
  H  159  1  0.40173000  0.24661200  0.85565700  1
  H  160  1  0.39479600  0.28491900  0.89167400  1
  H  161  1  0.35767900  0.32648400  0.93647700  1
  H  162  1  0.34018900  0.32268000  0.86867900  1
  H  163  1  0.29086300  0.31468200  0.87229100  1
  H  164  1  0.30794900  0.31991800  0.94046700  1
  H  190  1  0.47176300  0.60878200  0.67480500  1
  H  191  1  0.44412800  0.58523300  0.68685000  1
  H  192  1  0.40779300  0.59914800  0.62286600  1
  H  193  1  0.38071800  0.57495100  0.63421800  1
  H  194  1  0.34938900  0.53245400  0.63028200  1
  H  195  1  0.35483500  0.49406400  0.59399100  1
  H  196  1  0.44032800  0.48874300  0.61402700  1
  H  197  1  0.43543600  0.52761200  0.65034100  1
  H  198  1  0.39812300  0.52259300  0.68113800  1
  H  199  1  0.40448700  0.52376300  0.71857100  1
  H  200  1  0.40580400  0.60105100  0.75550000  1
  H  201  1  0.39899600  0.60003300  0.71785500  1
  H  202  1  0.35846500  0.60496300  0.67775000  1
  H  203  1  0.34042900  0.53977900  0.67915000  1
  H  204  1  0.29114200  0.55138900  0.68718400  1
  H  205  1  0.30870500  0.61549700  0.68423000  1
  H  231  1  0.47065300  0.06021400  0.39292600  1
  H  232  1  0.44307700  0.09581900  0.41634600  1
  H  233  1  0.40843200  0.01859000  0.40543600  1
  H  234  1  0.38141600  0.05420400  0.42950900  1
  H  235  1  0.34900400  0.09405700  0.47143800  1
  H  236  1  0.35474600  0.09651100  0.50992700  1
  H  237  1  0.44086700  0.12004200  0.51382900  1
  H  238  1  0.43567000  0.11709500  0.47479700  1
  H  239  1  0.40190900  0.15324100  0.47895600  1
  H  240  1  0.40953200  0.18876400  0.47624200  1
  H  241  1  0.40203000  0.14711200  0.39931700  1
  H  242  1  0.39508900  0.11116100  0.40172900  1
  H  243  1  0.35795100  0.06626600  0.39868300  1
  H  244  1  0.34036200  0.13435900  0.46228500  1
  H  245  1  0.29106400  0.13063400  0.45057900  1
  H  246  1  0.30825100  0.06218500  0.38804100  1
  H  272  1  0.99209100  0.60684000  0.93146000  1
  H  273  1  0.02582500  0.58427500  0.89959700  1
  H  274  1  0.05134500  0.60923900  0.98342400  1
  H  275  1  0.08498100  0.58612100  0.95172700  1
  H  276  1  0.11861600  0.54103300  0.91830200  1
  H  277  1  0.11194100  0.50370700  0.91824300  1
  H  278  1  0.03090600  0.49406200  0.88397400  1
  H  279  1  0.03705600  0.53172200  0.88429400  1
  H  280  1  0.07868800  0.52530400  0.85112300  1
  H  281  1  0.07264800  0.52366100  0.81328200  1
  H  282  1  0.06788000  0.60084800  0.84955300  1
  H  283  1  0.07424600  0.60266300  0.88763300  1
  H  284  1  0.11038000  0.61198100  0.93601200  1
  H  285  1  0.13387300  0.54387400  0.87475600  1
  H  286  1  0.18293600  0.55642600  0.88072900  1
  H  287  1  0.15990300  0.62360800  0.94266200  1
  H  313  1  0.99277000  0.07124100  0.68339600  1
  H  314  1  0.02668400  0.10290500  0.69240700  1
  H  315  1  0.05161300  0.01887500  0.63373500  1
  H  316  1  0.08545600  0.05037600  0.64205600  1
  H  317  1  0.11968300  0.08404600  0.63039700  1
  H  318  1  0.11302600  0.08412900  0.59312700  1
  H  319  1  0.03175400  0.11798800  0.61755800  1
  H  320  1  0.03789200  0.11766200  0.65488600  1
  H  321  1  0.07963000  0.15095200  0.68157200  1
  H  322  1  0.07345600  0.18884500  0.71769000  1
  H  323  1  0.06867700  0.15278100  0.75880800  1
  H  324  1  0.07517500  0.11465100  0.72263200  1
  H  325  1  0.11072400  0.06614800  0.68383100  1
  H  326  1  0.13500900  0.12710300  0.67674300  1
  H  327  1  0.18384900  0.12126300  0.68405800  1
  H  328  1  0.16003500  0.05963600  0.68957800  1
  H  354  1  0.99220700  0.31933500  0.39616700  1
  H  355  1  0.02618500  0.31009500  0.41860800  1
  H  356  1  0.05129300  0.36871700  0.39322700  1
  H  357  1  0.08519200  0.36018100  0.41621000  1
  H  358  1  0.11919100  0.37194400  0.46143300  1
  H  359  1  0.11255300  0.40926700  0.49872500  1
  H  360  1  0.03147400  0.38476900  0.50845200  1
  H  361  1  0.03759400  0.34738100  0.47084700  1
  H  362  1  0.07927300  0.32059800  0.47725400  1
  H  363  1  0.07313200  0.28442800  0.47893900  1
  H  364  1  0.06819300  0.24347000  0.40176300  1
  H  365  1  0.07465400  0.27969600  0.39989900  1
  H  366  1  0.11046000  0.31849000  0.39031300  1
  H  367  1  0.13454000  0.32559100  0.45840300  1
  H  368  1  0.18342600  0.31839900  0.44538300  1
  H  369  1  0.15982500  0.31287500  0.37819600  1
  H  395  1  0.49245000  0.39155900  0.07576900  1
  H  396  1  0.52649200  0.41402700  0.10737000  1
  H  397  1  0.55123300  0.38879800  0.02333600  1
  H  398  1  0.58521400  0.41179300  0.05478200  1
  H  399  1  0.61971400  0.45706500  0.08853800  1
  H  400  1  0.61319600  0.49442700  0.08862000  1
  H  401  1  0.53179600  0.50391800  0.12230200  1
  H  402  1  0.53780300  0.46625600  0.12198300  1
  H  403  1  0.57939900  0.47281300  0.15535700  1
  H  404  1  0.57320300  0.47457700  0.19323800  1
  H  405  1  0.56850200  0.39739200  0.15716000  1
  H  406  1  0.57501500  0.39544900  0.11903900  1
  H  407  1  0.61052500  0.38575600  0.07043400  1
  H  408  1  0.63486600  0.45366100  0.13155000  1
  H  409  1  0.68367200  0.44044400  0.12571200  1
  H  410  1  0.65981900  0.37343300  0.06392800  1
  H  436  1  0.49172700  0.92685900  0.32369100  1
  H  437  1  0.52560900  0.89508700  0.31435100  1
  H  438  1  0.55082900  0.97895400  0.37331500  1
  H  439  1  0.58461200  0.94734700  0.36468900  1
  H  440  1  0.61844800  0.91391900  0.37633000  1
  H  441  1  0.61183200  0.91386500  0.41360000  1
  H  442  1  0.53077000  0.87961500  0.38905600  1
  H  443  1  0.53687000  0.87991900  0.35170400  1
  H  444  1  0.57845500  0.84674500  0.32491600  1
  H  445  1  0.57247500  0.80890300  0.28871900  1
  H  446  1  0.56780500  0.84515400  0.24778300  1
  H  447  1  0.57410800  0.88323900  0.28404900  1
  H  448  1  0.61015400  0.93172600  0.32323700  1
  H  449  1  0.63366800  0.87038200  0.32992900  1
  H  450  1  0.68271600  0.87636300  0.32334000  1
  H  451  1  0.65967600  0.93838500  0.31825300  1
  H  477  1  0.49226900  0.67881300  0.61134100  1
  H  478  1  0.52607500  0.68806700  0.58879800  1
  H  479  1  0.55127200  0.62900300  0.61357100  1
  H  480  1  0.58498700  0.63754700  0.59048400  1
  H  481  1  0.61908300  0.62612100  0.54537000  1
  H  482  1  0.61249200  0.58889300  0.50798500  1
  H  483  1  0.53115200  0.61324900  0.49858600  1
  H  484  1  0.53722700  0.65055100  0.53628900  1
  H  485  1  0.57883100  0.67733200  0.52972800  1
  H  486  1  0.57273200  0.71348900  0.52802500  1
  H  487  1  0.56812800  0.75451800  0.60521500  1
  H  488  1  0.57454600  0.71829300  0.60709500  1
  H  489  1  0.61038500  0.67916500  0.61652700  1
  H  490  1  0.63418600  0.67255900  0.54858500  1
  H  491  1  0.68316700  0.67933700  0.56135800  1
  H  492  1  0.65983200  0.68434900  0.62837900  1
  H  518  1  0.99182000  0.34070100  0.94225200  1
  H  519  1  0.02005000  0.33411600  0.90801800  1
  H  520  1  0.06776100  0.35123900  0.98339100  1
  H  521  1  0.09621600  0.34423300  0.94932200  1
  H  522  1  0.09025600  0.38434600  0.93795800  1
  H  523  1  0.08398100  0.42195600  0.93939600  1
  H  524  1  0.04385200  0.38583800  0.86995000  1
  H  525  1  0.05045500  0.34784600  0.86824600  1
  H  526  1  0.09830500  0.32091100  0.85322100  1
  H  527  1  0.09447400  0.28314400  0.81583300  1
  H  528  1  0.04434200  0.25396000  0.85106700  1
  H  529  1  0.04846900  0.29118300  0.88849700  1
  H  530  1  0.11141500  0.29923100  0.90562900  1
  H  531  1  0.13077000  0.36291200  0.90184800  1
  H  532  1  0.18026900  0.35768700  0.90682900  1
  H  533  1  0.16152700  0.29362300  0.90957200  1
  H  559  1  0.99250600  0.59716900  0.66178500  1
  H  560  1  0.02045000  0.56918800  0.66805300  1
  H  561  1  0.06876300  0.62762800  0.65154100  1
  H  562  1  0.09693100  0.60018700  0.65820300  1
  H  563  1  0.09069900  0.54858400  0.61793300  1
  H  564  1  0.08449700  0.51236200  0.58034400  1
  H  565  1  0.04409400  0.47918500  0.61649400  1
  H  566  1  0.05060900  0.51552500  0.65445400  1
  H  567  1  0.09836500  0.52734800  0.68145900  1
  H  568  1  0.09427900  0.52771800  0.71919800  1
  H  569  1  0.04437400  0.59225400  0.74827600  1
  H  570  1  0.04875600  0.59245800  0.71106500  1
  H  571  1  0.11190500  0.60132000  0.70309600  1
  H  572  1  0.13106800  0.53378300  0.63944600  1
  H  573  1  0.18063400  0.54374700  0.64479100  1
  H  574  1  0.16207100  0.61062600  0.70882100  1
  H  600  1  0.99220100  0.05939900  0.40529000  1
  H  601  1  0.02015200  0.09363300  0.43327300  1
  H  602  1  0.06845000  0.01868500  0.37480600  1
  H  603  1  0.09662400  0.05277400  0.40225400  1
  H  604  1  0.09034300  0.06397900  0.45375900  1
  H  605  1  0.08432400  0.06256600  0.48996400  1
  H  606  1  0.04408100  0.13196500  0.52337400  1
  H  607  1  0.05042900  0.13364100  0.48704700  1
  H  608  1  0.09816000  0.14879300  0.47519200  1
  H  609  1  0.09421200  0.18619100  0.47486400  1
  H  610  1  0.04421500  0.15090600  0.41037000  1
  H  611  1  0.04846400  0.11345500  0.41012000  1
  H  612  1  0.11169300  0.09650900  0.40120200  1
  H  613  1  0.13069200  0.10036800  0.46875400  1
  H  614  1  0.18025800  0.09563700  0.45881200  1
  H  615  1  0.16187700  0.09281200  0.39191300  1
  H  641  1  0.49264900  0.65745600  0.06374800  1
  H  642  1  0.52064400  0.66369800  0.09795800  1
  H  643  1  0.56885000  0.64730100  0.02300000  1
  H  644  1  0.59707200  0.65394300  0.05707200  1
  H  645  1  0.59107300  0.61365700  0.06839500  1
  H  646  1  0.58499800  0.57605400  0.06700100  1
  H  647  1  0.54444800  0.61206200  0.13626900  1
  H  648  1  0.55085900  0.65005100  0.13793400  1
  H  649  1  0.59857200  0.67711400  0.15314100  1
  H  650  1  0.59445200  0.71483500  0.19053300  1
  H  651  1  0.54448500  0.74392700  0.15512200  1
  H  652  1  0.54889600  0.70672800  0.11767600  1
  H  653  1  0.61203000  0.69881800  0.10082100  1
  H  654  1  0.63133100  0.63520100  0.10472700  1
  H  655  1  0.68087800  0.64059500  0.10010100  1
  H  656  1  0.66218100  0.70459700  0.09723400  1
  H  682  1  0.49187400  0.40182000  0.34505400  1
  H  683  1  0.52010200  0.42949700  0.33850500  1
  H  684  1  0.56783300  0.37110400  0.35542300  1
  H  685  1  0.59628600  0.39820500  0.34845900  1
  H  686  1  0.59043600  0.44967600  0.38862300  1
  H  687  1  0.58431100  0.48584400  0.42626100  1
  H  688  1  0.54405100  0.51926200  0.39028000  1
  H  689  1  0.55051400  0.48297500  0.35226200  1
  H  690  1  0.59830300  0.47105200  0.32524700  1
  H  691  1  0.59442400  0.47069700  0.28750300  1
  H  692  1  0.54429500  0.40627100  0.25831200  1
  H  693  1  0.54845800  0.40604700  0.29553000  1
  H  694  1  0.61142600  0.39692600  0.30352000  1
  H  695  1  0.63087400  0.46441800  0.36712900  1
  H  696  1  0.68036600  0.45420000  0.36185200  1
  H  697  1  0.66153800  0.38736300  0.29785500  1
  H  723  1  0.49230600  0.93807700  0.60076500  1
  H  724  1  0.52047400  0.90383900  0.57303400  1
  H  725  1  0.56832500  0.97908400  0.63140800  1
  H  726  1  0.59672000  0.94500600  0.60425800  1
  H  727  1  0.59086100  0.93355200  0.55263500  1
  H  728  1  0.58445600  0.93497800  0.51646300  1
  H  729  1  0.54396800  0.86568200  0.48334800  1
  H  730  1  0.55070000  0.86399800  0.51963500  1
  H  731  1  0.59854900  0.84886900  0.53151200  1
  H  732  1  0.59449100  0.81151300  0.53191100  1
  H  733  1  0.54443100  0.84694800  0.59636300  1
  H  734  1  0.54877500  0.88435500  0.59653800  1
  H  735  1  0.61176000  0.90132400  0.60556900  1
  H  736  1  0.63126900  0.89742000  0.53807900  1
  H  737  1  0.68077900  0.90222900  0.54827000  1
  H  738  1  0.66186600  0.90509500  0.61510600  1
  H  764  1  0.98284700  0.40583200  0.07242000  1
  H  765  1  0.94976100  0.43110300  0.10332000  1
  H  766  1  0.91355300  0.36957800  0.02417900  1
  H  767  1  0.88026300  0.39335900  0.05553300  1
  H  768  1  0.88171000  0.44679600  0.06996800  1
  H  769  1  0.88715300  0.48399200  0.07065900  1
  H  770  1  0.91802400  0.51717700  0.14337800  1
  H  771  1  0.91186100  0.47973100  0.14297500  1
  H  772  1  0.86353300  0.46027800  0.15223700  1
  H  773  1  0.86820200  0.45848100  0.18897000  1
  H  774  1  0.93160600  0.40344300  0.15552500  1
  H  775  1  0.92557700  0.40354200  0.11845600  1
  H  776  1  0.86005000  0.38928200  0.09635700  1
  H  777  1  0.83744200  0.45722600  0.10254700  1
  H  778  1  0.78891400  0.44462900  0.09436000  1
  H  779  1  0.81055400  0.37730100  0.08932900  1
  H  805  1  0.98259700  0.92877900  0.33654600  1
  H  806  1  0.94937700  0.89827800  0.33196500  1
  H  807  1  0.91413900  0.97919600  0.35485600  1
  H  808  1  0.88056800  0.94842400  0.34865200  1
  H  809  1  0.88089500  0.93394400  0.38584900  1
  H  810  1  0.88684000  0.93378200  0.42262800  1
  H  811  1  0.92214800  0.86252600  0.38397600  1
  H  812  1  0.91571400  0.86245000  0.34675300  1
  H  813  1  0.86769600  0.85046000  0.32119200  1
  H  814  1  0.87161500  0.81278500  0.28354100  1
  H  815  1  0.92148500  0.84765600  0.25380900  1
  H  816  1  0.91742900  0.88522800  0.29089400  1
  H  817  1  0.85925400  0.90802900  0.30297400  1
  H  818  1  0.83784400  0.90008200  0.36392500  1
  H  819  1  0.78897800  0.90794000  0.35987600  1
  H  820  1  0.80958200  0.91467600  0.29835700  1
  H  846  1  0.98284000  0.66612500  0.60009900  1
  H  847  1  0.94955500  0.67074600  0.57423900  1
  H  848  1  0.91449300  0.64760700  0.63213500  1
  H  849  1  0.88085500  0.65384300  0.60762400  1
  H  850  1  0.88111000  0.61673700  0.55578000  1
  H  851  1  0.88708000  0.58008400  0.51870000  1
  H  852  1  0.92234900  0.61912500  0.48649700  1
  H  853  1  0.91589200  0.65620400  0.52376700  1
  H  854  1  0.86764800  0.68159400  0.53739600  1
  H  855  1  0.87149500  0.71927200  0.53742500  1
  H  856  1  0.92164400  0.74889400  0.60187200  1
  H  857  1  0.91766500  0.71177100  0.60230300  1
  H  858  1  0.85953300  0.69964000  0.61309900  1
  H  859  1  0.83798000  0.63876000  0.54419500  1
  H  860  1  0.78913800  0.64282900  0.55618200  1
  H  861  1  0.80989200  0.70427500  0.62444300  1
  H  887  1  0.48286700  0.59596400  0.93314000  1
  H  888  1  0.44961500  0.57007100  0.90265500  1
  H  889  1  0.41450300  0.62786800  0.98370200  1
  H  890  1  0.38088200  0.60333000  0.95293700  1
  H  891  1  0.38131600  0.55147400  0.93819300  1
  H  892  1  0.38737300  0.51438900  0.93774900  1
  H  893  1  0.42262700  0.48225800  0.86650500  1
  H  894  1  0.41609200  0.51953600  0.86671900  1
  H  895  1  0.36780000  0.53307100  0.85495600  1
  H  896  1  0.37165700  0.53308100  0.81730300  1
  H  897  1  0.42161200  0.59764100  0.85215400  1
  H  898  1  0.41761200  0.59809200  0.88971800  1
  H  899  1  0.35943400  0.60873900  0.91263200  1
  H  900  1  0.33818100  0.53973700  0.90450100  1
  H  901  1  0.28927400  0.55154900  0.91229900  1
  H  902  1  0.30973200  0.61990300  0.91921600  1
  H  928  1  0.48319100  0.06821500  0.66624800  1
  H  929  1  0.45004700  0.09903800  0.67176800  1
  H  930  1  0.41401700  0.01969300  0.65366600  1
  H  931  1  0.38064700  0.05098000  0.66115200  1
  H  932  1  0.38228100  0.06568600  0.62230100  1
  H  933  1  0.38791500  0.06664400  0.58593400  1
  H  934  1  0.41859700  0.13938500  0.62594800  1
  H  935  1  0.41225900  0.13871100  0.66283000  1
  H  936  1  0.36371400  0.14773700  0.69119600  1
  H  937  1  0.36825600  0.18445600  0.72975200  1
  H  938  1  0.43148200  0.15100300  0.75150000  1
  H  939  1  0.42557000  0.11394600  0.71429800  1
  H  940  1  0.36017900  0.09169900  0.70610100  1
  H  941  1  0.33788100  0.09806100  0.64438600  1
  H  942  1  0.28929300  0.08990700  0.64868400  1
  H  943  1  0.31063700  0.08470100  0.71093700  1
  H  969  1  0.48287100  0.33650100  0.40989000  1
  H  970  1  0.44981400  0.33095300  0.43522700  1
  H  971  1  0.41355900  0.34892700  0.37395800  1
  H  972  1  0.38027500  0.34140700  0.39779600  1
  H  973  1  0.38179800  0.38027100  0.45113800  1
  H  974  1  0.38733900  0.41677600  0.48832300  1
  H  975  1  0.41843900  0.37723900  0.52142900  1
  H  976  1  0.41218300  0.34019300  0.48399600  1
  H  977  1  0.36385300  0.31162400  0.46483400  1
  H  978  1  0.36853200  0.27310700  0.46307000  1
  H  979  1  0.43133600  0.25121300  0.40753100  1
  H  980  1  0.42527800  0.28836700  0.40760500  1
  H  981  1  0.35992900  0.29650900  0.39367100  1
  H  982  1  0.33764100  0.35818100  0.46178400  1
  H  983  1  0.28903800  0.35384900  0.44937900  1
  H  984  1  0.31036700  0.29163600  0.38188100  1
  H  991  1  0.92690700  0.75018200  0.22430400  1
  H  995  1  0.88042900  0.80555100  0.18039500  1
  H  996  1  0.85871700  0.82983600  0.19336100  1
  H  1003  1  0.94064000  0.45714700  0.24787200  1
  H  1007  1  0.88278900  0.38091300  0.15500000  1
  H  1008  1  0.84899400  0.37184600  0.15442600  1
  H  1015  1  0.92673500  0.77855200  0.53402000  1
  H  1019  1  0.88040600  0.82232500  0.63333800  1
  H  1020  1  0.85878100  0.80931400  0.64466600  1
  H  1027  1  0.44028700  0.24351800  0.78982100  1
  H  1031  1  0.38319500  0.15060800  0.77378700  1
  H  1032  1  0.34942800  0.14991200  0.78226900  1
  H  1039  1  0.42687400  0.52951800  0.75466000  1
  H  1043  1  0.38067500  0.62889700  0.80991700  1
  H  1044  1  0.35902000  0.64031400  0.83424100  1
  H  1051  1  0.44027100  0.21319000  0.46218600  1
  H  1055  1  0.38390500  0.22840100  0.38458200  1
  H  1056  1  0.35013400  0.21998400  0.37535400  1
  H  1063  1  0.04684900  0.52678000  0.78235800  1
  H  1067  1  0.08889600  0.62667800  0.81969400  1
  H  1068  1  0.10890100  0.63710800  0.80490900  1
  H  1075  1  0.04733100  0.21969400  0.75160100  1
  H  1079  1  0.08957400  0.18283700  0.81450400  1
  H  1080  1  0.10937000  0.19778700  0.83982300  1
  H  1087  1  0.04713600  0.25045500  0.47586100  1
  H  1091  1  0.08901200  0.18776500  0.37593400  1
  H  1092  1  0.10890100  0.16248500  0.36548400  1
  H  1099  1  0.54706900  0.47146500  0.22408000  1
  H  1103  1  0.58960400  0.37178100  0.18719200  1
  H  1104  1  0.60946700  0.36144500  0.20213600  1
  H  1111  1  0.54677600  0.77793200  0.25460700  1
  H  1115  1  0.58903600  0.81536300  0.19218700  1
  H  1116  1  0.60909500  0.80060800  0.16700300  1
  H  1123  1  0.54675400  0.74750600  0.53118200  1
  H  1127  1  0.58943400  0.81014600  0.63084700  1
  H  1128  1  0.60941700  0.83536000  0.64117600  1
  H  1135  1  0.71741400  0.63981500  0.06854000  1
  H  1139  1  0.79178700  0.73051600  0.11291900  1
  H  1140  1  0.78408600  0.75526400  0.13954000  1
  H  1147  1  0.71649400  0.42318800  0.36277600  1
  H  1151  1  0.79143300  0.37700400  0.27248000  1
  H  1152  1  0.78394200  0.37880300  0.24765400  1
  H  1159  1  0.71714400  0.93392400  0.57918100  1
  H  1163  1  0.79139000  0.88975100  0.62579700  1
  H  1164  1  0.78375200  0.86309900  0.62387700  1
  H  1171  1  0.21643800  0.35860400  0.93870000  1
  H  1175  1  0.29139700  0.26830400  0.89468300  1
  H  1176  1  0.28391600  0.24346700  0.86806500  1
  H  1183  1  0.21722100  0.57447000  0.64398400  1
  H  1187  1  0.29160400  0.62090600  0.73467100  1
  H  1188  1  0.28392500  0.61907300  0.75944400  1
  H  1195  1  0.21664300  0.06390200  0.42804500  1
  H  1199  1  0.29174200  0.10797300  0.38192600  1
  H  1200  1  0.28423800  0.13454700  0.38361800  1
  H  1207  1  0.25394500  0.58347400  0.94659600  1
  H  1211  1  0.17891300  0.62745100  0.89986700  1
  H  1212  1  0.18679700  0.62466000  0.87288400  1
  H  1219  1  0.25507000  0.05532400  0.64685600  1
  H  1223  1  0.17858000  0.10327300  0.73646100  1
  H  1224  1  0.18605000  0.13052200  0.76044800  1
  H  1231  1  0.25475900  0.35569800  0.41665100  1
  H  1235  1  0.17832700  0.26600500  0.37498500  1
  H  1236  1  0.18583800  0.24207200  0.37832100  1
  H  1243  1  0.75487800  0.41174900  0.05972400  1
  H  1247  1  0.67836900  0.37014100  0.10769500  1
  H  1248  1  0.68582300  0.37341600  0.13495000  1
  H  1255  1  0.75375100  0.94225000  0.36220400  1
  H  1259  1  0.67872300  0.89555100  0.27151000  1
  H  1260  1  0.68659000  0.86856000  0.24731900  1
  H  1267  1  0.75398800  0.64048200  0.58815900  1
  H  1271  1  0.67896900  0.73114500  0.63237600  1
  H  1272  1  0.68682300  0.75541800  0.62971300  1
  H  1279  1  0.94282500  0.60023700  0.99439000  1
  H  1283  1  0.02761300  0.65793800  0.97067200  1
  H  1284  1  0.04782900  0.68021200  0.99190400  1
  H  1291  1  0.94285200  0.38880000  0.40278100  1
  H  1295  1  0.02728000  0.30721300  0.34477800  1
  H  1296  1  0.04725500  0.30601400  0.32230700  1
  H  1303  1  0.94281200  0.00842600  0.61444900  1
  H  1307  1  0.02835800  0.03197500  0.69532000  1
  H  1308  1  0.04852300  0.01068800  0.69630900  1
  H  1315  1  0.44282000  0.39833700  0.01308400  1
  H  1319  1  0.52752900  0.34026400  0.03635500  1
  H  1320  1  0.54749100  0.31783900  0.01501500  1
  H  1327  1  0.44262300  0.60946000  0.60470800  1
  H  1331  1  0.52784400  0.69050700  0.66238100  1
  H  1332  1  0.54806500  0.69142100  0.68459400  1
  H  1339  1  0.44273100  0.98967700  0.39369400  1
  H  1343  1  0.52673200  0.96625100  0.31184700  1
  H  1344  1  0.54674800  0.98753800  0.31071600  1
  H  1351  1  0.02886500  0.38922700  0.00756700  1
  H  1355  1  0.94883400  0.33737400  0.04018900  1
  H  1356  1  0.92870800  0.31334300  0.02144600  1
  H  1363  1  0.03079400  0.61646100  0.61456100  1
  H  1367  1  0.94656200  0.69777900  0.66692000  1
  H  1368  1  0.92608300  0.70145900  0.69021500  1
  H  1375  1  0.03053200  0.99292100  0.38606100  1
  H  1379  1  0.94627500  0.96380100  0.30474300  1
  H  1380  1  0.92572800  0.98337500  0.30105600  1
  H  1387  1  0.53090400  0.61033300  0.99714800  1
  H  1391  1  0.44646500  0.66277300  0.96845000  1
  H  1392  1  0.42596700  0.68601600  0.98812200  1
  H  1399  1  0.52905500  0.38473700  0.39338400  1
  H  1403  1  0.44850300  0.30063200  0.34150800  1
  H  1404  1  0.42830400  0.29553900  0.31757800  1
  H  1411  1  0.52947600  0.00353800  0.61794200  1
  H  1415  1  0.44891100  0.03553300  0.70201900  1
  H  1416  1  0.42878500  0.01663200  0.70707800  1
  H  1423  1  0.90505900  0.51687100  0.07004400  1
  H  1427  1  0.87278800  0.61482200  0.15664800  1
  H  1428  1  0.88557300  0.62426100  0.18455600  1
  H  1435  1  0.90482600  0.54620400  0.48574100  1
  H  1439  1  0.87469000  0.53725500  0.38855500  1
  H  1440  1  0.88855900  0.55561900  0.37939700  1
  H  1447  1  0.90449400  0.93496400  0.45663600  1
  H  1451  1  0.87443200  0.84715200  0.46629100  1
  H  1452  1  0.88830200  0.81959400  0.44806800  1
  H  1459  1  0.40528400  0.48144800  0.93864800  1
  H  1463  1  0.37467600  0.38436900  0.85045000  1
  H  1464  1  0.38845100  0.37519400  0.82289400  1
  H  1471  1  0.40531600  0.45027000  0.52117800  1
  H  1475  1  0.37298100  0.46149200  0.61906800  1
  H  1476  1  0.38582300  0.44304300  0.62851200  1
  H  1483  1  0.40610200  0.06632800  0.55262900  1
  H  1487  1  0.37316400  0.15326700  0.54199300  1
  H  1488  1  0.38581000  0.18118200  0.56062400  1
  H  1495  1  0.06388700  0.45676200  0.94256400  1
  H  1499  1  0.09754400  0.46797400  0.85686100  1
  H  1500  1  0.08439100  0.45046500  0.82884700  1
  H  1507  1  0.06483900  0.05946300  0.52177500  1
  H  1511  1  0.09800000  0.14552200  0.61864800  1
  H  1512  1  0.08456800  0.17343900  0.62909100  1
  H  1519  1  0.06464700  0.48062600  0.54549700  1
  H  1523  1  0.09782500  0.38379200  0.53471200  1
  H  1524  1  0.08446900  0.37338100  0.55223600  1
  H  1531  1  0.56541000  0.54114800  0.06383900  1
  H  1535  1  0.59790700  0.53032600  0.15002000  1
  H  1536  1  0.58434400  0.54780300  0.17788800  1
  H  1543  1  0.56411400  0.93821800  0.48493700  1
  H  1547  1  0.59730900  0.85244600  0.38793000  1
  H  1548  1  0.58408300  0.82446100  0.37746000  1
  H  1555  1  0.56450500  0.51750600  0.46113400  1
  H  1559  1  0.59754900  0.61454900  0.47231000  1
  H  1560  1  0.58418400  0.62503100  0.45484600  1
  C  1  1  0.79565900  0.68267000  0.10118900  1
  C  2  1  0.80549300  0.68150800  0.12173700  1
  C  3  1  0.83461300  0.67645400  0.12361400  1
  C  4  1  0.85480300  0.67239000  0.10504800  1
  C  5  1  0.84494800  0.67511700  0.08526000  1
  C  6  1  0.81562400  0.67941200  0.08294200  1
  C  8  1  0.89973200  0.69082600  0.13306600  1
  C  9  1  0.90173900  0.71314000  0.13290100  1
  C  10  1  0.90547400  0.73551900  0.15471900  1
  C  11  1  0.90683400  0.73660200  0.17765400  1
  C  12  1  0.90530700  0.71426700  0.17777300  1
  C  13  1  0.90158000  0.69188400  0.15598100  1
  C  14  1  0.89138900  0.64058700  0.11040900  1
  C  15  1  0.90889400  0.65833600  0.08323400  1
  C  16  1  0.93586100  0.66936100  0.08436900  1
  C  17  1  0.95241000  0.66202700  0.06312000  1
  C  18  1  0.94298800  0.64320100  0.03986500  1
  C  19  1  0.91622400  0.63192800  0.03896800  1
  C  20  1  0.89988400  0.63894600  0.06020100  1
  C  21  1  0.86850000  0.62347800  0.10342800  1
  C  22  1  0.87166100  0.60178900  0.10431700  1
  C  23  1  0.89766200  0.59673400  0.11258100  1
  C  24  1  0.92086200  0.61329800  0.11904700  1
  C  25  1  0.91793600  0.63463100  0.11740700  1
  C  42  1  0.79505000  0.41300800  0.32035200  1
  C  43  1  0.80508300  0.43436000  0.32085400  1
  C  44  1  0.83421800  0.44124900  0.32587800  1
  C  45  1  0.85420000  0.42707900  0.33061000  1
  C  46  1  0.84413200  0.40493600  0.32864600  1
  C  47  1  0.81480700  0.39836000  0.32432500  1
  C  49  1  0.89911600  0.43542500  0.31122100  1
  C  50  1  0.89914200  0.41259400  0.28913800  1
  C  51  1  0.90307000  0.41122900  0.26642000  1
  C  52  1  0.90737600  0.43262400  0.26495700  1
  C  53  1  0.90819400  0.45539000  0.28692900  1
  C  54  1  0.90370000  0.45678900  0.30963000  1
  C  55  1  0.89117400  0.46422300  0.36168300  1
  C  56  1  0.90839200  0.41920700  0.34438800  1
  C  57  1  0.93493400  0.40866700  0.33284900  1
  C  58  1  0.95153400  0.39485000  0.34026100  1
  C  59  1  0.94259100  0.39111700  0.35964900  1
  C  60  1  0.91623300  0.40210500  0.37139300  1
  C  61  1  0.89984600  0.41623500  0.36429200  1
  C  62  1  0.86830100  0.47473200  0.37876700  1
  C  63  1  0.87182900  0.49715000  0.40056600  1
  C  64  1  0.89822000  0.50996200  0.40580000  1
  C  65  1  0.92134300  0.49957000  0.38920000  1
  C  66  1  0.91801700  0.47674400  0.36774500  1
  C  83  1  0.79539300  0.90146200  0.58966200  1
  C  84  1  0.80530700  0.88107500  0.56785100  1
  C  85  1  0.83446400  0.87929500  0.56104800  1
  C  86  1  0.85458700  0.89782500  0.57576000  1
  C  87  1  0.84463900  0.91744800  0.59834600  1
  C  88  1  0.81528700  0.91966200  0.60485400  1
  C  90  1  0.89955000  0.86988600  0.56621300  1
  C  91  1  0.90154700  0.86994800  0.58864200  1
  C  92  1  0.90531300  0.84809000  0.58911500  1
  C  93  1  0.90671200  0.82519900  0.56721400  1
  C  94  1  0.90523500  0.82517900  0.54480600  1
  C  95  1  0.90149300  0.84702200  0.54431000  1
  C  96  1  0.89138500  0.89286000  0.53887700  1
  C  97  1  0.90865200  0.91975300  0.58385800  1
  C  98  1  0.93569800  0.91852600  0.59358400  1
  C  99  1  0.95230300  0.93973600  0.60750900  1
  C  100  1  0.94286800  0.96303400  0.61208000  1
  C  101  1  0.91598500  0.96404200  0.60192800  1
  C  102  1  0.89958200  0.94285300  0.58771900  1
  C  103  1  0.86866400  0.90016700  0.52888700  1
  C  104  1  0.87206100  0.89974100  0.50654700  1
  C  105  1  0.89816000  0.89167100  0.49334100  1
  C  106  1  0.92116700  0.88482000  0.50328800  1
  C  107  1  0.91799500  0.88596500  0.52601700  1
  C  124  1  0.29497900  0.31617900  0.90653600  1
  C  125  1  0.30496200  0.31673300  0.88569800  1
  C  126  1  0.33409300  0.32174700  0.88380600  1
  C  127  1  0.35410900  0.32643000  0.90267300  1
  C  128  1  0.34408300  0.32443100  0.92284100  1
  C  129  1  0.31476600  0.32010600  0.92512000  1
  C  131  1  0.39897400  0.30694600  0.87489200  1
  C  132  1  0.39899800  0.28490100  0.87571400  1
  C  133  1  0.40287400  0.26215100  0.85438800  1
  C  134  1  0.40713700  0.26061900  0.83149500  1
  C  135  1  0.40788000  0.28255300  0.83062400  1
  C  136  1  0.40346400  0.30528900  0.85189800  1
  C  137  1  0.39114200  0.35741300  0.89651000  1
  C  138  1  0.40834400  0.34013000  0.92424300  1
  C  139  1  0.43488800  0.32857500  0.92320200  1
  C  140  1  0.45150500  0.33594500  0.94441200  1
  C  141  1  0.44256900  0.35529800  0.96755700  1
  C  142  1  0.41622200  0.36707400  0.96834900  1
  C  143  1  0.39983100  0.36002700  0.94713300  1
  C  144  1  0.36834200  0.37457100  0.90316200  1
  C  145  1  0.37195100  0.39637100  0.90255800  1
  C  146  1  0.39834800  0.40152900  0.89492300  1
  C  147  1  0.42139600  0.38484700  0.88862900  1
  C  148  1  0.41799700  0.36339100  0.88998500  1
  C  165  1  0.29548900  0.58472600  0.68686000  1
  C  166  1  0.30534900  0.56301500  0.68568400  1
  C  167  1  0.33448600  0.55612800  0.68067500  1
  C  168  1  0.35465300  0.57065500  0.67662600  1
  C  169  1  0.34476500  0.59316000  0.67934700  1
  C  170  1  0.31543300  0.59974200  0.68362400  1
  C  172  1  0.39957900  0.56117500  0.69514200  1
  C  173  1  0.40155900  0.58368800  0.71742800  1
  C  174  1  0.40534200  0.58432200  0.73983700  1
  C  175  1  0.40675700  0.56250300  0.74098200  1
  C  176  1  0.40521900  0.54001800  0.71868200  1
  C  177  1  0.40145700  0.53936100  0.69627300  1
  C  178  1  0.39133600  0.53354000  0.64489800  1
  C  179  1  0.40876100  0.57847900  0.66264200  1
  C  180  1  0.43571700  0.58836800  0.67368600  1
  C  181  1  0.45226700  0.60231200  0.66639200  1
  C  182  1  0.44285200  0.60677300  0.64758500  1
  C  183  1  0.41609400  0.59640000  0.63629300  1
  C  184  1  0.39976200  0.58214500  0.64326500  1
  C  185  1  0.36850200  0.52337600  0.62773700  1
  C  186  1  0.37174800  0.50081300  0.60604600  1
  C  187  1  0.39778400  0.48754500  0.60103400  1
  C  188  1  0.42092900  0.49767800  0.61765200  1
  C  189  1  0.41791200  0.52063100  0.63899400  1
  C  206  1  0.29522300  0.09623800  0.41801900  1
  C  207  1  0.30517400  0.11717100  0.43933700  1
  C  208  1  0.33429600  0.11914300  0.44628900  1
  C  209  1  0.35433800  0.10024100  0.43225800  1
  C  210  1  0.34434200  0.07994900  0.41016800  1
  C  211  1  0.31504000  0.07761100  0.40351000  1
  C  213  1  0.39919000  0.12804900  0.44055000  1
  C  214  1  0.39926100  0.12715300  0.41764700  1
  C  215  1  0.40315900  0.14843900  0.41615100  1
  C  216  1  0.40737000  0.17137300  0.43747600  1
  C  217  1  0.40806100  0.17232000  0.46031400  1
  C  218  1  0.40358700  0.15109300  0.46184600  1
  C  219  1  0.39124300  0.10669200  0.46958500  1
  C  220  1  0.40857900  0.07872100  0.42459900  1
  C  221  1  0.43503000  0.07966100  0.41390700  1
  C  222  1  0.45155900  0.05840000  0.40002400  1
  C  223  1  0.44262500  0.03529900  0.39635500  1
  C  224  1  0.41640100  0.03462000  0.40755300  1
  C  225  1  0.40009300  0.05588400  0.42175500  1
  C  226  1  0.36831000  0.10035800  0.48024100  1
  C  227  1  0.37171100  0.10143900  0.50288600  1
  C  228  1  0.39803500  0.10925100  0.51576800  1
  C  229  1  0.42126000  0.11512900  0.50519800  1
  C  230  1  0.41805500  0.11330300  0.48215800  1
  C  247  1  0.17587000  0.59128200  0.91209500  1
  C  248  1  0.16769200  0.56832400  0.89236000  1
  C  249  1  0.13865800  0.56094000  0.88903200  1
  C  250  1  0.11688000  0.57620900  0.90532100  1
  C  251  1  0.12523100  0.59971500  0.92437500  1
  C  252  1  0.15442900  0.60687400  0.92819600  1
  C  254  1  0.07537100  0.56410200  0.87364000  1
  C  255  1  0.07305200  0.58573500  0.87222100  1
  C  256  1  0.06945900  0.58469400  0.84961100  1
  C  257  1  0.06864900  0.56202500  0.82743600  1
  C  258  1  0.07152500  0.54042800  0.82882500  1
  C  259  1  0.07504300  0.54143900  0.85143600  1
  C  260  1  0.07926200  0.53968400  0.90000900  1
  C  261  1  0.05989900  0.58429600  0.92244800  1
  C  262  1  0.03230300  0.59027300  0.91719000  1
  C  263  1  0.01211000  0.60336000  0.93592000  1
  C  264  1  0.01917300  0.61121000  0.96049100  1
  C  265  1  0.04629000  0.60489600  0.96590000  1
  C  266  1  0.06604400  0.59115800  0.94707000  1
  C  267  1  0.10020900  0.53127900  0.91046600  1
  C  268  1  0.09614300  0.50939300  0.91084900  1
  C  269  1  0.07109100  0.49512600  0.90061800  1
  C  270  1  0.04960200  0.50374900  0.89096100  1
  C  271  1  0.05337500  0.52598700  0.89119800  1
  C  288  1  0.17637700  0.09005800  0.68774700  1
  C  289  1  0.16848900  0.10963300  0.68416600  1
  C  290  1  0.13959100  0.11287500  0.67966200  1
  C  291  1  0.11765500  0.09665900  0.67853400  1
  C  292  1  0.12571200  0.07770500  0.68323400  1
  C  293  1  0.15478300  0.07397900  0.68704500  1
  C  295  1  0.07634100  0.12854000  0.69797700  1
  C  296  1  0.07398700  0.13002900  0.72105700  1
  C  297  1  0.07031400  0.15266700  0.74257000  1
  C  298  1  0.06942600  0.17478900  0.74198000  1
  C  299  1  0.07237600  0.17333200  0.71896900  1
  C  300  1  0.07598000  0.15069300  0.69742100  1
  C  301  1  0.08018000  0.10209900  0.64721800  1
  C  302  1  0.06057900  0.07983400  0.66950300  1
  C  303  1  0.03302400  0.08527100  0.68081700  1
  C  304  1  0.01273600  0.06665800  0.67536600  1
  C  305  1  0.01963800  0.04203400  0.65872300  1
  C  306  1  0.04667800  0.03644700  0.64686700  1
  C  307  1  0.06655200  0.05515800  0.65179700  1
  C  308  1  0.10123100  0.09180400  0.62843500  1
  C  309  1  0.09717300  0.09142800  0.60616400  1
  C  310  1  0.07205600  0.10155100  0.60207300  1
  C  311  1  0.05049200  0.11107600  0.62029000  1
  C  312  1  0.05424900  0.11081800  0.64228000  1
  C  329  1  0.17606900  0.31468800  0.41046800  1
  C  330  1  0.16809600  0.31821700  0.43358900  1
  C  331  1  0.13917200  0.32266700  0.44126100  1
  C  332  1  0.11727800  0.32375800  0.42612100  1
  C  333  1  0.12541200  0.31908900  0.40249300  1
  C  334  1  0.15451300  0.31535600  0.39504200  1
  C  336  1  0.07590200  0.30428200  0.43845200  1
  C  337  1  0.07349900  0.28122900  0.41683600  1
  C  338  1  0.06984700  0.25968400  0.41790700  1
  C  339  1  0.06901800  0.26020600  0.44058900  1
  C  340  1  0.07195500  0.28320000  0.46217400  1
  C  341  1  0.07558900  0.30477500  0.46113200  1
  C  342  1  0.07980200  0.35507300  0.46282800  1
  C  343  1  0.06020100  0.33281600  0.41827900  1
  C  344  1  0.03256000  0.32165900  0.41254100  1
  C  345  1  0.01223300  0.32725100  0.39951200  1
  C  346  1  0.01918200  0.34388900  0.39153500  1
  C  347  1  0.04633900  0.35555600  0.39762200  1
  C  348  1  0.06623200  0.35051600  0.41131100  1
  C  349  1  0.10078800  0.37390100  0.47120600  1
  C  350  1  0.09673000  0.39620700  0.49305900  1
  C  351  1  0.07168100  0.40030200  0.50734900  1
  C  352  1  0.05017900  0.38203300  0.49876300  1
  C  353  1  0.05393000  0.36000200  0.47655000  1
  C  370  1  0.67617900  0.40560000  0.09444000  1
  C  371  1  0.66830300  0.42872700  0.11407300  1
  C  372  1  0.63942500  0.43651800  0.11730800  1
  C  373  1  0.61748300  0.42149200  0.10104500  1
  C  374  1  0.62551800  0.39786000  0.08204000  1
  C  375  1  0.65457800  0.39028700  0.07831500  1
  C  377  1  0.57617500  0.43399400  0.13293100  1
  C  378  1  0.57380600  0.41240100  0.13441900  1
  C  379  1  0.57011500  0.41351900  0.15704900  1
  C  380  1  0.56920400  0.43622800  0.17917100  1
  C  381  1  0.57208700  0.45779000  0.17771900  1
  C  382  1  0.57575400  0.45669900  0.15508700  1
  C  383  1  0.58012900  0.45831800  0.10649800  1
  C  384  1  0.56037200  0.41381600  0.08426300  1
  C  385  1  0.53279500  0.40800800  0.08973200  1
  C  386  1  0.51242500  0.39496000  0.07115800  1
  C  387  1  0.51926400  0.38703800  0.04653700  1
  C  388  1  0.54633700  0.39321300  0.04090800  1
  C  389  1  0.56629300  0.40687800  0.05958700  1
  C  390  1  0.60125700  0.46679400  0.09625100  1
  C  391  1  0.59728300  0.48870000  0.09588200  1
  C  392  1  0.57217100  0.50293700  0.10595100  1
  C  393  1  0.55053500  0.49426300  0.11543600  1
  C  394  1  0.55422200  0.47201200  0.11518800  1
  C  411  1  0.67564100  0.90775400  0.31989000  1
  C  412  1  0.66747000  0.88799200  0.32307200  1
  C  413  1  0.63844200  0.88466300  0.32714000  1
  C  414  1  0.61666000  0.90097200  0.32820900  1
  C  415  1  0.62500600  0.92007000  0.32382300  1
  C  416  1  0.65420200  0.92388800  0.32047000  1
  C  418  1  0.57520900  0.86925600  0.30862300  1
  C  419  1  0.57290500  0.86783000  0.28556700  1
  C  420  1  0.56935100  0.84521600  0.26400000  1
  C  421  1  0.56851700  0.82304400  0.26449900  1
  C  422  1  0.57130500  0.82444300  0.28749700  1
  C  423  1  0.57483600  0.84705700  0.30909100  1
  C  424  1  0.57907300  0.89564100  0.35942100  1
  C  425  1  0.55962000  0.91801000  0.33720600  1
  C  426  1  0.53201400  0.91269200  0.32599000  1
  C  427  1  0.51174700  0.93136800  0.33162700  1
  C  428  1  0.51872000  0.95594500  0.34838300  1
  C  429  1  0.54584700  0.96143000  0.36009500  1
  C  430  1  0.56568200  0.94264700  0.35498400  1
  C  431  1  0.60004500  0.90608900  0.37826300  1
  C  432  1  0.59600700  0.90648600  0.40054100  1
  C  433  1  0.57096800  0.89626200  0.40460300  1
  C  434  1  0.54945800  0.88660300  0.38634100  1
  C  435  1  0.55320200  0.88682800  0.36433100  1
  C  452  1  0.67593700  0.68273700  0.59616000  1
  C  453  1  0.66787200  0.67953300  0.57318400  1
  C  454  1  0.63888700  0.67534800  0.56566600  1
  C  455  1  0.61705100  0.67418400  0.58081200  1
  C  456  1  0.62528500  0.67861900  0.60433800  1
  C  457  1  0.65443500  0.68209500  0.61163600  1
  C  459  1  0.57560200  0.69367700  0.56854300  1
  C  460  1  0.57330500  0.71674500  0.59015700  1
  C  461  1  0.56968800  0.73828700  0.58907400  1
  C  462  1  0.56878900  0.73773800  0.56638300  1
  C  463  1  0.57164000  0.71473600  0.54480300  1
  C  464  1  0.57520900  0.69316600  0.54585500  1
  C  465  1  0.57955000  0.64292300  0.54415500  1
  C  466  1  0.56003700  0.66510600  0.58873100  1
  C  467  1  0.53247600  0.67639900  0.59472700  1
  C  468  1  0.51225000  0.67080600  0.60782600  1
  C  469  1  0.51923200  0.65405100  0.61564800  1
  C  470  1  0.54630700  0.64225500  0.60930600  1
  C  471  1  0.56609000  0.64729800  0.59555100  1
  C  472  1  0.60062800  0.62415900  0.53565400  1
  C  473  1  0.59661600  0.60191200  0.51373300  1
  C  474  1  0.57149700  0.59781300  0.49952500  1
  C  475  1  0.54989400  0.61599900  0.50823300  1
  C  476  1  0.55361900  0.63797400  0.53050100  1
  C  493  1  0.17564100  0.32561900  0.90955100  1
  C  494  1  0.16587000  0.34559300  0.90726200  1
  C  495  1  0.13638200  0.34867100  0.90436800  1
  C  496  1  0.11546400  0.33236700  0.90449700  1
  C  497  1  0.12553300  0.31192800  0.90602400  1
  C  498  1  0.15513300  0.30849600  0.90832100  1
  C  500  1  0.07256200  0.31062200  0.87469800  1
  C  501  1  0.05700900  0.29059900  0.87329000  1
  C  502  1  0.05484800  0.26830400  0.85118900  1
  C  503  1  0.06875500  0.26516900  0.82992400  1
  C  504  1  0.08362700  0.28512900  0.83086700  1
  C  505  1  0.08585100  0.30739000  0.85302900  1
  C  506  1  0.07227400  0.36182400  0.90242200  1
  C  507  1  0.06121200  0.33714200  0.92455200  1
  C  508  1  0.03063400  0.33668700  0.92339400  1
  C  509  1  0.01384800  0.34031700  0.94348100  1
  C  510  1  0.02720000  0.34571800  0.96571800  1
  C  511  1  0.05760300  0.34659800  0.96722200  1
  C  512  1  0.07436900  0.34217200  0.94687200  1
  C  513  1  0.07992500  0.38417000  0.92350300  1
  C  514  1  0.07585500  0.40672200  0.92452800  1
  C  515  1  0.06316400  0.40809700  0.90483200  1
  C  516  1  0.05354800  0.38587000  0.88454500  1
  C  517  1  0.05772600  0.36323000  0.88343900  1
  C  534  1  0.17612000  0.57854500  0.67686600  1
  C  535  1  0.16626900  0.55633500  0.65686600  1
  C  536  1  0.13673600  0.55051300  0.65370300  1
  C  537  1  0.11585400  0.56704300  0.66996000  1
  C  538  1  0.12599500  0.58895500  0.69042600  1
  C  539  1  0.15563200  0.59453500  0.69393500  1
  C  541  1  0.07276700  0.55917500  0.69167900  1
  C  542  1  0.05721200  0.57782400  0.71167400  1
  C  543  1  0.05492300  0.57802500  0.73396900  1
  C  544  1  0.06866400  0.55985400  0.73714100  1
  C  545  1  0.08353400  0.54080400  0.71720600  1
  C  546  1  0.08591800  0.54071200  0.69495400  1
  C  547  1  0.07257900  0.53565000  0.64047000  1
  C  548  1  0.06174500  0.58254000  0.66511000  1
  C  549  1  0.03116300  0.58198600  0.66555200  1
  C  550  1  0.01454600  0.59865800  0.66212200  1
  C  551  1  0.02804200  0.61556200  0.65687600  1
  C  552  1  0.05846000  0.61598900  0.65595400  1
  C  553  1  0.07506200  0.59983000  0.66016200  1
  C  554  1  0.08035700  0.53431300  0.61811500  1
  C  555  1  0.07630400  0.51276500  0.59557500  1
  C  556  1  0.06357400  0.49171500  0.59421900  1
  C  557  1  0.05383300  0.49372400  0.61644700  1
  C  558  1  0.05795900  0.51529400  0.63907300  1
  C  575  1  0.17582700  0.09291500  0.42400900  1
  C  576  1  0.16592800  0.09516500  0.44622100  1
  C  577  1  0.13639500  0.09789500  0.45203200  1
  C  578  1  0.11555600  0.09763600  0.43547900  1
  C  579  1  0.12575100  0.09619000  0.41358000  1
  C  580  1  0.15539600  0.09405600  0.40801400  1
  C  582  1  0.07251600  0.12726600  0.44337100  1
  C  583  1  0.05701100  0.12866600  0.42473200  1
  C  584  1  0.05475900  0.15078600  0.42457800  1
  C  585  1  0.06856900  0.17208600  0.44275000  1
  C  586  1  0.08344300  0.17113700  0.46176300  1
  C  587  1  0.08570000  0.14897200  0.46185900  1
  C  588  1  0.07226800  0.09948400  0.46680100  1
  C  589  1  0.06144300  0.07733300  0.41991500  1
  C  590  1  0.03086000  0.07833700  0.42046500  1
  C  591  1  0.01424100  0.05823200  0.40380100  1
  C  592  1  0.02773600  0.03608800  0.38688300  1
  C  593  1  0.05815200  0.03473500  0.38645000  1
  C  594  1  0.07475600  0.05509800  0.40261100  1
  C  595  1  0.08000700  0.07841200  0.46805500  1
  C  596  1  0.07615100  0.07743400  0.48962700  1
  C  597  1  0.06350300  0.09712000  0.51073300  1
  C  598  1  0.05373300  0.11736800  0.50878600  1
  C  599  1  0.05775000  0.11845200  0.48722100  1
  C  616  1  0.67630000  0.67266400  0.09737700  1
  C  617  1  0.66649200  0.65266200  0.09960100  1
  C  618  1  0.63697000  0.64947000  0.10226400  1
  C  619  1  0.61605100  0.66569200  0.10197300  1
  C  620  1  0.62614900  0.68616800  0.10052400  1
  C  621  1  0.65577600  0.68971000  0.09845400  1
  C  623  1  0.57293100  0.68734200  0.13155900  1
  C  624  1  0.55741500  0.70735400  0.13290900  1
  C  625  1  0.55509400  0.72963000  0.15501600  1
  C  626  1  0.56881500  0.73278200  0.17635700  1
  C  627  1  0.58373700  0.71285600  0.17544700  1
  C  628  1  0.58609300  0.69060000  0.15328800  1
  C  629  1  0.57285300  0.63613300  0.10384100  1
  C  630  1  0.56191400  0.66079000  0.08163700  1
  C  631  1  0.53133400  0.66120600  0.08265100  1
  C  632  1  0.51468400  0.65780600  0.06257700  1
  C  633  1  0.52814800  0.65257900  0.04042200  1
  C  634  1  0.55856600  0.65167200  0.03904900  1
  C  635  1  0.57520100  0.65587400  0.05939800  1
  C  636  1  0.58066200  0.61380500  0.08280600  1
  C  637  1  0.57676200  0.59125900  0.08183100  1
  C  638  1  0.56401000  0.58984800  0.10148700  1
  C  639  1  0.55419800  0.61204800  0.12170300  1
  C  640  1  0.55822700  0.63468800  0.12277200  1
  C  657  1  0.67569300  0.41939300  0.32981600  1
  C  658  1  0.66595000  0.44167100  0.34978200  1
  C  659  1  0.63646700  0.44765500  0.35288900  1
  C  660  1  0.61552200  0.43120600  0.33663600  1
  C  661  1  0.62556300  0.40923300  0.31618700  1
  C  662  1  0.65516300  0.40349600  0.31272200  1
  C  664  1  0.57254500  0.43928800  0.31496500  1
  C  665  1  0.55704400  0.42064700  0.29492900  1
  C  666  1  0.55485400  0.42046600  0.27264400  1
  C  667  1  0.56869600  0.43863100  0.26952900  1
  C  668  1  0.58355100  0.45766200  0.28949200  1
  C  669  1  0.58581900  0.45773900  0.31174000  1
  C  670  1  0.57239600  0.46274300  0.36616800  1
  C  671  1  0.56126100  0.41595100  0.34147600  1
  C  672  1  0.53068600  0.41667600  0.34105200  1
  C  673  1  0.51390200  0.40021900  0.34468300  1
  C  674  1  0.52726700  0.38332800  0.34999800  1
  C  675  1  0.55767000  0.38266300  0.35082700  1
  C  676  1  0.57442800  0.39864800  0.34648400  1
  C  677  1  0.58014600  0.46399000  0.38848700  1
  C  678  1  0.57613400  0.48550600  0.41105700  1
  C  679  1  0.56345800  0.50660000  0.41247400  1
  C  680  1  0.55374200  0.50468100  0.39028000  1
  C  681  1  0.55783900  0.48314800  0.36762300  1
  C  698  1  0.67607700  0.90497700  0.58306400  1
  C  699  1  0.66634700  0.90272300  0.56080600  1
  C  700  1  0.63685300  0.89992900  0.55484000  1
  C  701  1  0.61589100  0.90013600  0.57128000  1
  C  702  1  0.62591300  0.90165400  0.59325500  1
  C  703  1  0.65551300  0.90384300  0.59897300  1
  C  705  1  0.57286400  0.87046000  0.56329100  1
  C  706  1  0.55732000  0.86912200  0.58194800  1
  C  707  1  0.55502700  0.84703900  0.58215900  1
  C  708  1  0.56878900  0.82570800  0.56400000  1
  C  709  1  0.58368100  0.82657800  0.54495200  1
  C  710  1  0.58605400  0.84873000  0.54484800  1
  C  711  1  0.57273000  0.89808600  0.53971500  1
  C  712  1  0.56166300  0.92031300  0.58651900  1
  C  713  1  0.53108500  0.91920000  0.58586667  1
  C  714  1  0.51433900  0.93929700  0.60232500  1
  C  715  1  0.52772500  0.96149100  0.61922200  1
  C  716  1  0.55813200  0.96295500  0.61981500  1
  C  717  1  0.57485700  0.94261000  0.60381500  1
  C  718  1  0.58047400  0.91911400  0.53838500  1
  C  719  1  0.57630800  0.92013500  0.51686500  1
  C  720  1  0.56345300  0.90048000  0.49586100  1
  C  721  1  0.55378500  0.88023900  0.49785900  1
  C  722  1  0.55804400  0.87914500  0.51939200  1
  C  739  1  0.79516800  0.40931100  0.09002600  1
  C  740  1  0.80386200  0.43241800  0.09385400  1
  C  741  1  0.83284100  0.43982500  0.09868200  1
  C  742  1  0.85446200  0.42410400  0.09901200  1
  C  743  1  0.84547100  0.40109800  0.09559200  1
  C  744  1  0.81626900  0.39393000  0.09145700  1
  C  746  1  0.89503400  0.43291500  0.13157500  1
  C  747  1  0.91424000  0.41626700  0.13322200  1
  C  748  1  0.91767100  0.41583900  0.15509900  1
  C  749  1  0.90049100  0.43094400  0.17557300  1
  C  750  1  0.88094100  0.44738500  0.17427500  1
  C  751  1  0.87835300  0.44839300  0.15257900  1
  C  752  1  0.89516700  0.45938600  0.10672400  1
  C  753  1  0.91140500  0.41384600  0.08329700  1
  C  754  1  0.94156400  0.41759500  0.08702800  1
  C  755  1  0.96124800  0.40262100  0.06872800  1
  C  756  1  0.95162100  0.38417400  0.04545800  1
  C  757  1  0.92150300  0.38141900  0.04121300  1
  C  758  1  0.90173200  0.39573100  0.05986300  1
  C  759  1  0.88972800  0.46132400  0.08566400  1
  C  760  1  0.89336100  0.48354500  0.08595500  1
  C  761  1  0.90345200  0.50482600  0.10705800  1
  C  762  1  0.91035600  0.50248500  0.12769400  1
  C  763  1  0.90649500  0.48023800  0.12752500  1
  C  780  1  0.79467300  0.91303900  0.32930300  1
  C  781  1  0.80374700  0.90890300  0.34830300  1
  C  782  1  0.83288600  0.90428700  0.35067900  1
  C  783  1  0.85422700  0.90452700  0.33471400  1
  C  784  1  0.84487600  0.90835800  0.31547500  1
  C  785  1  0.81555400  0.91227700  0.31264400  1
  C  787  1  0.89377300  0.87159000  0.31071300  1
  C  788  1  0.90858900  0.87012400  0.29034300  1
  C  789  1  0.91061100  0.84798000  0.26810400  1
  C  790  1  0.89720600  0.82667700  0.26531000  1
  C  791  1  0.88202700  0.82789300  0.28527800  1
  C  792  1  0.87979600  0.85017400  0.30745600  1
  C  793  1  0.89623300  0.89769600  0.36210800  1
  C  794  1  0.91123500  0.91966200  0.33831200  1
  C  795  1  0.94130900  0.91496800  0.33583900  1
  C  796  1  0.96105700  0.93301600  0.33854600  1
  C  797  1  0.95166100  0.95680600  0.34493500  1
  C  798  1  0.92172800  0.96182300  0.34849500  1
  C  799  1  0.90181000  0.94352400  0.34494900  1
  C  800  1  0.88999800  0.91870200  0.38494100  1
  C  801  1  0.89385800  0.91872300  0.40702100  1
  C  802  1  0.90515100  0.89809800  0.40749300  1
  C  803  1  0.91342200  0.87779400  0.38473500  1
  C  804  1  0.90930700  0.87764200  0.36253400  1
  C  821  1  0.79491100  0.67336400  0.59186200  1
  C  822  1  0.80393600  0.65437800  0.56870100  1
  C  823  1  0.83305900  0.65199100  0.56166200  1
  C  824  1  0.85443200  0.66793600  0.57783700  1
  C  825  1  0.84513100  0.68715500  0.60094000  1
  C  826  1  0.81582800  0.68999600  0.60774000  1
  C  828  1  0.89386900  0.69201300  0.56891800  1
  C  829  1  0.90874800  0.71235600  0.58779500  1
  C  830  1  0.91074500  0.73460900  0.58791100  1
  C  831  1  0.89723100  0.73744400  0.56946600  1
  C  832  1  0.88198000  0.71750500  0.55075000  1
  C  833  1  0.87978600  0.69531300  0.55082600  1
  C  834  1  0.89641400  0.64065300  0.54348000  1
  C  835  1  0.91145900  0.66430900  0.58926000  1
  C  836  1  0.94152400  0.66681000  0.58702400  1
  C  837  1  0.96130900  0.66408900  0.60233200  1
  C  838  1  0.95196000  0.65761800  0.61968300  1
  C  839  1  0.92204300  0.65398300  0.62112200  1
  C  840  1  0.90208800  0.65756900  0.60642300  1
  C  841  1  0.89021100  0.61775000  0.54150200  1
  C  842  1  0.89410400  0.59574700  0.51936700  1
  C  843  1  0.90539700  0.59542600  0.49834100  1
  C  844  1  0.91363200  0.61825400  0.50094800  1
  C  845  1  0.90949500  0.64037200  0.52307200  1
  C  862  1  0.29489300  0.58725100  0.91746700  1
  C  863  1  0.30401900  0.56411200  0.91328700  1
  C  864  1  0.33318200  0.55718900  0.90873400  1
  C  865  1  0.35448700  0.57345100  0.90904200  1
  C  866  1  0.34508300  0.59652600  0.91291500  1
  C  867  1  0.31574400  0.60321700  0.91679400  1
  C  869  1  0.39392100  0.56465500  0.87607600  1
  C  870  1  0.40873500  0.58356300  0.87461800  1
  C  871  1  0.41073200  0.58367300  0.85247900  1
  C  872  1  0.39729200  0.56518300  0.83118500  1
  C  873  1  0.38209400  0.54644000  0.83240200  1
  C  874  1  0.37988900  0.54652700  0.85467400  1
  C  875  1  0.39660300  0.53920700  0.90198300  1
  C  876  1  0.41150500  0.58501400  0.92411600  1
  C  877  1  0.44156900  0.58283100  0.91937800  1
  C  878  1  0.46133500  0.59817400  0.93741000  1
  C  879  1  0.45196900  0.61548900  0.96124300  1
  C  880  1  0.42205600  0.61687600  0.96631200  1
  C  881  1  0.40212000  0.60213700  0.94802600  1
  C  882  1  0.39042500  0.53720800  0.92290100  1
  C  883  1  0.39441300  0.51508400  0.92277200  1
  C  884  1  0.40570300  0.49407300  0.90204900  1
  C  885  1  0.41390700  0.49670100  0.88183500  1
  C  886  1  0.40972000  0.51882600  0.88185500  1
  C  903  1  0.29538900  0.08552600  0.67965100  1
  C  904  1  0.30418700  0.08938700  0.66041900  1
  C  905  1  0.33319700  0.09418700  0.65790100  1
  C  906  1  0.35474400  0.09445600  0.67397700  1
  C  907  1  0.34565700  0.09096700  0.69349900  1
  C  908  1  0.31642700  0.08685800  0.69646700  1
  C  910  1  0.39514300  0.12708200  0.69797600  1
  C  911  1  0.41424100  0.12871200  0.71632700  1
  C  912  1  0.41761400  0.15058800  0.73864400  1
  C  913  1  0.40043000  0.17105100  0.74397900  1
  C  914  1  0.38095800  0.16975600  0.72619400  1
  C  915  1  0.37845500  0.14807100  0.70346900  1
  C  916  1  0.39562000  0.10242200  0.64667700  1
  C  917  1  0.41172300  0.07886400  0.66871000  1
  C  918  1  0.44187800  0.08269000  0.66885500  1
  C  919  1  0.46159800  0.06443800  0.66560300  1
  C  920  1  0.45201900  0.04111200  0.66064700  1
  C  921  1  0.42191600  0.03676100  0.65894300  1
  C  922  1  0.40210100  0.05537100  0.66324100  1
  C  923  1  0.39030400  0.08143600  0.62359500  1
  C  924  1  0.39402000  0.08190000  0.60176000  1
  C  925  1  0.40414400  0.10308400  0.60176100  1
  C  926  1  0.41093500  0.12364200  0.62482400  1
  C  927  1  0.40696400  0.12330900  0.64680700  1
  C  944  1  0.29511900  0.32289600  0.41401600  1
  C  945  1  0.30392400  0.34211500  0.43711400  1
  C  946  1  0.33294700  0.34466100  0.44439900  1
  C  947  1  0.35449800  0.32861900  0.42856000  1
  C  948  1  0.34540000  0.30908100  0.40556500  1
  C  949  1  0.31615900  0.30609700  0.39851300  1
  C  951  1  0.39506800  0.30476700  0.43722600  1
  C  952  1  0.41406900  0.28638100  0.42042100  1
  C  953  1  0.41749100  0.26407400  0.41999100  1
  C  954  1  0.40048400  0.25879800  0.43525100  1
  C  955  1  0.38111800  0.27662500  0.45183700  1
  C  956  1  0.37853500  0.29932700  0.45283700  1
  C  957  1  0.39537600  0.35610500  0.46369300  1
  C  958  1  0.41143400  0.33392800  0.41811800  1
  C  959  1  0.44160000  0.33381900  0.42177600  1
  C  960  1  0.46126800  0.33709800  0.40676300  1
  C  961  1  0.45162400  0.34203600  0.38839900  1
  C  962  1  0.42150800  0.34367100  0.38575100  1
  C  963  1  0.40174200  0.33935100  0.40008100  1
  C  964  1  0.38993900  0.37910300  0.46563100  1
  C  965  1  0.39357800  0.40102800  0.48785600  1
  C  966  1  0.40377200  0.40120900  0.50911100  1
  C  967  1  0.41071300  0.37822900  0.50675200  1
  C  968  1  0.40681300  0.35615400  0.48451200  1
  C  985  1  0.89864500  0.80457600  0.24274900  1
  C  987  1  0.91634700  0.76347800  0.22263100  1
  C  988  1  0.90618500  0.75955900  0.19985000  1
  C  990  1  0.88859900  0.80133800  0.22002100  1
  C  992  1  0.87274800  0.81880900  0.21672500  1
  C  997  1  0.90266000  0.42921900  0.19687800  1
  C  999  1  0.92542000  0.44563200  0.23594100  1
  C  1000  1  0.90734700  0.43141400  0.24193800  1
  C  1002  1  0.88420000  0.41476400  0.20254000  1
  C  1004  1  0.86179400  0.39914600  0.18755000  1
  C  1009  1  0.89862900  0.76001900  0.56995400  1
  C  1011  1  0.91621700  0.78019500  0.54899400  1
  C  1012  1  0.90608300  0.80296100  0.56790000  1
  C  1014  1  0.88858900  0.78272600  0.58947600  1
  C  1016  1  0.87279200  0.78598600  0.61025600  1
  C  1021  1  0.40259800  0.19238900  0.76697700  1
  C  1023  1  0.42516200  0.23155500  0.78947700  1
  C  1024  1  0.40715400  0.23755800  0.80973000  1
  C  1026  1  0.38421400  0.19805600  0.78713900  1
  C  1028  1  0.36193300  0.18301600  0.78785100  1
  C  1033  1  0.39874300  0.56561400  0.80907300  1
  C  1035  1  0.41635600  0.54452100  0.76794800  1
  C  1036  1  0.40618000  0.56334400  0.76397800  1
  C  1038  1  0.38873000  0.58508700  0.80579600  1
  C  1040  1  0.37294800  0.60590600  0.82326200  1
  C  1045  1  0.40273200  0.23582200  0.43363500  1
  C  1047  1  0.42523500  0.21344700  0.45046100  1
  C  1048  1  0.40739400  0.19310100  0.43610800  1
  C  1050  1  0.38451700  0.21556800  0.41903500  1
  C  1052  1  0.36233500  0.21476500  0.40317200  1
  C  1057  1  0.06923200  0.56149100  0.76028900  1
  C  1059  1  0.05623800  0.54161400  0.78274500  1
  C  1060  1  0.06738100  0.56132400  0.80453100  1
  C  1062  1  0.08049300  0.58167100  0.78197200  1
  C  1064  1  0.09517800  0.60220000  0.78348100  1
  C  1069  1  0.06953000  0.24201700  0.80845800  1
  C  1071  1  0.05673900  0.21941200  0.76609600  1
  C  1072  1  0.06804800  0.19772200  0.76412600  1
  C  1074  1  0.08097700  0.22043400  0.80705500  1
  C  1076  1  0.09555800  0.21906500  0.82619500  1
  C  1081  1  0.06925800  0.19359800  0.44112400  1
  C  1083  1  0.05647600  0.23597600  0.46102100  1
  C  1084  1  0.06766600  0.23801700  0.44130700  1
  C  1086  1  0.08057300  0.19506800  0.42094300  1
  C  1088  1  0.09519100  0.17600200  0.40040000  1
  C  1093  1  0.56944400  0.43696400  0.24638500  1
  C  1095  1  0.55652800  0.45670500  0.22379400  1
  C  1096  1  0.56786300  0.43700600  0.20209800  1
  C  1098  1  0.58091700  0.41680600  0.22479900  1
  C  1100  1  0.59556900  0.39632100  0.22342100  1
  C  1105  1  0.56934200  0.75591200  0.19788300  1
  C  1107  1  0.55621300  0.77833500  0.24018400  1
  C  1108  1  0.56734200  0.80013800  0.24229400  1
  C  1110  1  0.58059900  0.77761100  0.19942100  1
  C  1112  1  0.59533100  0.77915000  0.18043600  1
  C  1117  1  0.56939400  0.80423200  0.56567500  1
  C  1119  1  0.55626200  0.76194800  0.54594300  1
  C  1120  1  0.56754300  0.75990500  0.56563000  1
  C  1122  1  0.58080400  0.80276400  0.58582900  1
  C  1124  1  0.59552100  0.82181900  0.60630600  1
  C  1129  1  0.76574900  0.68335700  0.09750800  1
  C  1131  1  0.72490300  0.65705000  0.08024300  1
  C  1132  1  0.70619300  0.67623600  0.09568300  1
  C  1134  1  0.74719900  0.70318300  0.11266500  1
  C  1136  1  0.75622800  0.72722800  0.13007300  1
  C  1141  1  0.76512700  0.40861600  0.31945100  1
  C  1143  1  0.72409500  0.41763600  0.34556800  1
  C  1144  1  0.70555600  0.41401800  0.32633000  1
  C  1146  1  0.74673100  0.40407000  0.29957500  1
  C  1148  1  0.75595100  0.39742700  0.27557100  1
  C  1153  1  0.76545900  0.90506600  0.59389400  1
  C  1155  1  0.72463700  0.92224100  0.58473700  1
  C  1156  1  0.70594500  0.90675400  0.58842700  1
  C  1158  1  0.74693600  0.88988000  0.59854000  1
  C  1160  1  0.75596900  0.87249100  0.60520000  1
  C  1165  1  0.26506000  0.31525300  0.91003400  1
  C  1167  1  0.22404100  0.34139100  0.92706200  1
  C  1168  1  0.20550900  0.32214600  0.91143700  1
  C  1170  1  0.24668100  0.29537600  0.89468500  1
  C  1172  1  0.25591000  0.27137000  0.87734000  1
  C  1177  1  0.26556500  0.58903000  0.68750400  1
  C  1179  1  0.22472300  0.58000100  0.66121500  1
  C  1180  1  0.20602700  0.58376200  0.68041400  1
  C  1182  1  0.24703700  0.59376400  0.70736200  1
  C  1184  1  0.25607600  0.60044600  0.73141700  1
  C  1189  1  0.26529900  0.09270400  0.41357900  1
  C  1191  1  0.22426600  0.07556000  0.42250300  1
  C  1192  1  0.20573300  0.09112400  0.41879000  1
  C  1194  1  0.24693500  0.10796300  0.40890900  1
  C  1196  1  0.25617800  0.12528600  0.40222300  1
  C  1201  1  0.20546700  0.59689800  0.91679800  1
  C  1203  1  0.24638500  0.58898100  0.93489200  1
  C  1204  1  0.26510700  0.59294400  0.91960500  1
  C  1206  1  0.22402200  0.60172600  0.90174900  1
  C  1208  1  0.21500100  0.60739900  0.88364400  1
  C  1213  1  0.20588900  0.08552000  0.68930400  1
  C  1215  1  0.24727500  0.06720600  0.66392900  1
  C  1216  1  0.26567700  0.08304200  0.68317500  1
  C  1218  1  0.22416800  0.10106000  0.70919700  1
  C  1220  1  0.21472100  0.11946100  0.73270100  1
  C  1225  1  0.20560800  0.31325500  0.40449200  1
  C  1227  1  0.24695900  0.33863900  0.41151800  1
  C  1228  1  0.26540700  0.31938100  0.40801000  1
  C  1230  1  0.22390500  0.29333800  0.40003500  1
  C  1232  1  0.21450900  0.26982600  0.39494100  1
  C  1237  1  0.70568800  0.39948900  0.08990700  1
  C  1239  1  0.74708200  0.40656600  0.07161300  1
  C  1240  1  0.76548100  0.40322400  0.08749900  1
  C  1242  1  0.72396100  0.39518900  0.10548700  1
  C  1244  1  0.71450300  0.39010000  0.12389500  1
  C  1249  1  0.70524300  0.91244700  0.31900200  1
  C  1251  1  0.74618600  0.93054500  0.34499500  1
  C  1252  1  0.76490400  0.91524300  0.32575000  1
  C  1254  1  0.72380400  0.89740200  0.29912700  1
  C  1256  1  0.71478400  0.87929900  0.27534600  1
  C  1261  1  0.70550200  0.68378900  0.60191600  1
  C  1263  1  0.74645400  0.65772500  0.59378600  1
  C  1264  1  0.76515900  0.67695800  0.59767100  1
  C  1266  1  0.72406700  0.70361300  0.60660300  1
  C  1268  1  0.71501200  0.72740400  0.61233700  1
  C  1273  1  0.99823900  0.62221500  0.97908300  1
  C  1275  1  0.95761100  0.61313100  0.99652100  1
  C  1276  1  0.96041100  0.63574300  0.01853100  1
  C  1278  1  0.00133200  0.64529000  0.00070600  1
  C  1280  1  0.02275800  0.66311500  0.00504500  1
  C  1285  1  0.99813000  0.35140600  0.38056200  1
  C  1287  1  0.95749500  0.37796000  0.38978500  1
  C  1288  1  0.96011100  0.37730100  0.36713100  1
  C  1290  1  0.00103200  0.34988700  0.35744800  1
  C  1292  1  0.02233500  0.33633400  0.33952100  1
  C  1297  1  0.99860600  0.02354500  0.65132400  1
  C  1299  1  0.95768100  0.00627100  0.62514100  1
  C  1300  1  0.96043000  0.98429400  0.62581400  1
  C  1302  1  0.00163900  0.00196400  0.65285900  1
  C  1304  1  0.02316600  0.99757900  0.66623800  1
  C  1309  1  0.49815600  0.37605000  0.02810200  1
  C  1311  1  0.45747600  0.38533400  0.01087600  1
  C  1312  1  0.46009500  0.36272100  0.98883800  1
  C  1314  1  0.50107500  0.35298100  0.00646400  1
  C  1316  1  0.52242600  0.33506500  0.00201200  1
  C  1321  1  0.49826400  0.64647400  0.62662900  1
  C  1323  1  0.45747600  0.62013500  0.61757800  1
  C  1324  1  0.46031100  0.62064300  0.64014500  1
  C  1326  1  0.50135400  0.64789300  0.64968800  1
  C  1328  1  0.52284700  0.66127700  0.66748800  1
  C  1333  1  0.49770600  0.97448200  0.35600500  1
  C  1335  1  0.45731400  0.99186300  0.38283600  1
  C  1336  1  0.46000700  0.01394500  0.38235100  1
  C  1338  1  0.50069500  0.99616400  0.35466300  1
  C  1340  1  0.52195500  0.00057100  0.34110100  1
  C  1345  1  0.97183500  0.37142800  0.02616800  1
  C  1347  1  0.01351600  0.37735300  0.00711100  1
  C  1348  1  0.01023800  0.35369700  0.98686800  1
  C  1350  1  0.96935600  0.34695200  0.00630700  1
  C  1352  1  0.94945000  0.32904900  0.00455100  1
  C  1357  1  0.97250100  0.65135300  0.63242100  1
  C  1359  1  0.01503600  0.62724800  0.62640500  1
  C  1360  1  0.01113200  0.62926500  0.64944900  1
  C  1362  1  0.96943800  0.65474500  0.65640300  1
  C  1364  1  0.94859100  0.66970400  0.67407300  1
  C  1369  1  0.97216100  0.97584300  0.35124900  1
  C  1371  1  0.01469700  0.99397500  0.37533000  1
  C  1372  1  0.01082700  0.01495200  0.37321800  1
  C  1374  1  0.96910400  0.99639300  0.34779000  1
  C  1376  1  0.94827300  0.99905900  0.33279100  1
  C  1381  1  0.47253200  0.62821000  0.98023100  1
  C  1383  1  0.51512700  0.62217900  0.99824600  1
  C  1384  1  0.51123100  0.64520300  0.01930600  1
  C  1386  1  0.46945400  0.65216200  0.00086300  1
  C  1388  1  0.44856200  0.66982600  0.00364200  1
  C  1393  1  0.47185400  0.34852600  0.37561900  1
  C  1395  1  0.51364500  0.37339600  0.38152500  1
  C  1396  1  0.51030900  0.37009900  0.35791600  1
  C  1398  1  0.46928800  0.34405200  0.35119800  1
  C  1400  1  0.44925900  0.32804500  0.33332800  1
  C  1405  1  0.47232400  0.02190100  0.65420500  1
  C  1407  1  0.51414400  0.00300600  0.62933200  1
  C  1408  1  0.51078800  0.98263600  0.63253000  1
  C  1410  1  0.46977400  0.00190800  0.65860900  1
  C  1412  1  0.44972100  0.99997600  0.67456000  1
  C  1417  1  0.90051700  0.57464800  0.11289400  1
  C  1419  1  0.90405100  0.53123600  0.08751500  1
  C  1420  1  0.90462700  0.52808500  0.10818400  1
  C  1422  1  0.90239100  0.57231400  0.13410600  1
  C  1424  1  0.90172300  0.59165500  0.15879500  1
  C  1429  1  0.90149800  0.53209400  0.42810600  1
  C  1431  1  0.90452800  0.54952800  0.47149900  1
  C  1432  1  0.90628200  0.57343200  0.47496800  1
  C  1434  1  0.90446900  0.55572000  0.43079800  1
  C  1436  1  0.90456000  0.56141100  0.41169100  1
  C  1441  1  0.90124600  0.89170400  0.47111900  1
  C  1443  1  0.90421700  0.91743600  0.45342700  1
  C  1444  1  0.90606000  0.89690700  0.42958800  1
  C  1446  1  0.90427700  0.87068000  0.44756000  1
  C  1448  1  0.90430900  0.84592300  0.44200900  1
  C  1453  1  0.40170600  0.42383200  0.89510400  1
  C  1455  1  0.40491000  0.46721200  0.92107900  1
  C  1456  1  0.40659300  0.47069300  0.90065000  1
  C  1458  1  0.40461900  0.42653300  0.87417100  1
  C  1460  1  0.40459500  0.40743900  0.84936600  1
  C  1465  1  0.40072300  0.46516000  0.57894500  1
  C  1467  1  0.40431200  0.44715500  0.53553900  1
  C  1468  1  0.40490600  0.42333200  0.53237800  1
  C  1470  1  0.40265600  0.44161300  0.57660000  1
  C  1472  1  0.40199900  0.43625100  0.59593200  1
  C  1477  1  0.40119200  0.10943500  0.53807700  1
  C  1479  1  0.40497700  0.08383500  0.55584800  1
  C  1480  1  0.40534200  0.10440300  0.57973500  1
  C  1482  1  0.40289100  0.13055800  0.56169500  1
  C  1484  1  0.40212500  0.15529600  0.56720300  1
  C  1489  1  0.06787800  0.47269800  0.90030600  1
  C  1491  1  0.06434300  0.45408000  0.92522000  1
  C  1492  1  0.06246800  0.43051100  0.90430900  1
  C  1494  1  0.06508100  0.44934100  0.87893900  1
  C  1496  1  0.06608800  0.44425700  0.85435200  1
  C  1501  1  0.06878700  0.10182000  0.57993400  1
  C  1503  1  0.06520400  0.07682500  0.53641000  1
  C  1504  1  0.06304300  0.09769400  0.53370600  1
  C  1506  1  0.06569500  0.12314500  0.57790200  1
  C  1508  1  0.06642900  0.14774500  0.59739100  1
  C  1513  1  0.06845200  0.42246700  0.52974000  1
  C  1515  1  0.06499700  0.46600000  0.54823700  1
  C  1516  1  0.06293100  0.46874000  0.57183100  1
  C  1518  1  0.06545900  0.42454200  0.55312200  1
  C  1520  1  0.06631000  0.40509000  0.55828600  1
  C  1525  1  0.56898400  0.52534500  0.10621100  1
  C  1527  1  0.56566500  0.54387700  0.08120200  1
  C  1528  1  0.56346200  0.56745200  0.10206400  1
  C  1530  1  0.56583700  0.54870400  0.12752200  1
  C  1532  1  0.56641400  0.55381500  0.15212700  1
  C  1537  1  0.56780200  0.89595300  0.42672500  1
  C  1539  1  0.56448100  0.92087400  0.47027000  1
  C  1540  1  0.56260500  0.89996600  0.47293200  1
  C  1542  1  0.56499500  0.87459200  0.42872400  1
  C  1544  1  0.56591100  0.85000400  0.40922000  1
  C  1549  1  0.56829900  0.57570900  0.47708800  1
  C  1551  1  0.56486600  0.53217200  0.45845700  1
  C  1552  1  0.56285300  0.52953100  0.43490200  1
  C  1554  1  0.56534100  0.57373700  0.45375000  1
  C  1556  1  0.56608300  0.59327100  0.44870500  1
  N  986  1  0.91224600  0.78556900  0.24290300  1
  N  989  1  0.89280600  0.77886500  0.20008200  1
  N  994  1  0.87007700  0.81765100  0.19480500  1
  N  998  1  0.92228800  0.44406400  0.21385300  1
  N  1001  1  0.88755900  0.41691400  0.22492000  1
  N  1006  1  0.86441200  0.38339800  0.16326500  1
  N  1010  1  0.91216500  0.75990200  0.55078400  1
  N  1013  1  0.89275700  0.80268700  0.58697300  1
  N  1018  1  0.87010400  0.80789500  0.63102900  1
  N  1022  1  0.42208900  0.20941500  0.76901000  1
  N  1025  1  0.38749900  0.22048700  0.80730700  1
  N  1030  1  0.36475500  0.15877900  0.77949100  1
  N  1034  1  0.41229100  0.54640700  0.79007100  1
  N  1037  1  0.39287600  0.58247700  0.78328500  1
  N  1042  1  0.37033100  0.62664600  0.82205600  1
  N  1046  1  0.42211500  0.23389200  0.44875900  1
  N  1049  1  0.38782700  0.19542600  0.42134100  1
  N  1054  1  0.36538200  0.22284400  0.38708700  1
  N  1058  1  0.05757500  0.54249700  0.76176200  1
  N  1061  1  0.07894300  0.58013700  0.80266900  1
  N  1066  1  0.09829400  0.62367900  0.80466100  1
  N  1070  1  0.05789200  0.24043200  0.78793600  1
  N  1073  1  0.07957100  0.19969300  0.78485900  1
  N  1078  1  0.09888300  0.19792000  0.82653200  1
  N  1082  1  0.05768500  0.21410400  0.46013300  1
  N  1085  1  0.07914400  0.21730600  0.42248300  1
  N  1090  1  0.09834300  0.17570000  0.37892200  1
  N  1094  1  0.55772900  0.45588200  0.24481100  1
  N  1097  1  0.57945900  0.41826300  0.20406100  1
  N  1102  1  0.59893100  0.37485000  0.20227400  1
  N  1106  1  0.55761800  0.75735800  0.21831800  1
  N  1109  1  0.57897100  0.79830100  0.22165200  1
  N  1114  1  0.59845600  0.80034200  0.18016100  1
  N  1118  1  0.55759700  0.78378200  0.54676400  1
  N  1121  1  0.57922200  0.78056900  0.58436800  1
  N  1126  1  0.59883600  0.82213000  0.62777600  1
  N  1130  1  0.75367100  0.66123100  0.08220600  1
  N  1133  1  0.71836600  0.69833700  0.11100800  1
  N  1138  1  0.78000300  0.73826000  0.12759900  1
  N  1142  1  0.75288500  0.41540200  0.34151300  1
  N  1145  1  0.71787800  0.40729300  0.30429500  1
  N  1150  1  0.77980000  0.38396400  0.26467100  1
  N  1154  1  0.75340300  0.92035000  0.58701667  1
  N  1157  1  0.71811600  0.89146500  0.59525200  1
  N  1162  1  0.77967300  0.87503300  0.61880100  1
  N  1166  1  0.25283100  0.33733200  0.92527100  1
  N  1169  1  0.21783000  0.30010300  0.89615800  1
  N  1174  1  0.27976600  0.26048300  0.87991400  1
  N  1178  1  0.25349800  0.58220800  0.66537700  1
  N  1181  1  0.21820400  0.59057800  0.70252400  1
  N  1186  1  0.27983900  0.61397700  0.74243200  1
  N  1190  1  0.25306800  0.07742400  0.42036100  1
  N  1193  1  0.21806800  0.10641200  0.41204200  1
  N  1198  1  0.28007900  0.12272200  0.38881600  1
  N  1202  1  0.21755800  0.59047800  0.93240800  1
  N  1205  1  0.25289800  0.59909000  0.90382700  1
  N  1210  1  0.19090200  0.62025100  0.88530700  1
  N  1214  1  0.21839000  0.06960700  0.66756500  1
  N  1217  1  0.25311800  0.09914100  0.70480700  1
  N  1222  1  0.19038800  0.11794400  0.74372600  1
  N  1226  1  0.21807700  0.33499600  0.41029400  1
  N  1229  1  0.25285200  0.29774600  0.40248100  1
  N  1234  1  0.19022200  0.25875300  0.38235100  1
  N  1238  1  0.71819800  0.40529800  0.07398400  1
  N  1241  1  0.75290700  0.39770400  0.10360200  1
  N  1246  1  0.69017200  0.37754900  0.12236800  1
  N  1250  1  0.71736000  0.92806900  0.34102000  1
  N  1253  1  0.75268000  0.89946200  0.30383400  1
  N  1258  1  0.69069700  0.88098200  0.26415200  1
  N  1262  1  0.71763200  0.66173300  0.59537200  1
  N  1265  1  0.75293700  0.69889000  0.60387100  1
  N  1270  1  0.69087400  0.73854100  0.62516200  1
  N  1274  1  0.97674700  0.60717700  0.97820600  1
  N  1277  1  0.98230000  0.65043900  0.01908200  1
  N  1282  1  0.03438300  0.66679400  0.98747300  1
  N  1286  1  0.97674500  0.36564300  0.39570000  1
  N  1289  1  0.98190800  0.36308800  0.35235500  1
  N  1294  1  0.03402600  0.31511400  0.33586900  1
  N  1298  1  0.97698600  0.02449100  0.63730300  1
  N  1301  1  0.98243900  0.98367700  0.63982300  1
  N  1306  1  0.03501500  0.01514100  0.68737800  1
  N  1310  1  0.47675800  0.39120900  0.02907900  1
  N  1313  1  0.48192300  0.34793300  0.98820200  1
  N  1318  1  0.53422300  0.33138700  0.01952800  1
  N  1322  1  0.47667800  0.63244700  0.61161900  1
  N  1325  1  0.48226200  0.63469800  0.65482100  1
  N  1330  1  0.53457500  0.68250300  0.67119300  1
  N  1334  1  0.47642500  0.97356600  0.37031400  1
  N  1337  1  0.48171800  0.01451500  0.36807000  1
  N  1342  1  0.53353800  0.98304600  0.31980100  1
  N  1346  1  0.99391400  0.38522500  0.02531000  1
  N  1349  1  0.98832600  0.33968300  0.98742400  1
  N  1354  1  0.94108400  0.32683900  0.02389600  1
  N  1358  1  0.99524100  0.63765900  0.61876800  1
  N  1361  1  0.98855000  0.64290200  0.66328500  1
  N  1366  1  0.93900400  0.69118500  0.67680500  1
  N  1370  1  0.99492600  0.97590700  0.36493100  1
  N  1373  1  0.98823000  0.01511500  0.35957800  1
  N  1378  1  0.93875400  0.98028500  0.31130000  1
  N  1382  1  0.49530300  0.61456000  0.98021900  1
  N  1385  1  0.48860000  0.65902100  0.01956000  1
  N  1390  1  0.43892000  0.67261100  0.98494000  1
  N  1394  1  0.49401800  0.36307800  0.38938300  1
  N  1397  1  0.48828900  0.35566100  0.34394800  1
  N  1402  1  0.44076800  0.30648700  0.33105000  1
  N  1406  1  0.49447400  0.02115000  0.63965400  1
  N  1409  1  0.48877100  0.98305600  0.64694700  1
  N  1414  1  0.44114800  0.01921700  0.69611400  1
  N  1418  1  0.90177500  0.55399800  0.09066000  1
  N  1421  1  0.90406100  0.54911200  0.13031900  1
  N  1426  1  0.88614400  0.61245600  0.16712200  1
  N  1430  1  0.90198200  0.53016800  0.44859100  1
  N  1433  1  0.90641800  0.57487200  0.45412000  1
  N  1438  1  0.88873300  0.54966400  0.39094400  1
  N  1442  1  0.90168600  0.91404600  0.47288500  1
  N  1445  1  0.90621200  0.87469100  0.42830600  1
  N  1450  1  0.88839000  0.83706200  0.45383300  1
  N  1454  1  0.40230400  0.44430500  0.91752100  1
  N  1457  1  0.40661900  0.44985600  0.87835000  1
  N  1462  1  0.38869900  0.38673200  0.84039900  1
  N  1466  1  0.40198700  0.46676100  0.55830400  1
  N  1469  1  0.40436000  0.42220700  0.55339500  1
  N  1474  1  0.38637800  0.44868300  0.61671500  1
  N  1478  1  0.40263600  0.08713300  0.53632900  1
  N  1481  1  0.40461500  0.12661300  0.58101100  1
  N  1486  1  0.38656800  0.16371500  0.55479600  1
  N  1490  1  0.06711300  0.47388700  0.92240200  1
  N  1493  1  0.06281200  0.42974500  0.88235100  1
  N  1498  1  0.08350800  0.45590100  0.84623000  1
  N  1502  1  0.06812200  0.07970200  0.55905000  1
  N  1505  1  0.06326100  0.11967500  0.55487900  1
  N  1510  1  0.08376500  0.15603300  0.61722500  1
  N  1514  1  0.06781100  0.44334100  0.52848400  1
  N  1517  1  0.06315300  0.44758200  0.57266700  1
  N  1522  1  0.08370200  0.38529300  0.54675200  1
  N  1526  1  0.56847400  0.52411400  0.08409200  1
  N  1529  1  0.56351800  0.56825800  0.12404400  1
  N  1534  1  0.58364600  0.54226500  0.16048000  1
  N  1538  1  0.56715000  0.91805100  0.44763500  1
  N  1541  1  0.56284000  0.87800700  0.45174000  1
  N  1546  1  0.58326000  0.84184500  0.38940900  1
  N  1550  1  0.56765600  0.55479500  0.47826500  1
  N  1553  1  0.56304300  0.55073300  0.43415000  1
  N  1558  1  0.58336300  0.61313400  0.46034500  1
  O  993  1  0.85752600  0.83653500  0.23558200  1
  O  1005  1  0.83747300  0.39755900  0.19858400  1
  O  1017  1  0.85763700  0.76710100  0.60913000  1
  O  1029  1  0.33755300  0.19397900  0.80041000  1
  O  1041  1  0.35774600  0.60485600  0.84104300  1
  O  1053  1  0.33787900  0.20231800  0.40163900  1
  O  1065  1  0.10910800  0.60005800  0.76363700  1
  O  1077  1  0.10931100  0.23900400  0.84393200  1
  O  1089  1  0.10902600  0.15825500  0.40252900  1
  O  1101  1  0.60935500  0.39854400  0.24335700  1
  O  1113  1  0.60929600  0.75932100  0.16274400  1
  O  1125  1  0.60941100  0.83948800  0.60408100  1
  O  1137  1  0.73866500  0.74103800  0.14928300  1
  O  1149  1  0.73849700  0.40273900  0.26163500  1
  O  1161  1  0.73846200  0.85323100  0.59972800  1
  O  1173  1  0.23846600  0.25742300  0.85808800  1
  O  1185  1  0.23852700  0.59506700  0.74525000  1
  O  1197  1  0.23869500  0.14449200  0.40742800  1
  O  1209  1  0.23279500  0.60163600  0.86447900  1
  O  1221  1  0.23232000  0.13877800  0.74608600  1
  O  1233  1  0.23210400  0.25651100  0.40096800  1
  O  1245  1  0.73208700  0.39605000  0.14322300  1
  O  1257  1  0.73256200  0.86012200  0.26194800  1
  O  1269  1  0.73281100  0.74088800  0.60668600  1
  O  1281  1  0.03026000  0.67908100  0.02849200  1
  O  1293  1  0.02958900  0.34367500  0.32339400  1
  O  1305  1  0.03053900  0.97411100  0.65878200  1
  O  1317  1  0.52963800  0.31898600  0.97852200  1
  O  1329  1  0.53031000  0.65372200  0.68340300  1
  O  1341  1  0.52929700  0.02404200  0.34853900  1
  O  1353  1  0.94100700  0.31128800  0.98204600  1
  O  1365  1  0.94034900  0.66393000  0.69116100  1
  O  1377  1  0.93992600  0.02190600  0.33859700  1
  O  1389  1  0.44032800  0.68685900  0.02652800  1
  O  1401  1  0.44080500  0.33292400  0.31566200  1
  O  1413  1  0.44138800  0.97740700  0.66969200  1
  O  1425  1  0.91563000  0.58827600  0.17575700  1
  O  1437  1  0.91932800  0.58149500  0.41535800  1
  O  1449  1  0.91916500  0.82942900  0.42203000  1
  O  1461  1  0.41932900  0.41108100  0.83292000  1
  O  1473  1  0.41597100  0.41593800  0.59255900  1
  O  1485  1  0.41588500  0.17221900  0.58765700  1
  O  1497  1  0.05109700  0.42471800  0.83729500  1
  O  1509  1  0.05129800  0.16468900  0.59482300  1
  O  1521  1  0.05117400  0.40765000  0.57779100  1
  O  1533  1  0.55123700  0.57333000  0.16901300  1
  O  1545  1  0.55090000  0.83297800  0.41174100  1
  O  1557  1  0.55104100  0.59072200  0.42916100  1
