# generated using pymatgen
data_H28C41(N4O)2
_symmetry_space_group_name_H-M   'P 1'
_cell_length_a   53.26520000
_cell_length_b   53.31020000
_cell_length_c   53.31170000
_cell_angle_alpha   89.88680000
_cell_angle_beta   89.98610000
_cell_angle_gamma   89.97830000
_symmetry_Int_Tables_number   1
_chemical_formula_structural   H28C41(N4O)2
_chemical_formula_sum   'H336 C492 N96 O24'
_cell_volume   151382.44451332
_cell_formula_units_Z   12
loop_
 _symmetry_equiv_pos_site_id
 _symmetry_equiv_pos_as_xyz
  1  'x, y, z'
loop_
 _atom_site_type_symbol
 _atom_site_label
 _atom_site_symmetry_multiplicity
 _atom_site_fract_x
 _atom_site_fract_y
 _atom_site_fract_z
 _atom_site_occupancy
  H  26  1  0.46473800  0.94246400  0.20158900  1
  H  27  1  0.46692000  0.97463300  0.23221800  1
  H  28  1  0.54366800  0.93737200  0.20115400  1
  H  29  1  0.54591900  0.96955900  0.23188200  1
  H  30  1  0.54882100  0.01832300  0.23212000  1
  H  31  1  0.55099300  0.05057200  0.20144500  1
  H  32  1  0.47206400  0.05564400  0.20103800  1
  H  33  1  0.46982200  0.02338000  0.23181700  1
  H  34  1  0.48407600  0.03680400  0.27848300  1
  H  35  1  0.45196500  0.03765100  0.30926100  1
  H  36  1  0.45067800  0.95862900  0.31050800  1
  H  37  1  0.48272400  0.95772300  0.27950300  1
  H  38  1  0.53170100  0.95611700  0.27860600  1
  H  39  1  0.53301900  0.03519700  0.27935900  1
  H  40  1  0.56504600  0.03429200  0.31036500  1
  H  45  1  0.56379500  0.95527000  0.30939600  1
  H  71  1  0.46496500  0.05036400  0.81461400  1
  H  72  1  0.46696700  0.01866400  0.78346900  1
  H  73  1  0.54378000  0.05653000  0.81342200  1
  H  74  1  0.54585700  0.02478500  0.78227000  1
  H  75  1  0.54856000  0.97600600  0.78324600  1
  H  76  1  0.55077800  0.94378100  0.81395200  1
  H  77  1  0.47191400  0.93779400  0.81347300  1
  H  78  1  0.46962900  0.97003800  0.78269000  1
  H  79  1  0.48425200  0.95711700  0.73606600  1
  H  80  1  0.45216400  0.95627400  0.70529800  1
  H  81  1  0.45003800  0.03528800  0.70488600  1
  H  82  1  0.48205700  0.03618000  0.73589400  1
  H  83  1  0.53114700  0.03747100  0.73559800  1
  H  84  1  0.53310200  0.95840200  0.73606800  1
  H  85  1  0.56510800  0.95904900  0.70503800  1
  H  90  1  0.56323000  0.03806700  0.70477000  1
  H  116  1  0.06142200  0.80387700  0.46450500  1
  H  117  1  0.02969900  0.77267200  0.46654900  1
  H  118  1  0.06774300  0.80251600  0.54324700  1
  H  119  1  0.03599200  0.77130500  0.54536000  1
  H  120  1  0.98720500  0.77225900  0.54811600  1
  H  121  1  0.95498900  0.80294800  0.55034800  1
  H  122  1  0.94876100  0.80240300  0.47157400  1
  H  123  1  0.98099400  0.77164000  0.46927900  1
  H  124  1  0.96819400  0.72489200  0.48417200  1
  H  125  1  0.96725500  0.69413900  0.45214800  1
  H  126  1  0.04631600  0.69422000  0.44945500  1
  H  127  1  0.04730100  0.72520100  0.48141600  1
  H  128  1  0.04878800  0.72465800  0.53040400  1
  H  129  1  0.96968100  0.72505300  0.53302400  1
  H  130  1  0.97058600  0.69398900  0.56501800  1
  H  135  1  0.04964900  0.69379000  0.56246000  1
  H  161  1  0.95425600  0.18950900  0.46519800  1
  H  162  1  0.98599000  0.22068500  0.46725400  1
  H  163  1  0.94781700  0.19060500  0.54393300  1
  H  164  1  0.97960100  0.22179000  0.54606200  1
  H  165  1  0.02846500  0.22068300  0.54869400  1
  H  166  1  0.06070100  0.18999300  0.55082800  1
  H  167  1  0.06689000  0.19101500  0.47205100  1
  H  168  1  0.03463500  0.22176800  0.46984400  1
  H  169  1  0.04738800  0.26836200  0.48461100  1
  H  170  1  0.04818800  0.29915900  0.45250400  1
  H  171  1  0.96911000  0.29916400  0.45025700  1
  H  172  1  0.96826000  0.26812700  0.48229500  1
  H  173  1  0.96702500  0.26847400  0.53133000  1
  H  174  1  0.04615200  0.26797300  0.53346000  1
  H  175  1  0.04547100  0.29893000  0.56543900  1
  H  180  1  0.96639400  0.29922900  0.56338300  1
  H  206  1  0.20047200  0.53961000  0.06109600  1
  H  207  1  0.23168000  0.53759100  0.02936700  1
  H  208  1  0.20178800  0.46087200  0.06760800  1
  H  209  1  0.23300400  0.45877600  0.03584400  1
  H  210  1  0.23202200  0.45605800  0.98709000  1
  H  211  1  0.20134300  0.45381500  0.95488800  1
  H  212  1  0.20198700  0.53259000  0.94849100  1
  H  213  1  0.23273500  0.53490200  0.98071800  1
  H  214  1  0.27946400  0.52020100  0.96797800  1
  H  215  1  0.31025100  0.55227300  0.96706700  1
  H  216  1  0.31022500  0.55463500  0.04606500  1
  H  217  1  0.27921000  0.52262600  0.04702600  1
  H  218  1  0.27968000  0.47361300  0.04848700  1
  H  219  1  0.27929700  0.47136000  0.96943900  1
  H  220  1  0.31033000  0.43936000  0.97025000  1
  H  225  1  0.31051600  0.44154500  0.04925300  1
  H  251  1  0.81525600  0.53948200  0.95408000  1
  H  252  1  0.78402000  0.53747000  0.98579200  1
  H  253  1  0.81403000  0.46073800  0.94792900  1
  H  254  1  0.78279200  0.45865400  0.97967700  1
  H  255  1  0.78374200  0.45595900  0.02845300  1
  H  256  1  0.81440700  0.45376000  0.06068200  1
  H  257  1  0.81365800  0.53254100  0.06669000  1
  H  258  1  0.78292300  0.53480300  0.03444500  1
  H  259  1  0.73617200  0.51996100  0.04724800  1
  H  260  1  0.70537200  0.55203400  0.04807000  1
  H  261  1  0.70550300  0.55458700  0.96906800  1
  H  262  1  0.73654400  0.52257900  0.96820100  1
  H  263  1  0.73609500  0.47357600  0.96688900  1
  H  264  1  0.73643000  0.47110900  0.04593800  1
  H  265  1  0.70538700  0.43914000  0.04514600  1
  H  270  1  0.70525500  0.44153900  0.96614400  1
  H  296  1  0.54487300  0.79640900  0.06824000  1
  H  297  1  0.54630900  0.76538200  0.03639900  1
  H  298  1  0.46651100  0.80212600  0.05894100  1
  H  299  1  0.46789600  0.77105000  0.02738600  1
  H  300  1  0.46931200  0.76551600  0.97854700  1
  H  301  1  0.47074000  0.79670100  0.94673400  1
  H  302  1  0.54909500  0.80236100  0.95607100  1
  H  303  1  0.54771900  0.77112700  0.98759000  1
  H  304  1  0.53804900  0.72443200  0.96964700  1
  H  305  1  0.56985000  0.69333400  0.97189000  1
  H  306  1  0.55825500  0.68682600  0.04979200  1
  H  307  1  0.52651400  0.71807900  0.04764600  1
  H  308  1  0.47761900  0.72427300  0.04528200  1
  H  309  1  0.48913700  0.71825700  0.96727400  1
  H  310  1  0.45740100  0.68702300  0.96512600  1
  H  315  1  0.44582900  0.69320100  0.04303300  1
  H  341  1  0.54524300  0.19794700  0.94586500  1
  H  342  1  0.54642900  0.22888100  0.97778400  1
  H  343  1  0.46698000  0.19134800  0.95533600  1
  H  344  1  0.46812900  0.22221800  0.98722600  1
  H  345  1  0.46936800  0.22825600  0.03629300  1
  H  346  1  0.47083200  0.19711800  0.06813800  1
  H  347  1  0.54907500  0.19088200  0.05821200  1
  H  348  1  0.54767400  0.22212400  0.02667500  1
  H  349  1  0.53854300  0.26867000  0.04490600  1
  H  350  1  0.57032300  0.29977200  0.04264900  1
  H  351  1  0.55766200  0.30738900  0.96502100  1
  H  352  1  0.52596200  0.27611800  0.96716900  1
  H  353  1  0.47702400  0.26896500  0.96952800  1
  H  354  1  0.48958200  0.27554100  0.04732000  1
  H  355  1  0.45782200  0.30674400  0.04970300  1
  H  360  1  0.44518000  0.30000000  0.97201600  1
  H  386  1  0.94669000  0.53382800  0.20791000  1
  H  387  1  0.97847300  0.53527000  0.23907700  1
  H  388  1  0.95631400  0.45558000  0.20217300  1
  H  389  1  0.98780700  0.45696800  0.23338600  1
  H  390  1  0.03670300  0.45820500  0.23966700  1
  H  391  1  0.06870000  0.45940800  0.20870400  1
  H  392  1  0.05956400  0.53768600  0.20233300  1
  H  393  1  0.02759400  0.53652200  0.23320900  1
  H  394  1  0.04535600  0.52714500  0.27992700  1
  H  395  1  0.04310700  0.55894100  0.31090700  1
  H  396  1  0.96519400  0.54717300  0.31757600  1
  H  397  1  0.96734000  0.51543100  0.28641400  1
  H  398  1  0.96963000  0.46643400  0.27997700  1
  H  399  1  0.04758200  0.47834900  0.28678200  1
  H  400  1  0.04966300  0.44659800  0.31804900  1
  H  405  1  0.97181800  0.43460600  0.31108100  1
  H  431  1  0.06901000  0.53351800  0.80724700  1
  H  432  1  0.03725700  0.53493300  0.77605600  1
  H  433  1  0.05938400  0.45529100  0.81341600  1
  H  434  1  0.02791100  0.45665300  0.78216100  1
  H  435  1  0.97898400  0.45795400  0.77578500  1
  H  436  1  0.94701000  0.45920800  0.80675900  1
  H  437  1  0.95625000  0.53746100  0.81284800  1
  H  438  1  0.98819400  0.53624500  0.78195300  1
  H  439  1  0.97052000  0.52711500  0.73529500  1
  H  440  1  0.97294600  0.55890500  0.70418600  1
  H  441  1  0.05077000  0.54655600  0.69748200  1
  H  442  1  0.04844600  0.51483500  0.72876600  1
  H  443  1  0.04599500  0.46584500  0.73555000  1
  H  444  1  0.96813600  0.47830100  0.72851200  1
  H  445  1  0.96592800  0.44656700  0.69737000  1
  H  450  1  0.04367400  0.43402300  0.70456200  1
  H  476  1  0.80764500  0.93560600  0.47043000  1
  H  477  1  0.77644100  0.96736500  0.46898500  1
  H  478  1  0.81360200  0.94513300  0.54865300  1
  H  479  1  0.78232800  0.97660400  0.54725900  1
  H  480  1  0.77582900  0.02547300  0.54601500  1
  H  481  1  0.80676200  0.05746400  0.54486800  1
  H  482  1  0.81326800  0.04841500  0.46662700  1
  H  483  1  0.78240100  0.01645100  0.46774100  1
  H  484  1  0.73565200  0.03404000  0.47672500  1
  H  485  1  0.70462600  0.03167500  0.44490400  1
  H  486  1  0.69782700  0.95391700  0.45731300  1
  H  487  1  0.72903300  0.95618000  0.48906700  1
  H  488  1  0.73573300  0.95855000  0.53809100  1
  H  489  1  0.72858200  0.03633300  0.52551400  1
  H  490  1  0.69730800  0.03849800  0.55720900  1
  H  495  1  0.70461700  0.96082400  0.56988400  1
  H  521  1  0.20796300  0.05771900  0.47044700  1
  H  522  1  0.23914800  0.02593600  0.46895500  1
  H  523  1  0.20213700  0.04794600  0.54869300  1
  H  524  1  0.23337500  0.01646000  0.54725400  1
  H  525  1  0.23968000  0.96760700  0.54594900  1
  H  526  1  0.20874200  0.93560900  0.54472600  1
  H  527  1  0.20253500  0.94490100  0.46645400  1
  H  528  1  0.23338100  0.97687000  0.46764000  1
  H  529  1  0.28015100  0.95913400  0.47700300  1
  H  530  1  0.31120100  0.96148000  0.44518400  1
  H  531  1  0.31771200  0.03931300  0.45697400  1
  H  532  1  0.28648100  0.03706800  0.48873700  1
  H  533  1  0.28000800  0.03465600  0.53772300  1
  H  534  1  0.28689300  0.95678800  0.52580200  1
  H  535  1  0.31812700  0.95465900  0.55754400  1
  H  540  1  0.31107700  0.03242000  0.56953800  1
  H  547  1  0.41326000  0.03849500  0.38904800  1
  H  550  1  0.38277300  0.07084700  0.41278600  1
  H  551  1  0.36463000  0.06617400  0.44031300  1
  H  552  1  0.35214500  0.05776200  0.41083200  1
  H  555  1  0.43244100  0.02949300  0.34841700  1
  H  557  1  0.34059900  0.97172300  0.41278500  1
  H  564  1  0.41289200  0.95515600  0.62613000  1
  H  567  1  0.38236600  0.92272100  0.60245600  1
  H  568  1  0.36404800  0.92741400  0.57504300  1
  H  569  1  0.35182200  0.93597700  0.60459300  1
  H  572  1  0.43229300  0.96446800  0.66649800  1
  H  574  1  0.34057900  0.02224000  0.60193100  1
  H  581  1  0.60252000  0.03838700  0.62545300  1
  H  584  1  0.63312400  0.07056900  0.60133700  1
  H  585  1  0.65139700  0.06558100  0.57395600  1
  H  586  1  0.66365200  0.05729700  0.60359900  1
  H  589  1  0.58323000  0.02960300  0.66605900  1
  H  591  1  0.67488800  0.97110400  0.60217500  1
  H  598  1  0.60276100  0.95429600  0.38902000  1
  H  601  1  0.63221700  0.92189200  0.41363600  1
  H  602  1  0.65110000  0.92670000  0.44062500  1
  H  603  1  0.66301600  0.93436900  0.41066300  1
  H  606  1  0.58349500  0.96335800  0.34841100  1
  H  608  1  0.67504200  0.02143100  0.41268800  1
  H  615  1  0.96615700  0.61505800  0.41285200  1
  H  618  1  0.93353400  0.59066600  0.38354700  1
  H  619  1  0.93821400  0.56369600  0.36464800  1
  H  620  1  0.94589300  0.59365200  0.35271500  1
  H  623  1  0.97549200  0.65540400  0.43225900  1
  H  625  1  0.03297900  0.59126400  0.34031200  1
  H  632  1  0.04935200  0.37805800  0.41273800  1
  H  635  1  0.08181300  0.40221500  0.38296800  1
  H  636  1  0.07712300  0.42925500  0.36406600  1
  H  637  1  0.06906000  0.39938400  0.35230100  1
  H  640  1  0.03996400  0.33778700  0.43237200  1
  H  642  1  0.98192700  0.40232500  0.34079700  1
  H  649  1  0.96595300  0.37832800  0.60280100  1
  H  652  1  0.93368600  0.40289900  0.63244100  1
  H  653  1  0.93866500  0.42992000  0.65118500  1
  H  654  1  0.94634500  0.39997300  0.66315200  1
  H  657  1  0.97482700  0.33782200  0.58348400  1
  H  659  1  0.03338200  0.40176300  0.67490900  1
  H  666  1  0.05029200  0.61451200  0.60201600  1
  H  669  1  0.08257600  0.59073500  0.63265700  1
  H  670  1  0.07781900  0.56323900  0.65084700  1
  H  671  1  0.06939200  0.59276000  0.66322100  1
  H  674  1  0.04135000  0.65508300  0.58262600  1
  H  676  1  0.98331500  0.59123700  0.67468000  1
  H  683  1  0.38951100  0.59154400  0.96606300  1
  H  686  1  0.41311700  0.62212500  0.93364500  1
  H  687  1  0.44064400  0.64028000  0.93820800  1
  H  688  1  0.41113500  0.65268300  0.94678500  1
  H  691  1  0.34905500  0.57215200  0.97530800  1
  H  693  1  0.41328500  0.66396700  0.03283800  1
  H  700  1  0.62626400  0.59149700  0.04909000  1
  H  703  1  0.60250500  0.62197900  0.08154100  1
  H  704  1  0.57511000  0.64035000  0.07682700  1
  H  705  1  0.60473600  0.65252900  0.06832700  1
  H  708  1  0.66666667  0.57200700  0.03978600  1
  H  710  1  0.60232900  0.66393300  0.98206700  1
  H  717  1  0.62586800  0.40234000  0.96563800  1
  H  720  1  0.60183500  0.37195100  0.93325700  1
  H  721  1  0.57442900  0.35366300  0.93815400  1
  H  722  1  0.60409000  0.34135000  0.94634800  1
  H  725  1  0.66645700  0.42159500  0.97454500  1
  H  727  1  0.60262000  0.32943000  0.03242000  1
  H  734  1  0.38959000  0.40166000  0.04988800  1
  H  737  1  0.41413300  0.37197500  0.08210900  1
  H  738  1  0.44107900  0.35302300  0.07716900  1
  H  739  1  0.41104900  0.34128400  0.06952100  1
  H  742  1  0.34906100  0.42116300  0.04098100  1
  H  744  1  0.41303700  0.32972100  0.98239800  1
  H  751  1  0.91276600  0.53904800  0.88874100  1
  H  754  1  0.88311200  0.57134200  0.91280900  1
  H  755  1  0.86387100  0.56666700  0.93959500  1
  H  756  1  0.85245800  0.55859200  0.90958000  1
  H  759  1  0.93316000  0.52925000  0.84915800  1
  H  761  1  0.84203300  0.47087400  0.91394200  1
  H  768  1  0.89630700  0.44598000  0.14125700  1
  H  771  1  0.88471400  0.45481600  0.07380500  1
  H  772  1  0.86536900  0.42792400  0.07366900  1
  H  773  1  0.89266800  0.42852100  0.09275600  1
  H  776  1  0.92420300  0.46058200  0.17385700  1
  H  778  1  0.84453400  0.52255500  0.09811700  1
  H  785  1  0.10299600  0.53922300  0.12643000  1
  H  788  1  0.13280400  0.57150400  0.10233200  1
  H  789  1  0.15197200  0.56680700  0.07551200  1
  H  790  1  0.16343100  0.55864300  0.10551800  1
  H  793  1  0.08254300  0.52940100  0.16599900  1
  H  795  1  0.17378000  0.47102100  0.10155500  1
  H  802  1  0.11960800  0.44579300  0.87426200  1
  H  805  1  0.13170800  0.45559500  0.94197700  1
  H  806  1  0.15031100  0.42818300  0.94217700  1
  H  807  1  0.12280600  0.42938600  0.92343300  1
  H  810  1  0.09165300  0.46031700  0.84159400  1
  H  812  1  0.17095300  0.52254300  0.91724200  1
  H  819  1  0.46601500  0.11502100  0.91261100  1
  H  822  1  0.43374600  0.09126700  0.88252200  1
  H  823  1  0.43837000  0.06409600  0.86391700  1
  H  824  1  0.44669100  0.09383000  0.85188500  1
  H  827  1  0.47553500  0.15478300  0.93272600  1
  H  829  1  0.53356600  0.09078600  0.84103900  1
  H  836  1  0.55876000  0.86270900  0.89537400  1
  H  839  1  0.54970400  0.93054200  0.88320700  1
  H  840  1  0.57680800  0.93042300  0.86415000  1
  H  841  1  0.57590600  0.91171600  0.89172000  1
  H  844  1  0.54413500  0.83018000  0.92345000  1
  H  846  1  0.48193200  0.90656100  0.84456800  1
  H  853  1  0.45691700  0.86272200  0.11913800  1
  H  856  1  0.46660100  0.93042400  0.13106500  1
  H  857  1  0.43929600  0.93067700  0.14982700  1
  H  858  1  0.44027200  0.91191100  0.12237400  1
  H  861  1  0.47148800  0.82992800  0.09145300  1
  H  863  1  0.53366100  0.90600900  0.17030600  1
  H  870  1  0.55884300  0.13091000  0.11926800  1
  H  873  1  0.55015600  0.06325800  0.13087800  1
  H  874  1  0.57701200  0.06320100  0.15029000  1
  H  875  1  0.57641900  0.08224300  0.12293900  1
  H  878  1  0.54424800  0.16393900  0.09169700  1
  H  880  1  0.48205900  0.08705000  0.17010600  1
  H  887  1  0.88900400  0.09220000  0.46523000  1
  H  890  1  0.91316200  0.12201000  0.43309500  1
  H  891  1  0.93992100  0.14124200  0.43787700  1
  H  892  1  0.90983000  0.15256700  0.44595200  1
  H  895  1  0.84933600  0.07179600  0.47484400  1
  H  897  1  0.91390900  0.16249600  0.53373200  1
  H  904  1  0.14163000  0.10838100  0.55849000  1
  H  907  1  0.07411400  0.12014000  0.55021300  1
  H  908  1  0.07421700  0.13962100  0.57696200  1
  H  909  1  0.09325400  0.11228800  0.57638300  1
  H  912  1  0.17411400  0.08035600  0.54378800  1
  H  914  1  0.09822200  0.16001300  0.48196900  1
  H  921  1  0.12682200  0.90119900  0.46473400  1
  H  924  1  0.10299300  0.87125300  0.43247000  1
  H  925  1  0.07613500  0.85211000  0.43713600  1
  H  926  1  0.10612200  0.84069700  0.44549700  1
  H  929  1  0.16632900  0.92169700  0.47462700  1
  H  931  1  0.10165700  0.83058000  0.53310100  1
  H  938  1  0.87421400  0.88466100  0.55827400  1
  H  941  1  0.94202100  0.87240400  0.54868300  1
  H  942  1  0.94202100  0.85373100  0.57606500  1
  H  943  1  0.92333200  0.88127200  0.57484100  1
  H  946  1  0.84164600  0.91271700  0.54368700  1
  H  948  1  0.91751600  0.83345400  0.48159100  1
  C  1  1  0.56784300  0.99475400  0.31282100  1
  C  2  1  0.55858400  0.01764100  0.30333000  1
  C  3  1  0.53972300  0.01807200  0.28482000  1
  C  4  1  0.52990800  0.99574200  0.27401800  1
  C  5  1  0.53897400  0.97287600  0.28436700  1
  C  6  1  0.55774600  0.97230500  0.30296900  1
  C  7  1  0.50787900  0.99646300  0.25552200  1
  C  8  1  0.48585700  0.99717900  0.27403200  1
  C  9  1  0.47603100  0.97484800  0.28491100  1
  C  10  1  0.45717400  0.97527900  0.30343400  1
  C  11  1  0.44790700  0.99816600  0.31283200  1
  C  12  1  0.45801200  0.02061600  0.30289600  1
  C  13  1  0.47679900  0.02004400  0.28430200  1
  C  14  1  0.50913300  0.01847700  0.23701700  1
  C  15  1  0.50660800  0.97446600  0.23708700  1
  C  16  1  0.48337700  0.96651500  0.22663400  1
  C  17  1  0.48199700  0.94761200  0.20830100  1
  C  18  1  0.50391800  0.93625800  0.19883800  1
  C  19  1  0.52731200  0.94464200  0.20804600  1
  C  20  1  0.52853600  0.96357600  0.22644000  1
  C  21  1  0.53236200  0.02645000  0.22653300  1
  C  22  1  0.53373600  0.04540800  0.20818000  1
  C  23  1  0.51181400  0.05678400  0.19871300  1
  C  24  1  0.48842200  0.04835600  0.20792800  1
  C  25  1  0.48720300  0.02937600  0.22635200  1
  C  46  1  0.56760500  0.99856200  0.70196400  1
  C  47  1  0.55850700  0.97576300  0.71180600  1
  C  48  1  0.53966900  0.97549100  0.73035100  1
  C  49  1  0.52968100  0.99791800  0.74081200  1
  C  50  1  0.53854400  0.02067800  0.73007700  1
  C  51  1  0.55732000  0.02108900  0.71146200  1
  C  52  1  0.50768800  0.99738400  0.75937200  1
  C  53  1  0.48560600  0.99669800  0.74095100  1
  C  54  1  0.47552400  0.01904900  0.73033600  1
  C  55  1  0.45668400  0.01862800  0.71180100  1
  C  56  1  0.44767300  0.99575400  0.70214500  1
  C  57  1  0.45801300  0.97330300  0.71183900  1
  C  58  1  0.47679900  0.97386400  0.73042000  1
  C  59  1  0.50894000  0.97541500  0.77793400  1
  C  60  1  0.50652900  0.01944400  0.77774500  1
  C  61  1  0.48340300  0.02702200  0.78873100  1
  C  62  1  0.48213100  0.04568300  0.80733000  1
  C  63  1  0.50406400  0.05732000  0.81638600  1
  C  64  1  0.52737400  0.04932900  0.80659000  1
  C  65  1  0.52849800  0.03059100  0.78799300  1
  C  66  1  0.53213700  0.96771400  0.78868800  1
  C  67  1  0.53353600  0.94876300  0.80704500  1
  C  68  1  0.51164300  0.93714100  0.81626700  1
  C  69  1  0.48826000  0.94529200  0.80678400  1
  C  70  1  0.48702100  0.96425100  0.78834400  1
  C  91  1  0.01014800  0.69095000  0.56717900  1
  C  92  1  0.98725900  0.70079000  0.55828700  1
  C  93  1  0.98683500  0.71935200  0.53945000  1
  C  94  1  0.00919500  0.72985800  0.52928000  1
  C  95  1  0.03204000  0.71910700  0.53793300  1
  C  96  1  0.03261000  0.70047400  0.55670100  1
  C  97  1  0.00851300  0.74842100  0.50728600  1
  C  98  1  0.00779400  0.73002400  0.48523700  1
  C  99  1  0.03013200  0.71954100  0.47502200  1
  C  100  1  0.02966000  0.70101500  0.45622000  1
  C  101  1  0.00674700  0.69123000  0.44738400  1
  C  102  1  0.98431200  0.70078200  0.45786500  1
  C  103  1  0.98492600  0.71935100  0.47661400  1
  C  104  1  0.98648800  0.76690200  0.50854800  1
  C  105  1  0.03055200  0.76686900  0.50607000  1
  C  106  1  0.03808000  0.77793200  0.48295900  1
  C  107  1  0.05675900  0.79655700  0.48166300  1
  C  108  1  0.06841900  0.80560600  0.50356400  1
  C  109  1  0.06049400  0.79572700  0.52686400  1
  C  110  1  0.04174800  0.77709400  0.52800600  1
  C  111  1  0.97885600  0.77767600  0.53171900  1
  C  112  1  0.95991100  0.79602700  0.53312200  1
  C  113  1  0.94821900  0.80522600  0.51126200  1
  C  114  1  0.95629700  0.79572400  0.48790300  1
  C  115  1  0.97525300  0.77729400  0.48665900  1
  C  136  1  0.00592500  0.30202100  0.56784400  1
  C  137  1  0.02874800  0.29218700  0.55880300  1
  C  138  1  0.02904100  0.27367600  0.53998700  1
  C  139  1  0.00660600  0.26325100  0.52994900  1
  C  140  1  0.98382200  0.27397600  0.53875700  1
  C  141  1  0.98339000  0.29254400  0.55752100  1
  C  142  1  0.00715200  0.24477400  0.50794700  1
  C  143  1  0.00778500  0.26328100  0.48591000  1
  C  144  1  0.98540100  0.27379100  0.47579700  1
  C  145  1  0.98579700  0.29234800  0.45695200  1
  C  146  1  0.00867200  0.30211900  0.44795600  1
  C  147  1  0.03115400  0.29253700  0.45834200  1
  C  148  1  0.03062300  0.27393400  0.47713500  1
  C  149  1  0.02915700  0.22625500  0.50913000  1
  C  150  1  0.98509500  0.22634800  0.50677700  1
  C  151  1  0.97758900  0.21537400  0.48366100  1
  C  152  1  0.95890500  0.19675900  0.48235700  1
  C  153  1  0.94720900  0.18764400  0.50425300  1
  C  154  1  0.95510900  0.19743600  0.52755500  1
  C  155  1  0.97385800  0.21606700  0.52870900  1
  C  156  1  0.03680700  0.21536100  0.53227600  1
  C  157  1  0.05575800  0.19700900  0.53362300  1
  C  158  1  0.06744900  0.18795200  0.51173300  1
  C  159  1  0.05934900  0.19758300  0.48839800  1
  C  160  1  0.04039300  0.21602000  0.48720700  1
  C  181  1  0.31335600  0.43700700  0.00977300  1
  C  182  1  0.30353400  0.44601400  0.98693100  1
  C  183  1  0.28499100  0.46485800  0.98656100  1
  C  184  1  0.27449000  0.47492200  0.00893500  1
  C  185  1  0.28522500  0.46616000  0.03173400  1
  C  186  1  0.30384200  0.44738600  0.03224600  1
  C  187  1  0.25592500  0.49690300  0.00828000  1
  C  188  1  0.27436100  0.51896500  0.00754900  1
  C  189  1  0.28485900  0.52910700  0.02987800  1
  C  190  1  0.30339300  0.54794600  0.02941900  1
  C  191  1  0.31318400  0.55688300  0.00653000  1
  C  192  1  0.30361400  0.54647400  0.98410500  1
  C  193  1  0.28502300  0.52769800  0.98470300  1
  C  194  1  0.23741400  0.49563200  0.98629800  1
  C  195  1  0.23746600  0.49807100  0.03031600  1
  C  196  1  0.22641200  0.52117600  0.03778800  1
  C  197  1  0.20777900  0.52245800  0.05646500  1
  C  198  1  0.19873400  0.50055200  0.06819700  1
  C  199  1  0.20859200  0.47725800  0.06031400  1
  C  200  1  0.22723800  0.47612600  0.04157300  1
  C  201  1  0.22662400  0.47245500  0.97871400  1
  C  202  1  0.20827500  0.47104400  0.95978500  1
  C  203  1  0.19911300  0.49290100  0.94804300  1
  C  204  1  0.20863900  0.51626800  0.95606800  1
  C  205  1  0.22706200  0.51751900  0.97501700  1
  C  226  1  0.70237900  0.43690300  0.00562600  1
  C  227  1  0.71220200  0.44583000  0.02846300  1
  C  228  1  0.73075000  0.46465200  0.02882000  1
  C  229  1  0.74126800  0.47477200  0.00644400  1
  C  230  1  0.73054400  0.46607800  0.98365000  1
  C  231  1  0.71192200  0.44732500  0.98314700  1
  C  232  1  0.75980100  0.49676500  0.00704800  1
  C  233  1  0.74134300  0.51882000  0.00768600  1
  C  234  1  0.73085600  0.52901000  0.98533000  1
  C  235  1  0.71229700  0.54783900  0.98573400  1
  C  236  1  0.70248200  0.55673600  0.00859400  1
  C  237  1  0.71203300  0.54627600  0.03104900  1
  C  238  1  0.73063200  0.52749600  0.03050300  1
  C  239  1  0.77827700  0.49552700  0.02906500  1
  C  240  1  0.77828200  0.49795300  0.98502900  1
  C  241  1  0.78932100  0.52105100  0.97745900  1
  C  242  1  0.80797700  0.52232900  0.95879700  1
  C  243  1  0.81706200  0.50041800  0.94717900  1
  C  244  1  0.80721900  0.47712800  0.95515800  1
  C  245  1  0.78855900  0.47600200  0.97389000  1
  C  246  1  0.78910700  0.47236400  0.03675900  1
  C  247  1  0.80744400  0.47097900  0.05571100  1
  C  248  1  0.81656200  0.49285100  0.06735800  1
  C  249  1  0.80702200  0.51620500  0.05920300  1
  C  250  1  0.78860800  0.51742700  0.04023900  1
  C  271  1  0.44785500  0.68762300  0.00368500  1
  C  272  1  0.46100400  0.69530700  0.98206400  1
  C  273  1  0.47969700  0.71391000  0.98340500  1
  C  274  1  0.48578800  0.72627700  0.00622600  1
  C  275  1  0.47297100  0.71755600  0.02796500  1
  C  276  1  0.45423200  0.69892700  0.02676700  1
  C  277  1  0.50782300  0.74474000  0.00747400  1
  C  278  1  0.52987800  0.72628100  0.00870000  1
  C  279  1  0.53595700  0.71379900  0.03151500  1
  C  280  1  0.55465600  0.69518200  0.03285600  1
  C  281  1  0.56780900  0.68758400  0.01123400  1
  C  282  1  0.56142200  0.69897400  0.98815300  1
  C  283  1  0.54269000  0.71762900  0.98695900  1
  C  284  1  0.50864500  0.76323100  0.98542200  1
  C  285  1  0.50697000  0.76314000  0.02953200  1
  C  286  1  0.52908400  0.77207000  0.04152600  1
  C  287  1  0.52837100  0.79071600  0.06021300  1
  C  288  1  0.50552700  0.80194600  0.06742700  1
  C  289  1  0.48344500  0.79406600  0.05497900  1
  C  290  1  0.48429500  0.77544500  0.03630800  1
  C  291  1  0.48653300  0.77224000  0.97344200  1
  C  292  1  0.48724100  0.79097500  0.95477100  1
  C  293  1  0.51008300  0.80222900  0.94757200  1
  C  294  1  0.53216700  0.79427700  0.96001100  1
  C  295  1  0.53131800  0.77557000  0.97866900  1
  C  316  1  0.44774800  0.30586300  0.01128700  1
  C  317  1  0.46119900  0.29834100  0.03277400  1
  C  318  1  0.47991700  0.27976300  0.03129200  1
  C  319  1  0.48573700  0.26724800  0.00847200  1
  C  320  1  0.47259700  0.27579500  0.98685900  1
  C  321  1  0.45383600  0.29441200  0.98819400  1
  C  322  1  0.50783600  0.24884700  0.00713000  1
  C  323  1  0.52983300  0.26737700  0.00594800  1
  C  324  1  0.53560600  0.28018300  0.98323000  1
  C  325  1  0.55427900  0.29881200  0.98189200  1
  C  326  1  0.56774400  0.30608000  0.00342500  1
  C  327  1  0.56166800  0.29436600  0.02643100  1
  C  328  1  0.54294900  0.27570700  0.02762500  1
  C  329  1  0.50867100  0.23029500  0.02913700  1
  C  330  1  0.50711300  0.23053200  0.98498900  1
  C  331  1  0.52926800  0.22196800  0.97278000  1
  C  332  1  0.52871200  0.20339000  0.95402400  1
  C  333  1  0.50602400  0.19170300  0.94711800  1
  C  334  1  0.48386300  0.19939100  0.95954800  1
  C  335  1  0.48455800  0.21797800  0.97827400  1
  C  336  1  0.48658700  0.22144500  0.04128800  1
  C  337  1  0.48731200  0.20272300  0.05997200  1
  C  338  1  0.51013600  0.19133900  0.06703300  1
  C  339  1  0.53217600  0.19910600  0.05440300  1
  C  340  1  0.53131300  0.21779500  0.03572300  1
  C  361  1  0.01113100  0.43686000  0.31707200  1
  C  362  1  0.03275500  0.45012900  0.30960100  1
  C  363  1  0.03145200  0.46884300  0.29098900  1
  C  364  1  0.00868400  0.47481800  0.27837600  1
  C  365  1  0.98692900  0.46188600  0.28688800  1
  C  366  1  0.98808300  0.44314300  0.30555100  1
  C  367  1  0.00752800  0.49680000  0.25980200  1
  C  368  1  0.00628500  0.51887100  0.27816700  1
  C  369  1  0.98346700  0.52491700  0.29064000  1
  C  370  1  0.98213000  0.54360800  0.30920500  1
  C  371  1  0.00375200  0.55682000  0.31672400  1
  C  372  1  0.02683400  0.55049100  0.30530800  1
  C  373  1  0.02803000  0.53175500  0.28672000  1
  C  374  1  0.02965600  0.49751300  0.24140000  1
  C  375  1  0.98550000  0.49598200  0.24130600  1
  C  376  1  0.97343000  0.51806500  0.23234800  1
  C  377  1  0.95478200  0.51734900  0.21361500  1
  C  378  1  0.94769700  0.49454200  0.20231400  1
  C  379  1  0.96019100  0.47248900  0.21026000  1
  C  380  1  0.97883300  0.47333900  0.22895900  1
  C  381  1  0.04179100  0.47536100  0.23278400  1
  C  382  1  0.06060600  0.47593200  0.21421000  1
  C  383  1  0.06763100  0.49863400  0.20258300  1
  C  384  1  0.05526500  0.52079200  0.21032800  1
  C  385  1  0.03648700  0.52008800  0.22891500  1
  C  406  1  0.00438900  0.43653800  0.69848900  1
  C  407  1  0.98284000  0.44998200  0.70583700  1
  C  408  1  0.98421600  0.46868200  0.72438300  1
  C  409  1  0.00699200  0.47450900  0.73702100  1
  C  410  1  0.02868500  0.46141700  0.72861500  1
  C  411  1  0.02745100  0.44266900  0.71003400  1
  C  412  1  0.00821400  0.49649400  0.75550400  1
  C  413  1  0.00953300  0.51856200  0.73705300  1
  C  414  1  0.03237700  0.52444000  0.72452300  1
  C  415  1  0.03382100  0.54312600  0.70588900  1
  C  416  1  0.01228100  0.55650300  0.69835200  1
  C  417  1  0.98916800  0.55033400  0.70980400  1
  C  418  1  0.98786700  0.53159100  0.72845600  1
  C  419  1  0.98606900  0.49724600  0.77388200  1
  C  420  1  0.03023700  0.49564500  0.77401200  1
  C  421  1  0.04230500  0.51773000  0.78286400  1
  C  422  1  0.06094000  0.51703300  0.80161300  1
  C  423  1  0.06802000  0.49424100  0.81304200  1
  C  424  1  0.05551000  0.47218800  0.80522700  1
  C  425  1  0.03689100  0.47302000  0.78649900  1
  C  426  1  0.97390700  0.47512100  0.78259300  1
  C  427  1  0.95511200  0.47571900  0.80118500  1
  C  428  1  0.94812700  0.49842700  0.81274000  1
  C  429  1  0.96051600  0.52056200  0.80490700  1
  C  430  1  0.97928000  0.51982800  0.78630500  1
  C  451  1  0.69846900  0.00007000  0.56729500  1
  C  452  1  0.70583000  0.02161200  0.55383500  1
  C  453  1  0.72444800  0.02025900  0.53515100  1
  C  454  1  0.73717500  0.99752300  0.52937800  1
  C  455  1  0.72874700  0.97583700  0.54248700  1
  C  456  1  0.71009200  0.97704300  0.56122000  1
  C  457  1  0.75574800  0.99634300  0.50741800  1
  C  458  1  0.73735700  0.99505200  0.48532800  1
  C  459  1  0.72482000  0.97225000  0.47945100  1
  C  460  1  0.70623000  0.97084200  0.46074900  1
  C  461  1  0.69872600  0.99238400  0.44735900  1
  C  462  1  0.71021200  0.01545400  0.45349300  1
  C  463  1  0.72882000  0.01671700  0.47225100  1
  C  464  1  0.77412400  0.01847600  0.50671000  1
  C  465  1  0.77427000  0.97432800  0.50826500  1
  C  466  1  0.78321600  0.96230800  0.48619200  1
  C  467  1  0.80196400  0.94365900  0.48690900  1
  C  468  1  0.81333500  0.93654800  0.50971100  1
  C  469  1  0.80545200  0.94902600  0.53175300  1
  C  470  1  0.78671900  0.96765300  0.53089500  1
  C  471  1  0.78272600  0.03058000  0.52886800  1
  C  472  1  0.80129400  0.04938900  0.52833500  1
  C  473  1  0.81294300  0.05645500  0.50566300  1
  C  474  1  0.80524400  0.04410700  0.48350100  1
  C  475  1  0.78666300  0.02532800  0.48417500  1
  C  496  1  0.31710400  0.99314100  0.56728600  1
  C  497  1  0.30968000  0.97156100  0.55400500  1
  C  498  1  0.29107700  0.97289000  0.53530600  1
  C  499  1  0.27844600  0.99564700  0.52933800  1
  C  500  1  0.28693600  0.01736600  0.54226100  1
  C  501  1  0.30556300  0.01617900  0.56101300  1
  C  502  1  0.25988800  0.99684400  0.50737000  1
  C  503  1  0.27830300  0.99815400  0.48528900  1
  C  504  1  0.29075400  0.02098100  0.47924300  1
  C  505  1  0.30936300  0.02237400  0.46054100  1
  C  506  1  0.31694800  0.00080500  0.44731700  1
  C  507  1  0.30556300  0.97771500  0.45365400  1
  C  508  1  0.28692400  0.97646200  0.47239400  1
  C  509  1  0.24149700  0.97472800  0.50664500  1
  C  510  1  0.24135300  0.01884300  0.50823700  1
  C  511  1  0.23239700  0.03094500  0.48617000  1
  C  512  1  0.21365900  0.04960200  0.48691600  1
  C  513  1  0.20233600  0.05665300  0.50974000  1
  C  514  1  0.21025300  0.04410700  0.53177500  1
  C  515  1  0.22896200  0.02546400  0.53089200  1
  C  516  1  0.23284600  0.96254300  0.52878800  1
  C  517  1  0.21426900  0.94374500  0.52820700  1
  C  518  1  0.20270300  0.93675400  0.50550100  1
  C  519  1  0.21048200  0.94917100  0.48335400  1
  C  520  1  0.22906100  0.96794200  0.48406800  1
  C  541  1  0.40469000  0.00830300  0.36483200  1
  C  542  1  0.40138600  0.02363900  0.38614800  1
  C  543  1  0.38209500  0.01849100  0.40373200  1
  C  544  1  0.36605100  0.99758200  0.39930500  1
  C  548  1  0.37984800  0.03344400  0.42495100  1
  C  549  1  0.36934400  0.05836900  0.42198200  1
  C  554  1  0.42343900  0.01319200  0.34738600  1
  C  556  1  0.34645900  0.98932100  0.41463000  1
  C  558  1  0.40455500  0.98565100  0.65005700  1
  C  559  1  0.40113800  0.97014400  0.62888700  1
  C  560  1  0.38188500  0.97528100  0.61126800  1
  C  561  1  0.36599700  0.99636500  0.61549200  1
  C  565  1  0.37953300  0.96013200  0.59024300  1
  C  566  1  0.36893700  0.93524700  0.59331500  1
  C  571  1  0.42328400  0.98077200  0.66752600  1
  C  573  1  0.34646200  0.00464300  0.60010100  1
  C  575  1  0.61086900  0.00816700  0.64983600  1
  C  576  1  0.61428000  0.02343700  0.62842800  1
  C  577  1  0.63353900  0.01811100  0.61088300  1
  C  578  1  0.64945000  0.99709400  0.61542400  1
  C  582  1  0.63589300  0.03303600  0.58963800  1
  C  583  1  0.64652500  0.05793600  0.59234500  1
  C  588  1  0.59214400  0.01325400  0.66724100  1
  C  590  1  0.66901800  0.98869200  0.60015900  1
  C  592  1  0.61111100  0.98466100  0.36482000  1
  C  593  1  0.61452600  0.96925000  0.38612500  1
  C  594  1  0.63377700  0.97446300  0.40370300  1
  C  595  1  0.64968300  0.99549800  0.39928100  1
  C  599  1  0.63613900  0.95941600  0.42487000  1
  C  600  1  0.64609100  0.93426300  0.42224200  1
  C  605  1  0.59238100  0.97972900  0.34739200  1
  C  607  1  0.66922800  0.00381700  0.41459500  1
  C  609  1  0.99654900  0.63916100  0.40436500  1
  C  610  1  0.98106900  0.61792700  0.40101600  1
  C  611  1  0.98615500  0.60038600  0.38173500  1
  C  612  1  0.00713700  0.60476600  0.36573400  1
  C  616  1  0.97105200  0.57928100  0.37943900  1
  C  617  1  0.94583800  0.58203700  0.36962200  1
  C  622  1  0.99173900  0.65654400  0.42314000  1
  C  624  1  0.01535500  0.58945300  0.34616700  1
  C  626  1  0.01869600  0.35418400  0.40467800  1
  C  627  1  0.03428500  0.37531200  0.40108700  1
  C  628  1  0.02909300  0.39292400  0.38183300  1
  C  629  1  0.00789300  0.38872200  0.36609700  1
  C  633  1  0.04434100  0.41390800  0.37930200  1
  C  634  1  0.06941000  0.41096700  0.36917800  1
  C  639  1  0.02362000  0.33673900  0.42343100  1
  C  641  1  0.99957300  0.40411400  0.34657500  1
  C  643  1  0.99627600  0.35405300  0.61107100  1
  C  644  1  0.98094000  0.37538500  0.61452000  1
  C  645  1  0.98627700  0.39293100  0.63372500  1
  C  646  1  0.00735500  0.38845200  0.64956800  1
  C  650  1  0.97128800  0.41412100  0.63610700  1
  C  651  1  0.94616700  0.41152300  0.64620200  1
  C  656  1  0.99119400  0.33666100  0.59237700  1
  C  658  1  0.01576800  0.40373200  0.66907900  1
  C  660  1  0.02010100  0.63886700  0.61045200  1
  C  661  1  0.03540600  0.61749200  0.61384800  1
  C  662  1  0.03018700  0.59996500  0.63318000  1
  C  663  1  0.00923900  0.60450500  0.64916900  1
  C  667  1  0.04512300  0.57869500  0.63552400  1
  C  668  1  0.07003900  0.58159300  0.64606900  1
  C  673  1  0.02505600  0.65625300  0.59165200  1
  C  675  1  0.00090800  0.58925100  0.66879500  1
  C  677  1  0.36533000  0.59997900  0.99638100  1
  C  678  1  0.38662400  0.60335300  0.98095200  1
  C  679  1  0.40420400  0.62263000  0.98604900  1
  C  680  1  0.39980100  0.63858500  0.00700800  1
  C  684  1  0.42539200  0.62495000  0.97098900  1
  C  685  1  0.42232800  0.63551900  0.94609600  1
  C  690  1  0.34790600  0.58122200  0.99154500  1
  C  692  1  0.41513400  0.65814000  0.01523700  1
  C  694  1  0.65034500  0.59987100  0.01864700  1
  C  695  1  0.62910300  0.60328600  0.03412900  1
  C  696  1  0.61152600  0.62258700  0.02900200  1
  C  697  1  0.61586900  0.63852400  0.00795800  1
  C  701  1  0.59042600  0.62494000  0.04411600  1
  C  702  1  0.59342300  0.63545100  0.06901700  1
  C  707  1  0.66777100  0.58109700  0.02352100  1
  C  709  1  0.60051900  0.65809700  0.99969100  1
  C  711  1  0.65024600  0.39375600  0.99577600  1
  C  712  1  0.62884700  0.39046100  0.98050000  1
  C  713  1  0.61130900  0.37115400  0.98569900  1
  C  714  1  0.61585600  0.35507300  0.00659200  1
  C  718  1  0.59006800  0.36890900  0.97077900  1
  C  719  1  0.59282000  0.35847100  0.94581600  1
  C  724  1  0.66764500  0.41252700  0.99081800  1
  C  726  1  0.60059400  0.33544100  0.01487700  1
  C  728  1  0.36534000  0.39358800  0.01954500  1
  C  729  1  0.38665600  0.39000500  0.03488900  1
  C  730  1  0.40418900  0.37073900  0.02955200  1
  C  731  1  0.39971500  0.35499200  0.00845600  1
  C  735  1  0.42536400  0.36821400  0.04454500  1
  C  736  1  0.42269800  0.35814500  0.06966500  1
  C  741  1  0.34796000  0.41234200  0.02460400  1
  C  743  1  0.41498400  0.33545500  0.00002000  1
  C  745  1  0.90507000  0.50818100  0.86508300  1
  C  746  1  0.90126900  0.52386000  0.88606900  1
  C  747  1  0.88201800  0.51860000  0.90365300  1
  C  748  1  0.86653100  0.49720700  0.89959500  1
  C  752  1  0.87931400  0.53390800  0.92453600  1
  C  753  1  0.86920800  0.55895200  0.92139600  1
  C  758  1  0.92392700  0.51311800  0.84775400  1
  C  760  1  0.84717900  0.48875400  0.91511200  1
  C  762  1  0.90143600  0.48353900  0.15291100  1
  C  763  1  0.89069100  0.46417400  0.13841200  1
  C  764  1  0.87231000  0.46958300  0.11997000  1
  C  765  1  0.86489400  0.49503900  0.11636800  1
  C  769  1  0.86241200  0.45001100  0.10593500  1
  C  770  1  0.87712700  0.43978200  0.08551700  1
  C  775  1  0.91945700  0.47838500  0.17105400  1
  C  777  1  0.84720200  0.50413200  0.09922200  1
  C  779  1  0.11068400  0.50834400  0.15020800  1
  C  780  1  0.11450000  0.52403000  0.12917100  1
  C  781  1  0.13375700  0.51875900  0.11161500  1
  C  782  1  0.14924500  0.49735600  0.11576400  1
  C  786  1  0.13647400  0.53407600  0.09068200  1
  C  787  1  0.14665400  0.55908000  0.09374100  1
  C  792  1  0.09181800  0.51328800  0.16750800  1
  C  794  1  0.16861300  0.48889600  0.10029700  1
  C  796  1  0.11428400  0.48334300  0.86251600  1
  C  797  1  0.12513000  0.46400500  0.87706100  1
  C  798  1  0.14347100  0.46946800  0.89550800  1
  C  799  1  0.15075200  0.49495400  0.89904500  1
  C  803  1  0.15350000  0.44990500  0.90960000  1
  C  804  1  0.13873400  0.44027700  0.93033300  1
  C  809  1  0.09630100  0.47813700  0.84437100  1
  C  811  1  0.16840100  0.50410700  0.91616300  1
  C  813  1  0.49643100  0.13918500  0.90437000  1
  C  814  1  0.48099700  0.11794000  0.90087400  1
  C  815  1  0.48621600  0.10043100  0.88159700  1
  C  816  1  0.50734000  0.10482000  0.86579100  1
  C  820  1  0.47118000  0.07925900  0.87919600  1
  C  821  1  0.44618000  0.08235900  0.86888500  1
  C  826  1  0.49151000  0.15645600  0.92323400  1
  C  828  1  0.51573400  0.08942800  0.84636600  1
  C  830  1  0.52110300  0.85145600  0.90106000  1
  C  831  1  0.54051200  0.86574400  0.89001300  1
  C  832  1  0.53506700  0.88425200  0.87169100  1
  C  833  1  0.50953300  0.88811500  0.86464200  1
  C  837  1  0.55468400  0.89806000  0.86147200  1
  C  838  1  0.56480500  0.91871900  0.87596200  1
  C  843  1  0.52628300  0.83324900  0.91902000  1
  C  845  1  0.50038800  0.90532700  0.84703500  1
  C  847  1  0.49451200  0.85104300  0.11390200  1
  C  848  1  0.47513300  0.86554000  0.12469500  1
  C  849  1  0.48057400  0.88398400  0.14300600  1
  C  850  1  0.50606700  0.88755200  0.15032600  1
  C  854  1  0.46100200  0.89804600  0.15292700  1
  C  855  1  0.45128500  0.91880300  0.13821200  1
  C  860  1  0.48933400  0.83290900  0.09594200  1
  C  862  1  0.51519900  0.90469400  0.16793500  1
  C  864  1  0.52120900  0.14237000  0.11380500  1
  C  865  1  0.54060800  0.12795500  0.12471500  1
  C  866  1  0.53516700  0.10943000  0.14301800  1
  C  867  1  0.50965100  0.10566900  0.15019000  1
  C  871  1  0.55476700  0.09543600  0.15304600  1
  C  872  1  0.56513200  0.07501000  0.13845900  1
  C  877  1  0.52638300  0.16062200  0.09588700  1
  C  879  1  0.50052300  0.08842200  0.16776900  1
  C  881  1  0.86521000  0.09968400  0.49610400  1
  C  882  1  0.88625900  0.10359600  0.48046600  1
  C  883  1  0.90381100  0.12281500  0.48582900  1
  C  884  1  0.89965400  0.13815700  0.50728700  1
  C  888  1  0.92475900  0.12562100  0.47055900  1
  C  889  1  0.92168700  0.13584700  0.44554700  1
  C  894  1  0.84791300  0.08085300  0.49105800  1
  C  896  1  0.91512600  0.15746400  0.51583000  1
  C  898  1  0.15304100  0.10304400  0.52086600  1
  C  899  1  0.13868000  0.11391400  0.54028700  1
  C  900  1  0.12023800  0.13231900  0.53492000  1
  C  901  1  0.11649400  0.13962300  0.50945100  1
  C  905  1  0.10635500  0.14235600  0.55455100  1
  C  906  1  0.08596200  0.12777200  0.56507900  1
  C  911  1  0.17119500  0.08501300  0.52597700  1
  C  913  1  0.09933700  0.15733000  0.50039200  1
  C  915  1  0.15043800  0.89362400  0.49574000  1
  C  916  1  0.12949200  0.88974300  0.47997900  1
  C  917  1  0.11192600  0.87049000  0.48525300  1
  C  918  1  0.11597400  0.85506900  0.50673400  1
  C  922  1  0.09108000  0.86771000  0.46986000  1
  C  923  1  0.09432200  0.85745500  0.44492200  1
  C  928  1  0.16773800  0.91249500  0.49079700  1
  C  930  1  0.10047800  0.83571600  0.51520700  1
  C  932  1  0.86268300  0.89013700  0.52069200  1
  C  933  1  0.87710900  0.87919600  0.54006300  1
  C  934  1  0.89556100  0.86083600  0.53463400  1
  C  935  1  0.89923200  0.85363500  0.50914800  1
  C  939  1  0.90953100  0.85071000  0.55422600  1
  C  940  1  0.93026300  0.86537200  0.56395000  1
  C  945  1  0.84453000  0.90813800  0.52586800  1
  C  947  1  0.91637800  0.83598100  0.50002500  1
  N  41  1  0.50084800  0.91878900  0.18126300  1
  N  42  1  0.51488000  0.07431800  0.18113200  1
  N  43  1  0.58544000  0.99578700  0.33070000  1
  N  44  1  0.43029200  0.99714700  0.33070300  1
  N  86  1  0.50126500  0.07393300  0.83484500  1
  N  87  1  0.51472200  0.91959200  0.83382600  1
  N  88  1  0.58521100  0.99735900  0.68409200  1
  N  89  1  0.43008900  0.99679100  0.68424500  1
  N  131  1  0.08509400  0.82404200  0.50074200  1
  N  132  1  0.93070100  0.82280600  0.51433900  1
  N  133  1  0.00909600  0.67307700  0.58481100  1
  N  134  1  0.00773500  0.67336500  0.42981000  1
  N  176  1  0.93053400  0.16922400  0.50140900  1
  N  177  1  0.08497900  0.17036500  0.51475500  1
  N  178  1  0.00711300  0.31986300  0.58543300  1
  N  179  1  0.00760000  0.32000600  0.43033700  1
  N  221  1  0.18027900  0.50336200  0.08485700  1
  N  222  1  0.18154500  0.48981000  0.93053000  1
  N  223  1  0.33121400  0.41938000  0.00865300  1
  N  224  1  0.33107100  0.57447300  0.00753200  1
  N  266  1  0.83550400  0.50322500  0.93049100  1
  N  267  1  0.83414600  0.48979600  0.08487700  1
  N  268  1  0.68450500  0.41929800  0.00673300  1
  N  269  1  0.68459700  0.57434500  0.00754400  1
  N  311  1  0.50648000  0.81989900  0.08495400  1
  N  312  1  0.50913100  0.82025500  0.93005100  1
  N  313  1  0.43119700  0.66916200  0.00094000  1
  N  314  1  0.58448200  0.66911400  0.01398400  1
  N  356  1  0.50706600  0.17382900  0.92953000  1
  N  357  1  0.50919700  0.17335200  0.08459400  1
  N  358  1  0.43111000  0.32433300  0.01416500  1
  N  359  1  0.58438700  0.32456700  0.00068400  1
  N  401  1  0.93018300  0.49549000  0.18429500  1
  N  402  1  0.08526400  0.49760500  0.18470900  1
  N  403  1  0.01386100  0.42015300  0.33551700  1
  N  404  1  0.00102200  0.57344900  0.33518100  1
  N  446  1  0.08550600  0.49521900  0.83108100  1
  N  447  1  0.93050500  0.49741900  0.83063300  1
  N  448  1  0.00159300  0.41988500  0.68007100  1
  N  449  1  0.01511300  0.57311100  0.67982300  1
  N  491  1  0.83135600  0.91902800  0.50876000  1
  N  492  1  0.83080400  0.07409000  0.50674500  1
  N  493  1  0.68000400  0.00285100  0.58395300  1
  N  494  1  0.68026300  0.98958100  0.43070400  1
  N  536  1  0.18432400  0.07418800  0.50882800  1
  N  537  1  0.18483900  0.91911500  0.50652300  1
  N  538  1  0.33552800  0.99039300  0.58399800  1
  N  539  1  0.33544000  0.00358700  0.43067500  1
  N  545  1  0.37071300  0.98379400  0.37831500  1
  N  546  1  0.38861900  0.98869300  0.36219500  1
  N  562  1  0.37076300  0.01031000  0.63635200  1
  N  563  1  0.38863100  0.00541600  0.65251300  1
  N  579  1  0.64468300  0.98337400  0.63649000  1
  N  580  1  0.62680300  0.98843700  0.65258100  1
  N  596  1  0.64491400  0.00935300  0.37830500  1
  N  597  1  0.62703700  0.00440000  0.36219300  1
  N  613  1  0.02106700  0.62566900  0.37044300  1
  N  614  1  0.01622800  0.64175200  0.38834800  1
  N  630  1  0.99387700  0.36790300  0.37102400  1
  N  631  1  0.99881300  0.35175600  0.38890400  1
  N  647  1  0.02113200  0.36745100  0.64477400  1
  N  648  1  0.01606700  0.35137000  0.62693300  1
  N  664  1  0.99548800  0.62554400  0.64442000  1
  N  665  1  0.00045400  0.64161300  0.62647600  1
  N  681  1  0.37883100  0.63386000  0.02088300  1
  N  682  1  0.36271300  0.61596900  0.01602800  1
  N  698  1  0.63678700  0.63375500  0.99403100  1
  N  699  1  0.65290800  0.61584300  0.99891500  1
  N  715  1  0.63691400  0.35973600  0.02032600  1
  N  716  1  0.65299400  0.37766100  0.01538200  1
  N  732  1  0.37873100  0.35991200  0.99467400  1
  N  733  1  0.36266000  0.37780200  0.99974300  1
  N  749  1  0.87164500  0.48309800  0.87892400  1
  N  750  1  0.88950900  0.48811900  0.86278600  1
  N  766  1  0.87630900  0.51243600  0.13120500  1
  N  767  1  0.89329000  0.50724300  0.14821200  1
  N  783  1  0.14412300  0.48324600  0.13648500  1
  N  784  1  0.12624800  0.48827200  0.15259200  1
  N  800  1  0.13924700  0.51232100  0.88416300  1
  N  801  1  0.12229900  0.50707700  0.86716200  1
  N  817  1  0.52122200  0.12573000  0.87061400  1
  N  818  1  0.51622800  0.14180000  0.88849500  1
  N  834  1  0.49210100  0.87346300  0.87633200  1
  N  835  1  0.49732800  0.85640400  0.89326100  1
  N  851  1  0.52347300  0.87271600  0.13887100  1
  N  852  1  0.51825200  0.85572400  0.12194200  1
  N  868  1  0.49222700  0.12043100  0.13862100  1
  N  869  1  0.49744800  0.13751200  0.12171100  1
  N  885  1  0.87892600  0.13294200  0.52135000  1
  N  886  1  0.86282000  0.11510800  0.51623200  1
  N  902  1  0.13120600  0.12809100  0.49200100  1
  N  903  1  0.14821400  0.11109100  0.49715300  1
  N  919  1  0.13661200  0.86025100  0.52090900  1
  N  920  1  0.15272800  0.87812400  0.51588000  1
  N  936  1  0.88446000  0.86522900  0.49175000  1
  N  937  1  0.86745100  0.88219300  0.49696400  1
  O  553  1  0.39692100  0.03132200  0.44016600  1
  O  570  1  0.39655100  0.96175400  0.57488600  1
  O  587  1  0.61885800  0.03128100  0.57433000  1
  O  604  1  0.61939800  0.96203300  0.44039600  1
  O  621  1  0.97371400  0.56370900  0.39614500  1
  O  638  1  0.04200100  0.42947700  0.39600000  1
  O  655  1  0.97385100  0.42962900  0.61932700  1
  O  672  1  0.04303400  0.56346400  0.61850600  1
  O  689  1  0.44066100  0.60790600  0.97300900  1
  O  706  1  0.57504100  0.60796900  0.04245100  1
  O  723  1  0.57473300  0.38591800  0.97264200  1
  O  740  1  0.44096300  0.38489000  0.04195700  1
  O  757  1  0.89589600  0.53160000  0.94027800  1
  O  774  1  0.84977200  0.43493200  0.11783300  1
  O  791  1  0.11986100  0.53185000  0.07497000  1
  O  808  1  0.16566300  0.43445700  0.89775200  1
  O  825  1  0.47338600  0.06380500  0.89605600  1
  O  842  1  0.57010900  0.88616500  0.84929500  1
  O  859  1  0.44530700  0.88635600  0.16498800  1
  O  876  1  0.56976700  0.10736600  0.16569900  1
  O  893  1  0.94053800  0.10906100  0.47282600  1
  O  910  1  0.11840100  0.15503600  0.56942400  1
  O  927  1  0.07531900  0.88430700  0.47193000  1
  O  944  1  0.89755700  0.83854400  0.56961400  1
