# generated using pymatgen
data_H36C43N4
_symmetry_space_group_name_H-M   'P 1'
_cell_length_a   32.59800000
_cell_length_b   62.66530000
_cell_length_c   62.66520000
_cell_angle_alpha   90.00000000
_cell_angle_beta   89.99980000
_cell_angle_gamma   90.00000000
_symmetry_Int_Tables_number   1
_chemical_formula_structural   H36C43N4
_chemical_formula_sum   'H1152 C1376 N128'
_cell_volume   128010.18010856
_cell_formula_units_Z   32
loop_
 _symmetry_equiv_pos_site_id
 _symmetry_equiv_pos_as_xyz
  1  'x, y, z'
loop_
 _atom_site_type_symbol
 _atom_site_label
 _atom_site_symmetry_multiplicity
 _atom_site_fract_x
 _atom_site_fract_y
 _atom_site_fract_z
 _atom_site_occupancy
  H  25  1  0.85769900  0.11490700  0.31740400  1
  H  26  1  0.92161100  0.12227900  0.33434300  1
  H  27  1  0.07390700  0.12549200  0.33238500  1
  H  28  1  0.13713600  0.12077500  0.31379900  1
  H  29  1  0.07571700  0.08786000  0.26499400  1
  H  30  1  0.91912600  0.08357200  0.26757100  1
  H  31  1  0.00419500  0.06054100  0.30875300  1
  H  32  1  0.01423400  0.00741800  0.26806200  1
  H  33  1  0.00588200  0.02997500  0.23774900  1
  H  34  1  0.99402600  0.13520800  0.27427900  1
  H  35  1  0.99096800  0.10129200  0.20489600  1
  H  36  1  0.98876200  0.13930900  0.20743100  1
  H  39  1  0.99642800  0.13172300  0.32341000  1
  H  40  1  0.99945600  0.10686800  0.33680700  1
  H  42  1  0.02346400  0.06870600  0.22545500  1
  H  43  1  0.96928300  0.06672100  0.22694400  1
  H  45  1  0.98741600  0.17000000  0.25872900  1
  H  46  1  0.96639900  0.17060600  0.23291200  1
  H  48  1  0.01389100  0.02592700  0.32498700  1
  H  49  1  0.04628700  0.01072300  0.30843100  1
  H  51  1  0.16341500  0.11652200  0.27222400  1
  H  52  1  0.14635400  0.09273700  0.26077100  1
  H  54  1  0.83168800  0.10972200  0.27448700  1
  H  55  1  0.84737300  0.08457000  0.26569600  1
  H  80  1  0.85772100  0.80893600  0.60633800  1
  H  81  1  0.92165100  0.80160400  0.58940800  1
  H  82  1  0.07392500  0.79842200  0.59138000  1
  H  83  1  0.13715000  0.80312800  0.60997400  1
  H  84  1  0.07569200  0.83596600  0.65882300  1
  H  85  1  0.91906500  0.84019600  0.65624400  1
  H  86  1  0.00409600  0.86333600  0.61513700  1
  H  87  1  0.01412400  0.91636900  0.65594700  1
  H  88  1  0.00581900  0.89373800  0.68621100  1
  H  89  1  0.99402600  0.78859200  0.64943000  1
  H  90  1  0.99112800  0.82232600  0.71890100  1
  H  91  1  0.98895900  0.78431500  0.71627100  1
  H  94  1  0.99645600  0.79216100  0.60034200  1
  H  95  1  0.99946500  0.81703500  0.58698100  1
  H  97  1  0.02349500  0.85498400  0.69840100  1
  H  98  1  0.96930400  0.85694500  0.69695200  1
  H  100  1  0.98740300  0.75377200  0.66488300  1
  H  101  1  0.96650600  0.75308600  0.69072100  1
  H  103  1  0.01375400  0.89798700  0.59898100  1
  H  104  1  0.04619100  0.91313800  0.61556400  1
  H  106  1  0.16334100  0.80733200  0.65160600  1
  H  107  1  0.14636300  0.83115900  0.66300700  1
  H  109  1  0.83171900  0.81405400  0.64931400  1
  H  110  1  0.84727800  0.83924800  0.65804900  1
  H  135  1  0.85769000  0.60638900  0.11485700  1
  H  136  1  0.92159600  0.58944800  0.12223100  1
  H  137  1  0.07387800  0.59138800  0.12542600  1
  H  138  1  0.13711500  0.60996200  0.12069800  1
  H  139  1  0.07571400  0.65875900  0.08775600  1
  H  140  1  0.91910800  0.65618800  0.08346900  1
  H  141  1  0.00417400  0.61498200  0.06045700  1
  H  142  1  0.01419700  0.65563800  0.00730400  1
  H  143  1  0.00584100  0.68596500  0.02984000  1
  H  144  1  0.99407900  0.64952600  0.13510700  1
  H  145  1  0.99084200  0.71887000  0.10111800  1
  H  146  1  0.98866100  0.71637600  0.13913600  1
  H  149  1  0.99641000  0.60038000  0.13165500  1
  H  150  1  0.99942900  0.58696200  0.10681200  1
  H  152  1  0.02340300  0.69829400  0.06855800  1
  H  153  1  0.96922100  0.69678600  0.06657400  1
  H  155  1  0.98756600  0.66511700  0.16989500  1
  H  156  1  0.96638100  0.69090000  0.17046600  1
  H  158  1  0.01380600  0.59872600  0.02584400  1
  H  159  1  0.04622600  0.61526000  0.01063000  1
  H  161  1  0.16336000  0.65156000  0.11642800  1
  H  162  1  0.14637500  0.66295600  0.09260100  1
  H  164  1  0.83174100  0.64934400  0.10963800  1
  H  165  1  0.84734600  0.65804700  0.08444200  1
  H  190  1  0.85771100  0.31746800  0.80889800  1
  H  191  1  0.92166000  0.33439700  0.80156900  1
  H  192  1  0.07395700  0.33241100  0.79836700  1
  H  193  1  0.13715900  0.31380400  0.80305300  1
  H  194  1  0.07569600  0.26492700  0.83583200  1
  H  195  1  0.91908600  0.26750200  0.84006700  1
  H  196  1  0.00407500  0.30858100  0.86324700  1
  H  197  1  0.01409600  0.26770800  0.91623000  1
  H  198  1  0.00583000  0.23746800  0.89356100  1
  H  199  1  0.99400500  0.27439800  0.78846700  1
  H  200  1  0.99129600  0.20486900  0.82208700  1
  H  201  1  0.98910900  0.20756200  0.78407600  1
  H  204  1  0.99649300  0.32346000  0.79209100  1
  H  205  1  0.99947200  0.33679600  0.81698100  1
  H  207  1  0.02358500  0.22533900  0.85478600  1
  H  208  1  0.96939300  0.22675400  0.85674300  1
  H  210  1  0.98729600  0.25901000  0.75363600  1
  H  211  1  0.96655900  0.23314200  0.75289600  1
  H  213  1  0.01373300  0.32469700  0.89790900  1
  H  214  1  0.04616600  0.30809400  0.91304200  1
  H  216  1  0.16339900  0.27221600  0.80720500  1
  H  217  1  0.14633800  0.26070900  0.83096300  1
  H  219  1  0.83162700  0.27451900  0.81398200  1
  H  220  1  0.84730900  0.26570100  0.83912700  1
  H  245  1  0.13875300  0.80077500  0.31867600  1
  H  246  1  0.07545900  0.79232700  0.33577000  1
  H  247  1  0.92293600  0.79202600  0.33645800  1
  H  248  1  0.85898800  0.80015900  0.31982800  1
  H  249  1  0.91950400  0.83862300  0.27495500  1
  H  250  1  0.07639800  0.83955400  0.27470200  1
  H  251  1  0.99755700  0.85750700  0.32113000  1
  H  252  1  0.98149500  0.91635500  0.29012700  1
  H  253  1  0.98708100  0.89917000  0.25634400  1
  H  254  1  0.99822000  0.78939600  0.27529100  1
  H  255  1  0.99753900  0.83375100  0.21204100  1
  H  256  1  0.99785800  0.79576100  0.20856400  1
  H  259  1  0.99922000  0.78578900  0.32530000  1
  H  260  1  0.99909400  0.80871600  0.34185300  1
  H  262  1  0.96823400  0.86301900  0.23841900  1
  H  263  1  0.02254800  0.86434500  0.23856400  1
  H  265  1  0.97087500  0.76167400  0.22874500  1
  H  266  1  0.99134200  0.75748000  0.25440100  1
  H  268  1  0.98814600  0.88773100  0.34285500  1
  H  269  1  0.95652700  0.90677500  0.33091200  1
  H  271  1  0.83269200  0.81006100  0.27843500  1
  H  272  1  0.84834300  0.83580800  0.27160200  1
  H  274  1  0.16412900  0.81106700  0.27745800  1
  H  275  1  0.14763900  0.83667100  0.27061400  1
  H  300  1  0.13871900  0.12313800  0.60537200  1
  H  301  1  0.07535500  0.13161400  0.58835500  1
  H  302  1  0.92284700  0.13186800  0.58776400  1
  H  303  1  0.85894200  0.12365400  0.60439100  1
  H  304  1  0.91958300  0.08512800  0.64915700  1
  H  305  1  0.07651100  0.08424300  0.64931000  1
  H  306  1  0.99754200  0.06636200  0.60291800  1
  H  307  1  0.98155900  0.00746600  0.63383400  1
  H  308  1  0.98729900  0.02458400  0.66763900  1
  H  309  1  0.99812200  0.13438700  0.64887900  1
  H  310  1  0.99824100  0.08991500  0.71205000  1
  H  311  1  0.99849600  0.12790300  0.71559900  1
  H  314  1  0.99914300  0.13810900  0.59890300  1
  H  315  1  0.99899900  0.11522600  0.58229100  1
  H  317  1  0.96865100  0.06069200  0.68568500  1
  H  318  1  0.02296600  0.05937500  0.68541000  1
  H  320  1  0.97116300  0.16195900  0.69565300  1
  H  321  1  0.99087000  0.16622100  0.66985100  1
  H  323  1  0.98819800  0.03616500  0.58114500  1
  H  324  1  0.95654000  0.01711800  0.59305700  1
  H  326  1  0.83265500  0.11361400  0.64576000  1
  H  327  1  0.84840100  0.08786100  0.65251200  1
  H  329  1  0.16420800  0.11276000  0.64655300  1
  H  330  1  0.14777600  0.08712800  0.65334000  1
  H  355  1  0.13872900  0.31866300  0.12303900  1
  H  356  1  0.07539700  0.33572800  0.13145800  1
  H  357  1  0.92287500  0.33635100  0.13168700  1
  H  358  1  0.85895400  0.31971000  0.12350600  1
  H  359  1  0.91961400  0.27484800  0.08508600  1
  H  360  1  0.07651000  0.27465900  0.08423600  1
  H  361  1  0.99762200  0.32103600  0.06623800  1
  H  362  1  0.98154100  0.29000800  0.00740300  1
  H  363  1  0.98721000  0.25623300  0.02459700  1
  H  364  1  0.99826000  0.27521900  0.13436100  1
  H  365  1  0.99787000  0.21195600  0.09002500  1
  H  366  1  0.99815600  0.20849200  0.12801500  1
  H  369  1  0.99916800  0.32522600  0.13796200  1
  H  370  1  0.99904800  0.34177300  0.11503000  1
  H  372  1  0.96847000  0.23829600  0.06074700  1
  H  373  1  0.02278400  0.23849600  0.05942600  1
  H  375  1  0.97101900  0.22863900  0.16207400  1
  H  376  1  0.99129300  0.25433400  0.16627100  1
  H  378  1  0.98825900  0.34275100  0.03600300  1
  H  379  1  0.95657600  0.33081200  0.01698500  1
  H  381  1  0.83269500  0.27830300  0.11357100  1
  H  382  1  0.84844400  0.27148700  0.08783600  1
  H  384  1  0.16417100  0.27744200  0.11276500  1
  H  385  1  0.14775400  0.27060300  0.08714600  1
  H  410  1  0.13876300  0.60533700  0.80068400  1
  H  411  1  0.07545500  0.58826500  0.79219800  1
  H  412  1  0.92294500  0.58758900  0.79188900  1
  H  413  1  0.85898800  0.60418600  0.80006900  1
  H  414  1  0.91950400  0.64901200  0.83858900  1
  H  415  1  0.07641200  0.64925800  0.83952300  1
  H  416  1  0.99744700  0.60281200  0.85739500  1
  H  417  1  0.98142800  0.63373100  0.91629100  1
  H  418  1  0.98713300  0.66753900  0.89916300  1
  H  419  1  0.99815900  0.64876000  0.78936200  1
  H  420  1  0.99792200  0.71194000  0.83381800  1
  H  421  1  0.99822600  0.71547600  0.79583300  1
  H  424  1  0.99923800  0.59876100  0.78567000  1
  H  425  1  0.99908800  0.58216800  0.80856800  1
  H  427  1  0.96843000  0.68555700  0.86304000  1
  H  428  1  0.02274300  0.68532900  0.86437200  1
  H  430  1  0.97104700  0.69546200  0.76175200  1
  H  431  1  0.99102600  0.66971400  0.75750600  1
  H  433  1  0.98799200  0.58104400  0.88757900  1
  H  434  1  0.95638600  0.59297000  0.90664100  1
  H  436  1  0.83264600  0.64556500  0.81005700  1
  H  437  1  0.84832100  0.65233800  0.83581600  1
  H  439  1  0.16414700  0.64652900  0.81104300  1
  H  440  1  0.14764700  0.65334600  0.83665300  1
  H  465  1  0.35700000  0.60299400  0.82503700  1
  H  466  1  0.42061100  0.61538100  0.83947300  1
  H  467  1  0.57325300  0.61782400  0.83786500  1
  H  468  1  0.63697100  0.60776100  0.82188700  1
  H  469  1  0.57435700  0.58672400  0.76721500  1
  H  470  1  0.41802200  0.58222800  0.76977500  1
  H  471  1  0.50341400  0.55992600  0.80924200  1
  H  472  1  0.51276700  0.50796200  0.76708300  1
  H  473  1  0.50337400  0.53132800  0.73743200  1
  H  474  1  0.49383400  0.63566500  0.77686200  1
  H  475  1  0.48714000  0.60340800  0.70673400  1
  H  476  1  0.48558500  0.64131200  0.71015200  1
  H  479  1  0.49534300  0.62949600  0.82663000  1
  H  480  1  0.49798100  0.60425300  0.83929400  1
  H  482  1  0.52028600  0.57034000  0.72602500  1
  H  483  1  0.46615400  0.56843100  0.72805700  1
  H  485  1  0.48895000  0.67103000  0.76192200  1
  H  486  1  0.46432300  0.67205800  0.73698300  1
  H  488  1  0.51452200  0.52515500  0.82445900  1
  H  489  1  0.54577200  0.51012600  0.80714500  1
  H  491  1  0.64474800  0.58014900  0.76856200  1
  H  492  1  0.66289600  0.57616600  0.79443000  1
  H  494  1  0.34885200  0.57263800  0.77342200  1
  H  495  1  0.33054500  0.57110900  0.79951600  1
  H  520  1  0.35699100  0.32084900  0.09873600  1
  H  521  1  0.42056800  0.30842100  0.08430400  1
  H  522  1  0.57321000  0.30595300  0.08583400  1
  H  523  1  0.63697100  0.31605700  0.10173700  1
  H  524  1  0.57448000  0.33733800  0.15635900  1
  H  525  1  0.41816000  0.34190600  0.15384100  1
  H  526  1  0.50358900  0.36397800  0.11417000  1
  H  527  1  0.51313800  0.41618100  0.15602500  1
  H  528  1  0.50365600  0.39300600  0.18580900  1
  H  529  1  0.49407300  0.28840700  0.14708200  1
  H  530  1  0.48626000  0.32121500  0.21692800  1
  H  531  1  0.48455400  0.28330100  0.21379200  1
  H  534  1  0.49530900  0.29436200  0.09714800  1
  H  535  1  0.49796600  0.31955700  0.08438700  1
  H  537  1  0.52013900  0.35404600  0.19750100  1
  H  538  1  0.46604100  0.35605900  0.19533100  1
  H  540  1  0.48950800  0.25309200  0.16234400  1
  H  541  1  0.46399100  0.25229800  0.18706900  1
  H  543  1  0.51458300  0.39868800  0.09874400  1
  H  544  1  0.54591000  0.41382100  0.11592700  1
  H  546  1  0.64490100  0.34384900  0.15496000  1
  H  547  1  0.66294800  0.34777000  0.12906200  1
  H  549  1  0.34893200  0.35137500  0.15026400  1
  H  550  1  0.33054100  0.35282500  0.12418200  1
  H  575  1  0.35699400  0.09877800  0.60304800  1
  H  576  1  0.42057800  0.08435000  0.61547900  1
  H  577  1  0.57320700  0.08589000  0.61795400  1
  H  578  1  0.63696200  0.10179000  0.60784300  1
  H  579  1  0.57447700  0.15642300  0.58659200  1
  H  580  1  0.41814200  0.15391500  0.58205100  1
  H  581  1  0.50356400  0.11428400  0.55994700  1
  H  582  1  0.51305300  0.15619000  0.50778500  1
  H  583  1  0.50358900  0.18595300  0.53099400  1
  H  584  1  0.49402400  0.14708900  0.63554300  1
  H  585  1  0.48656000  0.21699700  0.60285200  1
  H  586  1  0.48491600  0.21380600  0.64076600  1
  H  589  1  0.49530600  0.09719700  0.62955500  1
  H  590  1  0.49796600  0.08445100  0.60435500  1
  H  592  1  0.52020900  0.19759000  0.56996100  1
  H  593  1  0.46609900  0.19545600  0.56798400  1
  H  595  1  0.48935200  0.16228000  0.67086200  1
  H  596  1  0.46413200  0.18708000  0.67170800  1
  H  598  1  0.51459900  0.09889400  0.52523400  1
  H  599  1  0.54589200  0.11610600  0.51011400  1
  H  601  1  0.64488300  0.15500000  0.58003000  1
  H  602  1  0.66294800  0.12910000  0.57614700  1
  H  604  1  0.34892600  0.15031800  0.57254800  1
  H  605  1  0.33055400  0.12423200  0.57108100  1
  H  630  1  0.35701200  0.82508700  0.32090300  1
  H  631  1  0.42062700  0.83951100  0.30850800  1
  H  632  1  0.57328000  0.83789800  0.30607300  1
  H  633  1  0.63698300  0.82192700  0.31615300  1
  H  634  1  0.57435100  0.76727500  0.33723500  1
  H  635  1  0.41804400  0.76985400  0.34174200  1
  H  636  1  0.50348100  0.80935300  0.36399400  1
  H  637  1  0.51282600  0.76725900  0.41601300  1
  H  638  1  0.50338300  0.73758100  0.39268900  1
  H  639  1  0.49386400  0.77685100  0.28829000  1
  H  640  1  0.48687000  0.70679000  0.32067600  1
  H  641  1  0.48529000  0.71014100  0.28276800  1
  H  644  1  0.49534600  0.82666100  0.29441300  1
  H  645  1  0.49802100  0.83934400  0.31964500  1
  H  647  1  0.52019400  0.72610400  0.35368800  1
  H  648  1  0.46607100  0.72818300  0.35562200  1
  H  650  1  0.48906600  0.76183400  0.25293400  1
  H  651  1  0.46421500  0.73694700  0.25196000  1
  H  653  1  0.51454300  0.82461500  0.39875800  1
  H  654  1  0.54582400  0.80732800  0.41379800  1
  H  656  1  0.64474800  0.76863200  0.34381800  1
  H  657  1  0.66287800  0.79450700  0.34777400  1
  H  659  1  0.34885500  0.77348100  0.35128700  1
  H  660  1  0.33053200  0.79957200  0.35280900  1
  H  685  1  0.63756300  0.31236400  0.82930100  1
  H  686  1  0.57425000  0.29902700  0.84319700  1
  H  687  1  0.42118800  0.29839700  0.84374100  1
  H  688  1  0.35722100  0.31165000  0.83048500  1
  H  689  1  0.41814200  0.33964000  0.77853400  1
  H  690  1  0.57444900  0.34034800  0.77798000  1
  H  691  1  0.49612800  0.35804500  0.82262600  1
  H  692  1  0.47959300  0.41578400  0.78975300  1
  H  693  1  0.48514300  0.39749000  0.75651600  1
  H  694  1  0.49723300  0.28832200  0.77927200  1
  H  695  1  0.49404500  0.33048900  0.71454300  1
  H  696  1  0.49438300  0.29244800  0.71234300  1
  H  699  1  0.49783400  0.28749400  0.82989400  1
  H  700  1  0.49754500  0.31089200  0.84576100  1
  H  702  1  0.46583200  0.36066100  0.73998800  1
  H  703  1  0.52014800  0.36195500  0.73975700  1
  H  705  1  0.46777700  0.25892300  0.73454300  1
  H  706  1  0.49232400  0.25547300  0.75933500  1
  H  708  1  0.48508200  0.38859000  0.84333900  1
  H  709  1  0.45477000  0.40771100  0.83066500  1
  H  711  1  0.34933100  0.34871200  0.78336300  1
  H  712  1  0.33032100  0.34634000  0.80924100  1
  H  714  1  0.64460300  0.34759000  0.78067200  1
  H  715  1  0.66281600  0.34760900  0.80683400  1
  H  740  1  0.63759100  0.61165900  0.09471600  1
  H  741  1  0.57426800  0.62502900  0.08087000  1
  H  742  1  0.42122200  0.62559700  0.08032800  1
  H  743  1  0.35727900  0.61228000  0.09354900  1
  H  744  1  0.41823400  0.58426500  0.14548000  1
  H  745  1  0.57454100  0.58356700  0.14599300  1
  H  746  1  0.49611000  0.56599800  0.10129400  1
  H  747  1  0.47971900  0.50814000  0.13398000  1
  H  748  1  0.48539100  0.52632200  0.16727700  1
  H  749  1  0.49712800  0.63556900  0.14488300  1
  H  750  1  0.49465900  0.59318000  0.20947600  1
  H  751  1  0.49493200  0.63121700  0.21180400  1
  H  754  1  0.49785200  0.63652500  0.09421200  1
  H  755  1  0.49758500  0.61316100  0.07829600  1
  H  757  1  0.46620600  0.56309000  0.18397700  1
  H  758  1  0.52052200  0.56180400  0.18410000  1
  H  760  1  0.46789300  0.66473500  0.18986400  1
  H  761  1  0.49185500  0.66832400  0.16494100  1
  H  763  1  0.48498300  0.53552800  0.08048600  1
  H  764  1  0.45472100  0.51635900  0.09312000  1
  H  766  1  0.34942000  0.57519900  0.14066900  1
  H  767  1  0.33052000  0.57749100  0.11476300  1
  H  769  1  0.64470500  0.57636200  0.14329100  1
  H  770  1  0.66282800  0.57634200  0.11711300  1
  H  795  1  0.63753600  0.82896600  0.61164600  1
  H  796  1  0.57420700  0.84281000  0.62500900  1
  H  797  1  0.42117300  0.84334800  0.62558400  1
  H  798  1  0.35721500  0.83012000  0.61229600  1
  H  799  1  0.41816300  0.77822100  0.58421300  1
  H  800  1  0.57448900  0.77771000  0.58351100  1
  H  801  1  0.49614400  0.82240500  0.56593500  1
  H  802  1  0.47966700  0.78972300  0.50808000  1
  H  803  1  0.48528400  0.75642500  0.52626200  1
  H  804  1  0.49699600  0.77880900  0.63550400  1
  H  805  1  0.49476000  0.71422200  0.59310900  1
  H  806  1  0.49504500  0.71188900  0.63114600  1
  H  809  1  0.49779100  0.82946000  0.63648900  1
  H  810  1  0.49753000  0.84539500  0.61313600  1
  H  812  1  0.46616000  0.73971900  0.56303200  1
  H  813  1  0.52047600  0.73960400  0.56173100  1
  H  815  1  0.46790600  0.73374100  0.66464300  1
  H  816  1  0.49154200  0.75874400  0.66824300  1
  H  818  1  0.48521000  0.84322300  0.53544900  1
  H  819  1  0.45485000  0.83062800  0.51629800  1
  H  821  1  0.34928800  0.78298900  0.57522700  1
  H  822  1  0.33040700  0.80890100  0.57749300  1
  H  824  1  0.64466800  0.78039300  0.57634400  1
  H  825  1  0.66278600  0.80657400  0.57631500  1
  H  850  1  0.63762800  0.09440100  0.31232200  1
  H  851  1  0.57431400  0.08050100  0.29898000  1
  H  852  1  0.42123400  0.07993900  0.29839100  1
  H  853  1  0.35727300  0.09320300  0.31165200  1
  H  854  1  0.41822800  0.14516400  0.33960200  1
  H  855  1  0.57450400  0.14572400  0.34028600  1
  H  856  1  0.49615900  0.10107500  0.35798900  1
  H  857  1  0.47977400  0.13394800  0.41573700  1
  H  858  1  0.48535800  0.16718700  0.39744300  1
  H  859  1  0.49727900  0.14440900  0.28826700  1
  H  860  1  0.49390400  0.20914800  0.33041500  1
  H  861  1  0.49414700  0.21133600  0.29237300  1
  H  864  1  0.49786800  0.09379500  0.28745300  1
  H  865  1  0.49762500  0.07793000  0.31085200  1
  H  867  1  0.46593300  0.18370800  0.36062600  1
  H  868  1  0.52024900  0.18394900  0.36186600  1
  H  870  1  0.46763600  0.18903000  0.25882700  1
  H  871  1  0.49253900  0.16432900  0.25539700  1
  H  873  1  0.48494300  0.08036900  0.38850600  1
  H  874  1  0.45472400  0.09308000  0.40764100  1
  H  876  1  0.34944800  0.14032400  0.34873200  1
  H  877  1  0.33039100  0.11446000  0.34634800  1
  H  879  1  0.64462200  0.14301700  0.34757100  1
  H  880  1  0.66285300  0.11686000  0.34756100  1
  H  887  1  0.05501400  0.18952600  0.16540400  1
  H  888  1  0.01451700  0.23856300  0.20638100  1
  H  889  1  0.01249900  0.21352500  0.23573000  1
  H  890  1  0.05363100  0.16467300  0.19471900  1
  H  892  1  0.05743200  0.24188200  0.16825900  1
  H  894  1  0.05126800  0.17657000  0.24657800  1
  H  901  1  0.05553600  0.73432600  0.75815500  1
  H  902  1  0.01415900  0.68526300  0.71744700  1
  H  903  1  0.01218500  0.71019700  0.68801300  1
  H  904  1  0.05421200  0.75907300  0.72875000  1
  H  906  1  0.05731500  0.68197400  0.75552700  1
  H  908  1  0.05120900  0.74700700  0.67693500  1
  H  915  1  0.05453000  0.75854100  0.18946500  1
  H  916  1  0.01472900  0.71737000  0.23849400  1
  H  917  1  0.01276200  0.68807000  0.21339600  1
  H  918  1  0.05319000  0.72928000  0.16455000  1
  H  920  1  0.05740000  0.75555100  0.24182000  1
  H  922  1  0.05139900  0.67739300  0.17634500  1
  H  929  1  0.05607600  0.16582100  0.73428100  1
  H  930  1  0.01388500  0.20626700  0.68518800  1
  H  931  1  0.01189100  0.23578000  0.71002700  1
  H  932  1  0.05474300  0.19530900  0.75893100  1
  H  934  1  0.05728500  0.16824300  0.68193000  1
  H  936  1  0.05108900  0.24707900  0.74670600  1
  H  943  1  0.54811600  0.69189700  0.66666667  1
  H  944  1  0.51301000  0.74072300  0.70919400  1
  H  945  1  0.51142400  0.71517300  0.73811800  1
  H  946  1  0.54711600  0.66653200  0.69555000  1
  H  948  1  0.55560100  0.74395900  0.67093100  1
  H  950  1  0.55084300  0.67784000  0.74735900  1
  H  957  1  0.54417400  0.23197100  0.25801600  1
  H  958  1  0.51579800  0.18311300  0.21421800  1
  H  959  1  0.51417800  0.20906300  0.18563900  1
  H  960  1  0.54307900  0.25773800  0.22954100  1
  H  962  1  0.55594200  0.17997900  0.25295400  1
  H  964  1  0.55138300  0.24723600  0.17762700  1
  H  971  1  0.54552700  0.25779500  0.69192000  1
  H  972  1  0.51494500  0.21436600  0.74074600  1
  H  973  1  0.51331600  0.18569900  0.71489900  1
  H  974  1  0.54443500  0.22922300  0.66625300  1
  H  976  1  0.55590500  0.25294900  0.74394100  1
  H  978  1  0.55126700  0.17732600  0.67697600  1
  H  985  1  0.54725400  0.66650300  0.23199800  1
  H  986  1  0.51365100  0.70931800  0.18316400  1
  H  987  1  0.51201300  0.73815100  0.20882000  1
  H  988  1  0.54618600  0.69525800  0.25746900  1
  H  990  1  0.55574200  0.67095500  0.17995400  1
  H  992  1  0.55095400  0.74709300  0.24635700  1
  H  999  1  0.79691900  0.09696000  0.33247900  1
  H  1000  1  0.74691000  0.09722100  0.27045600  1
  H  1001  1  0.69212800  0.12000600  0.28247100  1
  H  1002  1  0.74285500  0.12018600  0.34435900  1
  H  1004  1  0.82148500  0.07206300  0.30319500  1
  H  1006  1  0.66966600  0.14561900  0.30970000  1
  H  1013  1  0.79673200  0.82668800  0.59128500  1
  H  1014  1  0.74692300  0.82641200  0.65335100  1
  H  1015  1  0.69222000  0.80354200  0.64140400  1
  H  1016  1  0.74275100  0.80337800  0.57947500  1
  H  1018  1  0.82131700  0.85161900  0.62051100  1
  H  1020  1  0.66973700  0.77789400  0.61422600  1
  H  1027  1  0.79678800  0.59130000  0.09702400  1
  H  1028  1  0.74697500  0.65336500  0.09728900  1
  H  1029  1  0.69226900  0.64142100  0.12015900  1
  H  1030  1  0.74279700  0.57949000  0.12033300  1
  H  1032  1  0.82136000  0.62051900  0.07208500  1
  H  1034  1  0.66978600  0.61424100  0.14580900  1
  H  1041  1  0.79688300  0.33250800  0.82676100  1
  H  1042  1  0.74689500  0.27048000  0.82651300  1
  H  1043  1  0.69208500  0.28249100  0.80374600  1
  H  1044  1  0.74279300  0.34438100  0.80355100  1
  H  1046  1  0.82151600  0.30323000  0.85164000  1
  H  1048  1  0.66960200  0.30970600  0.77813000  1
  H  1055  1  0.19600200  0.82034900  0.33653400  1
  H  1056  1  0.25033300  0.82364800  0.27559600  1
  H  1057  1  0.30454800  0.80035400  0.28737900  1
  H  1058  1  0.24956500  0.79664100  0.34815600  1
  H  1060  1  0.17443100  0.84739800  0.30803800  1
  H  1062  1  0.32409600  0.77275000  0.31346800  1
  H  1069  1  0.19594200  0.10358900  0.58739900  1
  H  1070  1  0.25044000  0.10024100  0.64829300  1
  H  1071  1  0.30465300  0.12352000  0.63648000  1
  H  1072  1  0.24951700  0.12727600  0.57574500  1
  H  1074  1  0.17447100  0.07650800  0.61587400  1
  H  1076  1  0.32417600  0.15113400  0.61037300  1
  H  1083  1  0.19602800  0.33652900  0.10351900  1
  H  1084  1  0.25042600  0.27560900  0.10023100  1
  H  1085  1  0.30464100  0.28741400  0.12351400  1
  H  1086  1  0.24959100  0.34817700  0.12721700  1
  H  1088  1  0.17454400  0.30803500  0.07645000  1
  H  1090  1  0.32423700  0.31353600  0.15108800  1
  H  1097  1  0.19595000  0.58741800  0.82030600  1
  H  1098  1  0.25033600  0.64834300  0.82357600  1
  H  1099  1  0.30454200  0.63653400  0.80029000  1
  H  1100  1  0.24951100  0.57576900  0.79661000  1
  H  1102  1  0.17442400  0.61592200  0.84735300  1
  H  1104  1  0.32401300  0.61043200  0.77267500  1
  H  1111  1  0.19401900  0.82457300  0.59581500  1
  H  1112  1  0.25041100  0.82281600  0.65632000  1
  H  1113  1  0.30568400  0.80182500  0.64180800  1
  H  1114  1  0.24860000  0.80308300  0.58144300  1
  H  1116  1  0.17240200  0.84846800  0.62766300  1
  H  1118  1  0.32504100  0.77687500  0.61283000  1
  H  1125  1  0.19384400  0.09923800  0.32796800  1
  H  1126  1  0.25055200  0.10081700  0.26753400  1
  H  1127  1  0.30594500  0.12168000  0.28210800  1
  H  1128  1  0.24854700  0.12060700  0.34239700  1
  H  1130  1  0.17228100  0.07532500  0.29608900  1
  H  1132  1  0.32533900  0.14662900  0.31112100  1
  H  1139  1  0.19388000  0.32790400  0.82461500  1
  H  1140  1  0.25052100  0.26745900  0.82286200  1
  H  1141  1  0.30586600  0.28206100  0.80198500  1
  H  1142  1  0.24852900  0.34236400  0.80322600  1
  H  1144  1  0.17231900  0.29597300  0.84846000  1
  H  1146  1  0.32522500  0.31110200  0.77708600  1
  H  1153  1  0.19395400  0.59576700  0.09925300  1
  H  1154  1  0.25044800  0.65625200  0.10087300  1
  H  1155  1  0.30576900  0.64174500  0.12183300  1
  H  1156  1  0.24859100  0.58140200  0.12070900  1
  H  1158  1  0.17236800  0.62759500  0.07529800  1
  H  1160  1  0.32507200  0.61277500  0.14684800  1
  H  1167  1  0.79761300  0.10801200  0.58827500  1
  H  1168  1  0.74688600  0.09789700  0.64931100  1
  H  1169  1  0.69148400  0.12185200  0.64085600  1
  H  1170  1  0.74292800  0.13239600  0.58003100  1
  H  1172  1  0.82225800  0.07863600  0.61381400  1
  H  1174  1  0.66895500  0.15150000  0.61810900  1
  H  1181  1  0.79745300  0.81563100  0.33577500  1
  H  1182  1  0.74685500  0.82590400  0.27473600  1
  H  1183  1  0.69145000  0.80191500  0.28309000  1
  H  1184  1  0.74278100  0.79120600  0.34391500  1
  H  1186  1  0.82214500  0.84507400  0.31031600  1
  H  1188  1  0.66882600  0.77222700  0.30574900  1
  H  1195  1  0.79749600  0.58817100  0.81552700  1
  H  1196  1  0.74686400  0.64918400  0.82589300  1
  H  1197  1  0.69143100  0.64084800  0.80191500  1
  H  1198  1  0.74279300  0.58004700  0.79111300  1
  H  1200  1  0.82220000  0.61359500  0.84499800  1
  H  1202  1  0.66879200  0.61822100  0.77220500  1
  H  1209  1  0.79755400  0.33570400  0.10791300  1
  H  1210  1  0.74696200  0.27464200  0.09778100  1
  H  1211  1  0.69154800  0.28305300  0.12174200  1
  H  1212  1  0.74286700  0.34390300  0.13230700  1
  H  1214  1  0.82228300  0.31018300  0.07854200  1
  H  1216  1  0.66896100  0.30577400  0.15139000  1
  H  1223  1  0.95832800  0.97984600  0.34502200  1
  H  1224  1  0.03359400  0.97292000  0.29075100  1
  H  1225  1  0.04952300  0.93698800  0.30126900  1
  H  1226  1  0.97348800  0.94367800  0.35523200  1
  H  1228  1  0.95699700  0.00582300  0.31617700  1
  H  1230  1  0.04821000  0.91013100  0.33129800  1
  H  1237  1  0.95810700  0.94406400  0.57904800  1
  H  1238  1  0.03371200  0.95093700  0.63319800  1
  H  1239  1  0.04969000  0.98685300  0.62264600  1
  H  1240  1  0.97331700  0.98021800  0.56880600  1
  H  1242  1  0.95688600  0.91808400  0.60788400  1
  H  1244  1  0.04821300  0.01373400  0.59267600  1
  H  1251  1  0.95818100  0.57874000  0.97970100  1
  H  1252  1  0.03355200  0.63298200  0.97286100  1
  H  1253  1  0.04945100  0.62252000  0.93691200  1
  H  1254  1  0.97331400  0.56858300  0.94351200  1
  H  1256  1  0.95693200  0.60753600  0.00573400  1
  H  1258  1  0.04806700  0.59253900  0.91000200  1
  H  1265  1  0.95811300  0.34466100  0.94389800  1
  H  1266  1  0.03365800  0.29050400  0.95088400  1
  H  1267  1  0.04967000  0.30113000  0.98677300  1
  H  1268  1  0.97335000  0.35498000  0.98002600  1
  H  1270  1  0.95684900  0.31575200  0.91799000  1
  H  1272  1  0.04824900  0.33116900  0.01358400  1
  H  1279  1  0.45976700  0.48065700  0.84524800  1
  H  1280  1  0.53054100  0.47208800  0.78957400  1
  H  1281  1  0.54649300  0.43626600  0.80053200  1
  H  1282  1  0.47485100  0.44459100  0.85589500  1
  H  1284  1  0.45647600  0.50579500  0.81558700  1
  H  1286  1  0.54666200  0.41008500  0.83161600  1
  H  1293  1  0.45982500  0.44347100  0.07802700  1
  H  1294  1  0.53056900  0.45172200  0.13375900  1
  H  1295  1  0.54643800  0.48762400  0.12303800  1
  H  1296  1  0.47483600  0.47961300  0.06761400  1
  H  1298  1  0.45662600  0.41810900  0.10749100  1
  H  1300  1  0.54661300  0.51398200  0.09208500  1
  H  1307  1  0.45983500  0.07811100  0.48056700  1
  H  1308  1  0.53052000  0.13384100  0.47216300  1
  H  1309  1  0.54640400  0.12302900  0.43629200  1
  H  1310  1  0.47485700  0.06760500  0.44445000  1
  H  1312  1  0.45660400  0.10766100  0.50583600  1
  H  1314  1  0.54661300  0.09198800  0.41002100  1
  H  1321  1  0.45976400  0.84534200  0.44338700  1
  H  1322  1  0.53065500  0.78968300  0.45178400  1
  H  1323  1  0.54662200  0.80054900  0.48763000  1
  H  1324  1  0.47486000  0.85589800  0.47947500  1
  H  1326  1  0.45654300  0.81577600  0.41815000  1
  H  1328  1  0.54673600  0.83153600  0.51390600  1
  H  1353  1  0.07243610  0.11490700  0.81209600  1
  H  1354  1  0.13634800  0.12227900  0.82903500  1
  H  1355  1  0.28864400  0.12549200  0.82707700  1
  H  1356  1  0.35187300  0.12077500  0.80849100  1
  H  1357  1  0.29045400  0.08786000  0.75968600  1
  H  1358  1  0.13386300  0.08357200  0.76226300  1
  H  1359  1  0.21893200  0.06054100  0.80344500  1
  H  1360  1  0.22897100  0.00741800  0.76275400  1
  H  1361  1  0.22061900  0.02997500  0.73244100  1
  H  1362  1  0.20876300  0.13520800  0.76897100  1
  H  1363  1  0.20570500  0.10129200  0.69958800  1
  H  1364  1  0.20349900  0.13930900  0.70212300  1
  H  1367  1  0.21116500  0.13172300  0.81810200  1
  H  1368  1  0.21419300  0.10686800  0.83149900  1
  H  1370  1  0.23820100  0.06870600  0.72014700  1
  H  1371  1  0.18402000  0.06672100  0.72163600  1
  H  1373  1  0.20215300  0.17000000  0.75342100  1
  H  1374  1  0.18113600  0.17060600  0.72760400  1
  H  1376  1  0.22862800  0.02592700  0.81967900  1
  H  1377  1  0.26102400  0.01072300  0.80312300  1
  H  1379  1  0.37815200  0.11652200  0.76691600  1
  H  1380  1  0.36109100  0.09273700  0.75546300  1
  H  1382  1  0.04642510  0.10972200  0.76917900  1
  H  1383  1  0.06211010  0.08457000  0.76038800  1
  H  1408  1  0.07245810  0.80893600  0.10103000  1
  H  1409  1  0.13638800  0.80160400  0.08410040  1
  H  1410  1  0.28866200  0.79842200  0.08607240  1
  H  1411  1  0.35188700  0.80312800  0.10466600  1
  H  1412  1  0.29042900  0.83596600  0.15351500  1
  H  1413  1  0.13380200  0.84019600  0.15093600  1
  H  1414  1  0.21883300  0.86333600  0.10982900  1
  H  1415  1  0.22886100  0.91636900  0.15063900  1
  H  1416  1  0.22055600  0.89373800  0.18090300  1
  H  1417  1  0.20876300  0.78859200  0.14412200  1
  H  1418  1  0.20586500  0.82232600  0.21359300  1
  H  1419  1  0.20369600  0.78431500  0.21096300  1
  H  1422  1  0.21119300  0.79216100  0.09503440  1
  H  1423  1  0.21420200  0.81703500  0.08167340  1
  H  1425  1  0.23823200  0.85498400  0.19309300  1
  H  1426  1  0.18404100  0.85694500  0.19164400  1
  H  1428  1  0.20214000  0.75377200  0.15957500  1
  H  1429  1  0.18124300  0.75308600  0.18541300  1
  H  1431  1  0.22849100  0.89798700  0.09367340  1
  H  1432  1  0.26092800  0.91313800  0.11025600  1
  H  1434  1  0.37807800  0.80733200  0.14629800  1
  H  1435  1  0.36110000  0.83115900  0.15769900  1
  H  1437  1  0.04645610  0.81405400  0.14400600  1
  H  1438  1  0.06201510  0.83924800  0.15274100  1
  H  1463  1  0.07242710  0.60638900  0.60954900  1
  H  1464  1  0.13633300  0.58944800  0.61692300  1
  H  1465  1  0.28861500  0.59138800  0.62011800  1
  H  1466  1  0.35185200  0.60996200  0.61539000  1
  H  1467  1  0.29045100  0.65875900  0.58244800  1
  H  1468  1  0.13384500  0.65618800  0.57816100  1
  H  1469  1  0.21891100  0.61498200  0.55514900  1
  H  1470  1  0.22893400  0.65563800  0.50199600  1
  H  1471  1  0.22057800  0.68596500  0.52453200  1
  H  1472  1  0.20881600  0.64952600  0.62979900  1
  H  1473  1  0.20557900  0.71887000  0.59581000  1
  H  1474  1  0.20339800  0.71637600  0.63382800  1
  H  1477  1  0.21114700  0.60038000  0.62634700  1
  H  1478  1  0.21416600  0.58696200  0.60150400  1
  H  1480  1  0.23814000  0.69829400  0.56325000  1
  H  1481  1  0.18395800  0.69678600  0.56126600  1
  H  1483  1  0.20230300  0.66511700  0.66458700  1
  H  1484  1  0.18111800  0.69090000  0.66515800  1
  H  1486  1  0.22854300  0.59872600  0.52053600  1
  H  1487  1  0.26096300  0.61526000  0.50532200  1
  H  1489  1  0.37809700  0.65156000  0.61112000  1
  H  1490  1  0.36111200  0.66295600  0.58729300  1
  H  1492  1  0.04647810  0.64934400  0.60433000  1
  H  1493  1  0.06208310  0.65804700  0.57913400  1
  H  1518  1  0.07244810  0.31746800  0.30359000  1
  H  1519  1  0.13639700  0.33439700  0.29626100  1
  H  1520  1  0.28869400  0.33241100  0.29305900  1
  H  1521  1  0.35189600  0.31380400  0.29774500  1
  H  1522  1  0.29043300  0.26492700  0.33052400  1
  H  1523  1  0.13382300  0.26750200  0.33475900  1
  H  1524  1  0.21881200  0.30858100  0.35793900  1
  H  1525  1  0.22883300  0.26770800  0.41092200  1
  H  1526  1  0.22056700  0.23746800  0.38825300  1
  H  1527  1  0.20874200  0.27439800  0.28315900  1
  H  1528  1  0.20603300  0.20486900  0.31677900  1
  H  1529  1  0.20384600  0.20756200  0.27876800  1
  H  1532  1  0.21123000  0.32346000  0.28678300  1
  H  1533  1  0.21420900  0.33679600  0.31167300  1
  H  1535  1  0.23832200  0.22533900  0.34947800  1
  H  1536  1  0.18413000  0.22675400  0.35143500  1
  H  1538  1  0.20203300  0.25901000  0.24832800  1
  H  1539  1  0.18129600  0.23314200  0.24758800  1
  H  1541  1  0.22847000  0.32469700  0.39260100  1
  H  1542  1  0.26090300  0.30809400  0.40773400  1
  H  1544  1  0.37813600  0.27221600  0.30189700  1
  H  1545  1  0.36107500  0.26070900  0.32565500  1
  H  1547  1  0.04636410  0.27451900  0.30867400  1
  H  1548  1  0.06204610  0.26570100  0.33381900  1
  H  1573  1  0.35349000  0.80077500  0.81336800  1
  H  1574  1  0.29019600  0.79232700  0.83046200  1
  H  1575  1  0.13767300  0.79202600  0.83115000  1
  H  1576  1  0.07372510  0.80015900  0.81452000  1
  H  1577  1  0.13424100  0.83862300  0.76964700  1
  H  1578  1  0.29113500  0.83955400  0.76939400  1
  H  1579  1  0.21229400  0.85750700  0.81582200  1
  H  1580  1  0.19623200  0.91635500  0.78481900  1
  H  1581  1  0.20181800  0.89917000  0.75103600  1
  H  1582  1  0.21295700  0.78939600  0.76998300  1
  H  1583  1  0.21227600  0.83375100  0.70673300  1
  H  1584  1  0.21259500  0.79576100  0.70325600  1
  H  1587  1  0.21395700  0.78578900  0.81999200  1
  H  1588  1  0.21383100  0.80871600  0.83654500  1
  H  1590  1  0.18297100  0.86301900  0.73311100  1
  H  1591  1  0.23728500  0.86434500  0.73325600  1
  H  1593  1  0.18561200  0.76167400  0.72343700  1
  H  1594  1  0.20607900  0.75748000  0.74909300  1
  H  1596  1  0.20288300  0.88773100  0.83754700  1
  H  1597  1  0.17126400  0.90677500  0.82560400  1
  H  1599  1  0.04742910  0.81006100  0.77312700  1
  H  1600  1  0.06308010  0.83580800  0.76629400  1
  H  1602  1  0.37886600  0.81106700  0.77215000  1
  H  1603  1  0.36237600  0.83667100  0.76530600  1
  H  1628  1  0.35345600  0.12313800  0.10006400  1
  H  1629  1  0.29009200  0.13161400  0.08304740  1
  H  1630  1  0.13758400  0.13186800  0.08245640  1
  H  1631  1  0.07367910  0.12365400  0.09908340  1
  H  1632  1  0.13432000  0.08512800  0.14384900  1
  H  1633  1  0.29124800  0.08424300  0.14400200  1
  H  1634  1  0.21227900  0.06636200  0.09761040  1
  H  1635  1  0.19629600  0.00746600  0.12852600  1
  H  1636  1  0.20203600  0.02458400  0.16233100  1
  H  1637  1  0.21285900  0.13438700  0.14357100  1
  H  1638  1  0.21297800  0.08991500  0.20674200  1
  H  1639  1  0.21323300  0.12790300  0.21029100  1
  H  1642  1  0.21388000  0.13810900  0.09359540  1
  H  1643  1  0.21373600  0.11522600  0.07698340  1
  H  1645  1  0.18338800  0.06069200  0.18037700  1
  H  1646  1  0.23770300  0.05937500  0.18010200  1
  H  1648  1  0.18590000  0.16195900  0.19034500  1
  H  1649  1  0.20560700  0.16622100  0.16454300  1
  H  1651  1  0.20293500  0.03616500  0.07583740  1
  H  1652  1  0.17127700  0.01711800  0.08774940  1
  H  1654  1  0.04739210  0.11361400  0.14045200  1
  H  1655  1  0.06313810  0.08786100  0.14720400  1
  H  1657  1  0.37894500  0.11276000  0.14124500  1
  H  1658  1  0.36251300  0.08712800  0.14803200  1
  H  1683  1  0.35346600  0.31866300  0.61773100  1
  H  1684  1  0.29013400  0.33572800  0.62615000  1
  H  1685  1  0.13761200  0.33635100  0.62637900  1
  H  1686  1  0.07369110  0.31971000  0.61819800  1
  H  1687  1  0.13435100  0.27484800  0.57977800  1
  H  1688  1  0.29124700  0.27465900  0.57892800  1
  H  1689  1  0.21235900  0.32103600  0.56093000  1
  H  1690  1  0.19627800  0.29000800  0.50209500  1
  H  1691  1  0.20194700  0.25623300  0.51928900  1
  H  1692  1  0.21299700  0.27521900  0.62905300  1
  H  1693  1  0.21260700  0.21195600  0.58471700  1
  H  1694  1  0.21289300  0.20849200  0.62270700  1
  H  1697  1  0.21390500  0.32522600  0.63265400  1
  H  1698  1  0.21378500  0.34177300  0.60972200  1
  H  1700  1  0.18320700  0.23829600  0.55543900  1
  H  1701  1  0.23752100  0.23849600  0.55411800  1
  H  1703  1  0.18575600  0.22863900  0.65676600  1
  H  1704  1  0.20603000  0.25433400  0.66096300  1
  H  1706  1  0.20299600  0.34275100  0.53069500  1
  H  1707  1  0.17131300  0.33081200  0.51167700  1
  H  1709  1  0.04743210  0.27830300  0.60826300  1
  H  1710  1  0.06318110  0.27148700  0.58252800  1
  H  1712  1  0.37890800  0.27744200  0.60745700  1
  H  1713  1  0.36249100  0.27060300  0.58183800  1
  H  1738  1  0.35350000  0.60533700  0.29537600  1
  H  1739  1  0.29019200  0.58826500  0.28689000  1
  H  1740  1  0.13768200  0.58758900  0.28658100  1
  H  1741  1  0.07372510  0.60418600  0.29476100  1
  H  1742  1  0.13424100  0.64901200  0.33328100  1
  H  1743  1  0.29114900  0.64925800  0.33421500  1
  H  1744  1  0.21218400  0.60281200  0.35208700  1
  H  1745  1  0.19616500  0.63373100  0.41098300  1
  H  1746  1  0.20187000  0.66753900  0.39385500  1
  H  1747  1  0.21289600  0.64876000  0.28405400  1
  H  1748  1  0.21265900  0.71194000  0.32851000  1
  H  1749  1  0.21296300  0.71547600  0.29052500  1
  H  1752  1  0.21397500  0.59876100  0.28036200  1
  H  1753  1  0.21382500  0.58216800  0.30326000  1
  H  1755  1  0.18316700  0.68555700  0.35773200  1
  H  1756  1  0.23748000  0.68532900  0.35906400  1
  H  1758  1  0.18578400  0.69546200  0.25644400  1
  H  1759  1  0.20576300  0.66971400  0.25219800  1
  H  1761  1  0.20272900  0.58104400  0.38227100  1
  H  1762  1  0.17112300  0.59297000  0.40133300  1
  H  1764  1  0.04738310  0.64556500  0.30474900  1
  H  1765  1  0.06305810  0.65233800  0.33050800  1
  H  1767  1  0.37888400  0.64652900  0.30573500  1
  H  1768  1  0.36238400  0.65334600  0.33134500  1
  H  1793  1  0.57173700  0.60299400  0.31972900  1
  H  1794  1  0.63534800  0.61538100  0.33416500  1
  H  1795  1  0.78799000  0.61782400  0.33255700  1
  H  1796  1  0.85170800  0.60776100  0.31657900  1
  H  1797  1  0.78909400  0.58672400  0.26190700  1
  H  1798  1  0.63275900  0.58222800  0.26446700  1
  H  1799  1  0.71815100  0.55992600  0.30393400  1
  H  1800  1  0.72750400  0.50796200  0.26177500  1
  H  1801  1  0.71811100  0.53132800  0.23212400  1
  H  1802  1  0.70857100  0.63566500  0.27155400  1
  H  1803  1  0.70187700  0.60340800  0.20142600  1
  H  1804  1  0.70032200  0.64131200  0.20484400  1
  H  1807  1  0.71008000  0.62949600  0.32132200  1
  H  1808  1  0.71271800  0.60425300  0.33398600  1
  H  1810  1  0.73502300  0.57034000  0.22071700  1
  H  1811  1  0.68089100  0.56843100  0.22274900  1
  H  1813  1  0.70368700  0.67103000  0.25661400  1
  H  1814  1  0.67906000  0.67205800  0.23167500  1
  H  1816  1  0.72925900  0.52515500  0.31915100  1
  H  1817  1  0.76050900  0.51012600  0.30183700  1
  H  1819  1  0.85948500  0.58014900  0.26325400  1
  H  1820  1  0.87763300  0.57616600  0.28912200  1
  H  1822  1  0.56358900  0.57263800  0.26811400  1
  H  1823  1  0.54528200  0.57110900  0.29420800  1
  H  1848  1  0.57172800  0.32084900  0.59342800  1
  H  1849  1  0.63530500  0.30842100  0.57899600  1
  H  1850  1  0.78794700  0.30595300  0.58052600  1
  H  1851  1  0.85170800  0.31605700  0.59642900  1
  H  1852  1  0.78921700  0.33733800  0.65105100  1
  H  1853  1  0.63289700  0.34190600  0.64853300  1
  H  1854  1  0.71832600  0.36397800  0.60886200  1
  H  1855  1  0.72787500  0.41618100  0.65071700  1
  H  1856  1  0.71839300  0.39300600  0.68050100  1
  H  1857  1  0.70881000  0.28840700  0.64177400  1
  H  1858  1  0.70099700  0.32121500  0.71162000  1
  H  1859  1  0.69929100  0.28330100  0.70848400  1
  H  1862  1  0.71004600  0.29436200  0.59184000  1
  H  1863  1  0.71270300  0.31955700  0.57907900  1
  H  1865  1  0.73487600  0.35404600  0.69219300  1
  H  1866  1  0.68077800  0.35605900  0.69002300  1
  H  1868  1  0.70424500  0.25309200  0.65703600  1
  H  1869  1  0.67872800  0.25229800  0.68176100  1
  H  1871  1  0.72932000  0.39868800  0.59343600  1
  H  1872  1  0.76064700  0.41382100  0.61061900  1
  H  1874  1  0.85963800  0.34384900  0.64965200  1
  H  1875  1  0.87768500  0.34777000  0.62375400  1
  H  1877  1  0.56366900  0.35137500  0.64495600  1
  H  1878  1  0.54527800  0.35282500  0.61887400  1
  H  1903  1  0.57173100  0.09877800  0.09774040  1
  H  1904  1  0.63531500  0.08435000  0.11017100  1
  H  1905  1  0.78794400  0.08589000  0.11264600  1
  H  1906  1  0.85169900  0.10179000  0.10253500  1
  H  1907  1  0.78921400  0.15642300  0.08128440  1
  H  1908  1  0.63287900  0.15391500  0.07674340  1
  H  1909  1  0.71830100  0.11428400  0.05463940  1
  H  1910  1  0.72779000  0.15619000  0.00247743  1
  H  1911  1  0.71832600  0.18595300  0.02568640  1
  H  1912  1  0.70876100  0.14708900  0.13023500  1
  H  1913  1  0.70129700  0.21699700  0.09754440  1
  H  1914  1  0.69965300  0.21380600  0.13545800  1
  H  1917  1  0.71004300  0.09719700  0.12424700  1
  H  1918  1  0.71270300  0.08445100  0.09904740  1
  H  1920  1  0.73494600  0.19759000  0.06465340  1
  H  1921  1  0.68083600  0.19545600  0.06267640  1
  H  1923  1  0.70408900  0.16228000  0.16555400  1
  H  1924  1  0.67886900  0.18708000  0.16640000  1
  H  1926  1  0.72933600  0.09889400  0.01992640  1
  H  1927  1  0.76062900  0.11610600  0.00480643  1
  H  1929  1  0.85962000  0.15500000  0.07472240  1
  H  1930  1  0.87768500  0.12910000  0.07083940  1
  H  1932  1  0.56366300  0.15031800  0.06724040  1
  H  1933  1  0.54529100  0.12423200  0.06577340  1
  H  1958  1  0.57174900  0.82508700  0.81559500  1
  H  1959  1  0.63536400  0.83951100  0.80320000  1
  H  1960  1  0.78801700  0.83789800  0.80076500  1
  H  1961  1  0.85172000  0.82192700  0.81084500  1
  H  1962  1  0.78908800  0.76727500  0.83192700  1
  H  1963  1  0.63278100  0.76985400  0.83643400  1
  H  1964  1  0.71821800  0.80935300  0.85868600  1
  H  1965  1  0.72756300  0.76725900  0.91070500  1
  H  1966  1  0.71812000  0.73758100  0.88738100  1
  H  1967  1  0.70860100  0.77685100  0.78298200  1
  H  1968  1  0.70160700  0.70679000  0.81536800  1
  H  1969  1  0.70002700  0.71014100  0.77746000  1
  H  1972  1  0.71008300  0.82666100  0.78910500  1
  H  1973  1  0.71275800  0.83934400  0.81433700  1
  H  1975  1  0.73493100  0.72610400  0.84838000  1
  H  1976  1  0.68080800  0.72818300  0.85031400  1
  H  1978  1  0.70380300  0.76183400  0.74762600  1
  H  1979  1  0.67895200  0.73694700  0.74665200  1
  H  1981  1  0.72928000  0.82461500  0.89345000  1
  H  1982  1  0.76056100  0.80732800  0.90849000  1
  H  1984  1  0.85948500  0.76863200  0.83851000  1
  H  1985  1  0.87761500  0.79450700  0.84246600  1
  H  1987  1  0.56359200  0.77348100  0.84597900  1
  H  1988  1  0.54526900  0.79957200  0.84750100  1
  H  2013  1  0.85230000  0.31236400  0.32399300  1
  H  2014  1  0.78898700  0.29902700  0.33788900  1
  H  2015  1  0.63592500  0.29839700  0.33843300  1
  H  2016  1  0.57195800  0.31165000  0.32517700  1
  H  2017  1  0.63287900  0.33964000  0.27322600  1
  H  2018  1  0.78918600  0.34034800  0.27267200  1
  H  2019  1  0.71086500  0.35804500  0.31731800  1
  H  2020  1  0.69433000  0.41578400  0.28444500  1
  H  2021  1  0.69988000  0.39749000  0.25120800  1
  H  2022  1  0.71197000  0.28832200  0.27396400  1
  H  2023  1  0.70878200  0.33048900  0.20923500  1
  H  2024  1  0.70912000  0.29244800  0.20703500  1
  H  2027  1  0.71257100  0.28749400  0.32458600  1
  H  2028  1  0.71228200  0.31089200  0.34045300  1
  H  2030  1  0.68056900  0.36066100  0.23468000  1
  H  2031  1  0.73488500  0.36195500  0.23444900  1
  H  2033  1  0.68251400  0.25892300  0.22923500  1
  H  2034  1  0.70706100  0.25547300  0.25402700  1
  H  2036  1  0.69981900  0.38859000  0.33803100  1
  H  2037  1  0.66950700  0.40771100  0.32535700  1
  H  2039  1  0.56406800  0.34871200  0.27805500  1
  H  2040  1  0.54505800  0.34634000  0.30393300  1
  H  2042  1  0.85934000  0.34759000  0.27536400  1
  H  2043  1  0.87755300  0.34760900  0.30152600  1
  H  2068  1  0.85232800  0.61165900  0.58940800  1
  H  2069  1  0.78900500  0.62502900  0.57556200  1
  H  2070  1  0.63595900  0.62559700  0.57502000  1
  H  2071  1  0.57201600  0.61228000  0.58824100  1
  H  2072  1  0.63297100  0.58426500  0.64017200  1
  H  2073  1  0.78927800  0.58356700  0.64068500  1
  H  2074  1  0.71084700  0.56599800  0.59598600  1
  H  2075  1  0.69445600  0.50814000  0.62867200  1
  H  2076  1  0.70012800  0.52632200  0.66196900  1
  H  2077  1  0.71186500  0.63556900  0.63957500  1
  H  2078  1  0.70939600  0.59318000  0.70416800  1
  H  2079  1  0.70966900  0.63121700  0.70649600  1
  H  2082  1  0.71258900  0.63652500  0.58890400  1
  H  2083  1  0.71232200  0.61316100  0.57298800  1
  H  2085  1  0.68094300  0.56309000  0.67866900  1
  H  2086  1  0.73525900  0.56180400  0.67879200  1
  H  2088  1  0.68263000  0.66473500  0.68455600  1
  H  2089  1  0.70659200  0.66832400  0.65963300  1
  H  2091  1  0.69972000  0.53552800  0.57517800  1
  H  2092  1  0.66945800  0.51635900  0.58781200  1
  H  2094  1  0.56415700  0.57519900  0.63536100  1
  H  2095  1  0.54525700  0.57749100  0.60945500  1
  H  2097  1  0.85944200  0.57636200  0.63798300  1
  H  2098  1  0.87756500  0.57634200  0.61180500  1
  H  2123  1  0.85227300  0.82896600  0.10633800  1
  H  2124  1  0.78894400  0.84281000  0.11970100  1
  H  2125  1  0.63591000  0.84334800  0.12027600  1
  H  2126  1  0.57195200  0.83012000  0.10698800  1
  H  2127  1  0.63290000  0.77822100  0.07890540  1
  H  2128  1  0.78922600  0.77771000  0.07820340  1
  H  2129  1  0.71088100  0.82240500  0.06062740  1
  H  2130  1  0.69440400  0.78972300  0.00277243  1
  H  2131  1  0.70002100  0.75642500  0.02095440  1
  H  2132  1  0.71173300  0.77880900  0.13019600  1
  H  2133  1  0.70949700  0.71422200  0.08780140  1
  H  2134  1  0.70978200  0.71188900  0.12583800  1
  H  2137  1  0.71252800  0.82946000  0.13118100  1
  H  2138  1  0.71226700  0.84539500  0.10782800  1
  H  2140  1  0.68089700  0.73971900  0.05772440  1
  H  2141  1  0.73521300  0.73960400  0.05642340  1
  H  2143  1  0.68264300  0.73374100  0.15933500  1
  H  2144  1  0.70627900  0.75874400  0.16293500  1
  H  2146  1  0.69994700  0.84322300  0.03014140  1
  H  2147  1  0.66958700  0.83062800  0.01099040  1
  H  2149  1  0.56402500  0.78298900  0.06991940  1
  H  2150  1  0.54514400  0.80890100  0.07218540  1
  H  2152  1  0.85940500  0.78039300  0.07103640  1
  H  2153  1  0.87752300  0.80657400  0.07100740  1
  H  2178  1  0.85236500  0.09440100  0.80701400  1
  H  2179  1  0.78905100  0.08050100  0.79367200  1
  H  2180  1  0.63597100  0.07993900  0.79308300  1
  H  2181  1  0.57201000  0.09320300  0.80634400  1
  H  2182  1  0.63296500  0.14516400  0.83429400  1
  H  2183  1  0.78924100  0.14572400  0.83497800  1
  H  2184  1  0.71089600  0.10107500  0.85268100  1
  H  2185  1  0.69451100  0.13394800  0.91042900  1
  H  2186  1  0.70009500  0.16718700  0.89213500  1
  H  2187  1  0.71201600  0.14440900  0.78295900  1
  H  2188  1  0.70864100  0.20914800  0.82510700  1
  H  2189  1  0.70888400  0.21133600  0.78706500  1
  H  2192  1  0.71260500  0.09379500  0.78214500  1
  H  2193  1  0.71236200  0.07793000  0.80554400  1
  H  2195  1  0.68067000  0.18370800  0.85531800  1
  H  2196  1  0.73498600  0.18394900  0.85655800  1
  H  2198  1  0.68237300  0.18903000  0.75351900  1
  H  2199  1  0.70727600  0.16432900  0.75008900  1
  H  2201  1  0.69968000  0.08036900  0.88319800  1
  H  2202  1  0.66946100  0.09308000  0.90233300  1
  H  2204  1  0.56418500  0.14032400  0.84342400  1
  H  2205  1  0.54512800  0.11446000  0.84104000  1
  H  2207  1  0.85935900  0.14301700  0.84226300  1
  H  2208  1  0.87759000  0.11686000  0.84225300  1
  H  2215  1  0.26975100  0.18952600  0.66009600  1
  H  2216  1  0.22925400  0.23856300  0.70107300  1
  H  2217  1  0.22723600  0.21352500  0.73042200  1
  H  2218  1  0.26836800  0.16467300  0.68941100  1
  H  2220  1  0.27216900  0.24188200  0.66295100  1
  H  2222  1  0.26600500  0.17657000  0.74127000  1
  H  2229  1  0.27027300  0.73432600  0.25284700  1
  H  2230  1  0.22889600  0.68526300  0.21213900  1
  H  2231  1  0.22692200  0.71019700  0.18270500  1
  H  2232  1  0.26894900  0.75907300  0.22344200  1
  H  2234  1  0.27205200  0.68197400  0.25021900  1
  H  2236  1  0.26594600  0.74700700  0.17162700  1
  H  2243  1  0.26926700  0.75854100  0.68415700  1
  H  2244  1  0.22946600  0.71737000  0.73318600  1
  H  2245  1  0.22749900  0.68807000  0.70808800  1
  H  2246  1  0.26792700  0.72928000  0.65924200  1
  H  2248  1  0.27213700  0.75555100  0.73651200  1
  H  2250  1  0.26613600  0.67739300  0.67103700  1
  H  2257  1  0.27081300  0.16582100  0.22897300  1
  H  2258  1  0.22862200  0.20626700  0.17988000  1
  H  2259  1  0.22662800  0.23578000  0.20471900  1
  H  2260  1  0.26948000  0.19530900  0.25362300  1
  H  2262  1  0.27202200  0.16824300  0.17662200  1
  H  2264  1  0.26582600  0.24707900  0.24139800  1
  H  2271  1  0.76285300  0.69189700  0.16139100  1
  H  2272  1  0.72774700  0.74072300  0.20388600  1
  H  2273  1  0.72616100  0.71517300  0.23281000  1
  H  2274  1  0.76185300  0.66653200  0.19024200  1
  H  2276  1  0.77033800  0.74395900  0.16562300  1
  H  2278  1  0.76558000  0.67784000  0.24205100  1
  H  2285  1  0.75891100  0.23197100  0.75270800  1
  H  2286  1  0.73053500  0.18311300  0.70891000  1
  H  2287  1  0.72891500  0.20906300  0.68033100  1
  H  2288  1  0.75781600  0.25773800  0.72423300  1
  H  2290  1  0.77067900  0.17997900  0.74764600  1
  H  2292  1  0.76612000  0.24723600  0.67231900  1
  H  2299  1  0.76026400  0.25779500  0.18661200  1
  H  2300  1  0.72968200  0.21436600  0.23543800  1
  H  2301  1  0.72805300  0.18569900  0.20959100  1
  H  2302  1  0.75917200  0.22922300  0.16094500  1
  H  2304  1  0.77064200  0.25294900  0.23863300  1
  H  2306  1  0.76600400  0.17732600  0.17166800  1
  H  2313  1  0.76199100  0.66650300  0.72669000  1
  H  2314  1  0.72838800  0.70931800  0.67785600  1
  H  2315  1  0.72675000  0.73815100  0.70351200  1
  H  2316  1  0.76092300  0.69525800  0.75216100  1
  H  2318  1  0.77047900  0.67095500  0.67464600  1
  H  2320  1  0.76569100  0.74709300  0.74104900  1
  H  2327  1  0.01165610  0.09696000  0.82717100  1
  H  2328  1  0.96164700  0.09722100  0.76514800  1
  H  2329  1  0.90686500  0.12000600  0.77716300  1
  H  2330  1  0.95759200  0.12018600  0.83905100  1
  H  2332  1  0.03622210  0.07206300  0.79788700  1
  H  2334  1  0.88440300  0.14561900  0.80439200  1
  H  2341  1  0.01146910  0.82668800  0.08597740  1
  H  2342  1  0.96166000  0.82641200  0.14804300  1
  H  2343  1  0.90695700  0.80354200  0.13609600  1
  H  2344  1  0.95748800  0.80337800  0.07416740  1
  H  2346  1  0.03605410  0.85161900  0.11520300  1
  H  2348  1  0.88447400  0.77789400  0.10891800  1
  H  2355  1  0.01152510  0.59130000  0.59171600  1
  H  2356  1  0.96171200  0.65336500  0.59198100  1
  H  2357  1  0.90700600  0.64142100  0.61485100  1
  H  2358  1  0.95753400  0.57949000  0.61502500  1
  H  2360  1  0.03609710  0.62051900  0.56677700  1
  H  2362  1  0.88452300  0.61424100  0.64050100  1
  H  2369  1  0.01162010  0.33250800  0.32145300  1
  H  2370  1  0.96163200  0.27048000  0.32120500  1
  H  2371  1  0.90682200  0.28249100  0.29843800  1
  H  2372  1  0.95753000  0.34438100  0.29824300  1
  H  2374  1  0.03625310  0.30323000  0.34633200  1
  H  2376  1  0.88433900  0.30970600  0.27282200  1
  H  2383  1  0.41073900  0.82034900  0.83122600  1
  H  2384  1  0.46507000  0.82364800  0.77028800  1
  H  2385  1  0.51928500  0.80035400  0.78207100  1
  H  2386  1  0.46430200  0.79664100  0.84284800  1
  H  2388  1  0.38916800  0.84739800  0.80273000  1
  H  2390  1  0.53883300  0.77275000  0.80816000  1
  H  2397  1  0.41067900  0.10358900  0.08209140  1
  H  2398  1  0.46517700  0.10024100  0.14298500  1
  H  2399  1  0.51939000  0.12352000  0.13117200  1
  H  2400  1  0.46425400  0.12727600  0.07043740  1
  H  2402  1  0.38920800  0.07650800  0.11056600  1
  H  2404  1  0.53891300  0.15113400  0.10506500  1
  H  2411  1  0.41076500  0.33652900  0.59821100  1
  H  2412  1  0.46516300  0.27560900  0.59492300  1
  H  2413  1  0.51937800  0.28741400  0.61820600  1
  H  2414  1  0.46432800  0.34817700  0.62190900  1
  H  2416  1  0.38928100  0.30803500  0.57114200  1
  H  2418  1  0.53897400  0.31353600  0.64578000  1
  H  2425  1  0.41068700  0.58741800  0.31499800  1
  H  2426  1  0.46507300  0.64834300  0.31826800  1
  H  2427  1  0.51927900  0.63653400  0.29498200  1
  H  2428  1  0.46424800  0.57576900  0.29130200  1
  H  2430  1  0.38916100  0.61592200  0.34204500  1
  H  2432  1  0.53875000  0.61043200  0.26736700  1
  H  2439  1  0.40875600  0.82457300  0.09050740  1
  H  2440  1  0.46514800  0.82281600  0.15101200  1
  H  2441  1  0.52042100  0.80182500  0.13650000  1
  H  2442  1  0.46333700  0.80308300  0.07613540  1
  H  2444  1  0.38713900  0.84846800  0.12235500  1
  H  2446  1  0.53977800  0.77687500  0.10752200  1
  H  2453  1  0.40858100  0.09923800  0.82266000  1
  H  2454  1  0.46528900  0.10081700  0.76222600  1
  H  2455  1  0.52068200  0.12168000  0.77680000  1
  H  2456  1  0.46328400  0.12060700  0.83708900  1
  H  2458  1  0.38701800  0.07532500  0.79078100  1
  H  2460  1  0.54007600  0.14662900  0.80581300  1
  H  2467  1  0.40861700  0.32790400  0.31930700  1
  H  2468  1  0.46525800  0.26745900  0.31755400  1
  H  2469  1  0.52060300  0.28206100  0.29667700  1
  H  2470  1  0.46326600  0.34236400  0.29791800  1
  H  2472  1  0.38705600  0.29597300  0.34315200  1
  H  2474  1  0.53996200  0.31110200  0.27177800  1
  H  2481  1  0.40869100  0.59576700  0.59394500  1
  H  2482  1  0.46518500  0.65625200  0.59556500  1
  H  2483  1  0.52050600  0.64174500  0.61652500  1
  H  2484  1  0.46332800  0.58140200  0.61540100  1
  H  2486  1  0.38710500  0.62759500  0.56999000  1
  H  2488  1  0.53980900  0.61277500  0.64154000  1
  H  2495  1  0.01235010  0.10801200  0.08296740  1
  H  2496  1  0.96162300  0.09789700  0.14400300  1
  H  2497  1  0.90622100  0.12185200  0.13554800  1
  H  2498  1  0.95766500  0.13239600  0.07472340  1
  H  2500  1  0.03699510  0.07863600  0.10850600  1
  H  2502  1  0.88369200  0.15150000  0.11280100  1
  H  2509  1  0.01219010  0.81563100  0.83046700  1
  H  2510  1  0.96159200  0.82590400  0.76942800  1
  H  2511  1  0.90618700  0.80191500  0.77778200  1
  H  2512  1  0.95751800  0.79120600  0.83860700  1
  H  2514  1  0.03688210  0.84507400  0.80500800  1
  H  2516  1  0.88356300  0.77222700  0.80044100  1
  H  2523  1  0.01223310  0.58817100  0.31021900  1
  H  2524  1  0.96160100  0.64918400  0.32058500  1
  H  2525  1  0.90616800  0.64084800  0.29660700  1
  H  2526  1  0.95753000  0.58004700  0.28580500  1
  H  2528  1  0.03693710  0.61359500  0.33969000  1
  H  2530  1  0.88352900  0.61822100  0.26689700  1
  H  2537  1  0.01229110  0.33570400  0.60260500  1
  H  2538  1  0.96169900  0.27464200  0.59247300  1
  H  2539  1  0.90628500  0.28305300  0.61643400  1
  H  2540  1  0.95760400  0.34390300  0.62699900  1
  H  2542  1  0.03702010  0.31018300  0.57323400  1
  H  2544  1  0.88369800  0.30577400  0.64608200  1
  H  2551  1  0.17306500  0.97984600  0.83971400  1
  H  2552  1  0.24833100  0.97292000  0.78544300  1
  H  2553  1  0.26426000  0.93698800  0.79596100  1
  H  2554  1  0.18822500  0.94367800  0.84992400  1
  H  2556  1  0.17173400  0.00582300  0.81086900  1
  H  2558  1  0.26294700  0.91013100  0.82599000  1
  H  2565  1  0.17284400  0.94406400  0.07374040  1
  H  2566  1  0.24844900  0.95093700  0.12789000  1
  H  2567  1  0.26442700  0.98685300  0.11733800  1
  H  2568  1  0.18805400  0.98021800  0.06349840  1
  H  2570  1  0.17162300  0.91808400  0.10257600  1
  H  2572  1  0.26295000  0.01373400  0.08736840  1
  H  2579  1  0.17291800  0.57874000  0.47439300  1
  H  2580  1  0.24828900  0.63298200  0.46755300  1
  H  2581  1  0.26418800  0.62252000  0.43160400  1
  H  2582  1  0.18805100  0.56858300  0.43820400  1
  H  2584  1  0.17166900  0.60753600  0.50042600  1
  H  2586  1  0.26280400  0.59253900  0.40469400  1
  H  2593  1  0.17285000  0.34466100  0.43859000  1
  H  2594  1  0.24839500  0.29050400  0.44557600  1
  H  2595  1  0.26440700  0.30113000  0.48146500  1
  H  2596  1  0.18808700  0.35498000  0.47471800  1
  H  2598  1  0.17158600  0.31575200  0.41268200  1
  H  2600  1  0.26298600  0.33116900  0.50827600  1
  H  2607  1  0.67450400  0.48065700  0.33994000  1
  H  2608  1  0.74527800  0.47208800  0.28426600  1
  H  2609  1  0.76123000  0.43626600  0.29522400  1
  H  2610  1  0.68958800  0.44459100  0.35058700  1
  H  2612  1  0.67121300  0.50579500  0.31027900  1
  H  2614  1  0.76139900  0.41008500  0.32630800  1
  H  2621  1  0.67456200  0.44347100  0.57271900  1
  H  2622  1  0.74530600  0.45172200  0.62845100  1
  H  2623  1  0.76117500  0.48762400  0.61773000  1
  H  2624  1  0.68957300  0.47961300  0.56230600  1
  H  2626  1  0.67136300  0.41810900  0.60218300  1
  H  2628  1  0.76135000  0.51398200  0.58677700  1
  H  2635  1  0.67457200  0.07811100  0.97525900  1
  H  2636  1  0.74525700  0.13384100  0.96685500  1
  H  2637  1  0.76114100  0.12302900  0.93098400  1
  H  2638  1  0.68959400  0.06760500  0.93914200  1
  H  2640  1  0.67134100  0.10766100  0.00052843  1
  H  2642  1  0.76135000  0.09198800  0.90471300  1
  H  2649  1  0.67450100  0.84534200  0.93807900  1
  H  2650  1  0.74539200  0.78968300  0.94647600  1
  H  2651  1  0.76135900  0.80054900  0.98232200  1
  H  2652  1  0.68959700  0.85589800  0.97416700  1
  H  2654  1  0.67128000  0.81577600  0.91284200  1
  H  2656  1  0.76147300  0.83153600  0.00859843  1
  C  1  1  0.99476900  0.10519500  0.25866900  1
  C  2  1  0.99405100  0.09543300  0.23824700  1
  C  3  1  0.00052800  0.05895500  0.25510300  1
  C  4  1  0.00023500  0.06807400  0.27584300  1
  C  5  1  0.00409300  0.05420000  0.29371000  1
  C  6  1  0.00929400  0.03192900  0.29128300  1
  C  7  1  0.01014600  0.02342500  0.27044800  1
  C  8  1  0.00519900  0.03668900  0.25263800  1
  C  9  1  0.99137900  0.10818900  0.21970200  1
  C  10  1  0.99011800  0.13050800  0.22116200  1
  C  11  1  0.99115800  0.14068900  0.24121600  1
  C  12  1  0.99301700  0.12786500  0.25971500  1
  C  13  1  0.95844800  0.09649600  0.29108300  1
  C  14  1  0.95902700  0.10766900  0.31077000  1
  C  15  1  0.03657700  0.10965200  0.30958100  1
  C  16  1  0.03690800  0.09879600  0.28972000  1
  C  17  1  0.07385300  0.11713900  0.31834900  1
  C  18  1  0.11115700  0.11420600  0.30753400  1
  C  19  1  0.11255400  0.10302700  0.28802900  1
  C  20  1  0.07524100  0.09542900  0.27945300  1
  C  21  1  0.91980700  0.09117000  0.28201400  1
  C  22  1  0.88231100  0.09759500  0.29134000  1
  C  23  1  0.88391600  0.10917700  0.31060400  1
  C  24  1  0.92160800  0.11363500  0.32048200  1
  C  37  1  0.99753600  0.09199800  0.27890200  1
  C  38  1  0.99788300  0.11442900  0.32110300  1
  C  41  1  0.99672600  0.07200800  0.23548400  1
  C  44  1  0.99196500  0.16435700  0.24236700  1
  C  47  1  0.01537700  0.01738500  0.30977300  1
  C  50  1  0.15184300  0.10058600  0.27607300  1
  C  53  1  0.84255700  0.09416000  0.28003600  1
  C  56  1  0.99477800  0.81856400  0.66511500  1
  C  57  1  0.99410000  0.82827400  0.68556300  1
  C  58  1  0.00047000  0.86479700  0.66879200  1
  C  59  1  0.00016500  0.85572600  0.64802900  1
  C  60  1  0.00399300  0.86964300  0.63019500  1
  C  61  1  0.00918000  0.89190900  0.63267300  1
  C  62  1  0.01004300  0.90036500  0.65352600  1
  C  63  1  0.00511900  0.88705900  0.67130800  1
  C  64  1  0.99150500  0.81546800  0.70407700  1
  C  65  1  0.99027500  0.79315100  0.70256000  1
  C  66  1  0.99125600  0.78302200  0.68248000  1
  C  67  1  0.99305100  0.79589600  0.66401400  1
  C  68  1  0.95842900  0.82732000  0.63272400  1
  C  69  1  0.95902700  0.81618700  0.61301100  1
  C  70  1  0.03657800  0.81422000  0.61420600  1
  C  71  1  0.03689600  0.82505500  0.63407900  1
  C  72  1  0.07386200  0.80675800  0.60542800  1
  C  73  1  0.11116000  0.80968600  0.61624900  1
  C  74  1  0.11255000  0.82084600  0.63576400  1
  C  75  1  0.07523000  0.82842900  0.64434600  1
  C  76  1  0.91977000  0.83259500  0.64180100  1
  C  77  1  0.88228000  0.82620900  0.63243700  1
  C  78  1  0.88391600  0.81466500  0.61315200  1
  C  79  1  0.92162300  0.81022200  0.60328300  1
  C  92  1  0.99751100  0.83181000  0.64491200  1
  C  93  1  0.99789200  0.80945200  0.60267500  1
  C  96  1  0.99673800  0.85169200  0.68838100  1
  C  99  1  0.99204200  0.75935700  0.68125800  1
  C  102  1  0.01526800  0.90649300  0.61421400  1
  C  105  1  0.15183700  0.82327300  0.64772400  1
  C  108  1  0.84250200  0.82961900  0.64373000  1
  C  111  1  0.99476300  0.66510200  0.10507700  1
  C  112  1  0.99401100  0.68551700  0.09529500  1
  C  113  1  0.00050300  0.66863000  0.05883300  1
  C  114  1  0.00022300  0.64789600  0.06796900  1
  C  115  1  0.00407500  0.63002100  0.05410600  1
  C  116  1  0.00926600  0.63243300  0.03183200  1
  C  117  1  0.01012500  0.65326100  0.02331400  1
  C  118  1  0.00519900  0.67108200  0.03656700  1
  C  119  1  0.99130200  0.70407300  0.10803100  1
  C  120  1  0.99003900  0.70263500  0.13035100  1
  C  121  1  0.99114900  0.68259400  0.14055300  1
  C  122  1  0.99302600  0.66408100  0.12774900  1
  C  123  1  0.95843500  0.63268500  0.09640700  1
  C  124  1  0.95900900  0.61300300  0.10759100  1
  C  125  1  0.03655700  0.61418700  0.10957100  1
  C  126  1  0.03689800  0.63404000  0.09870000  1
  C  127  1  0.07383100  0.60541800  0.11706000  1
  C  128  1  0.11114100  0.61622200  0.11411200  1
  C  129  1  0.11254700  0.63572200  0.10292800  1
  C  130  1  0.07523800  0.64429600  0.09532000  1
  C  131  1  0.91979200  0.64175100  0.09107700  1
  C  132  1  0.88229600  0.63243300  0.09751700  1
  C  133  1  0.88390000  0.61318300  0.10912100  1
  C  134  1  0.92159300  0.60330200  0.11357600  1
  C  147  1  0.99752700  0.64485600  0.09189600  1
  C  148  1  0.99786100  0.60267400  0.11435900  1
  C  151  1  0.99667700  0.68825900  0.07186900  1
  C  154  1  0.99199600  0.68147800  0.16422300  1
  C  157  1  0.01531500  0.61393500  0.01729600  1
  C  160  1  0.15184100  0.64767300  0.10049000  1
  C  163  1  0.84253900  0.64373900  0.09408300  1
  C  166  1  0.99480900  0.25866200  0.81841200  1
  C  167  1  0.99418000  0.23819900  0.82808900  1
  C  168  1  0.00049600  0.25492100  0.86463900  1
  C  169  1  0.00017100  0.27569700  0.85559700  1
  C  170  1  0.00397600  0.29351500  0.86953600  1
  C  171  1  0.00915400  0.29101100  0.89179900  1
  C  172  1  0.01001900  0.27014600  0.90023100  1
  C  173  1  0.00515000  0.25237900  0.88689800  1
  C  174  1  0.99162800  0.21970400  0.81525200  1
  C  175  1  0.99038500  0.22125800  0.79293700  1
  C  176  1  0.99130500  0.24135700  0.78284200  1
  C  177  1  0.99308200  0.25980100  0.79574700  1
  C  178  1  0.95844200  0.29103700  0.82720600  1
  C  179  1  0.95904600  0.31076100  0.81609700  1
  C  180  1  0.03659900  0.30957800  0.81414800  1
  C  181  1  0.03691200  0.28968800  0.82495300  1
  C  182  1  0.07389000  0.31836800  0.80670900  1
  C  183  1  0.11118700  0.30753700  0.80961900  1
  C  184  1  0.11256400  0.28800200  0.82074500  1
  C  185  1  0.07524100  0.27941500  0.82831500  1
  C  186  1  0.91978900  0.28195000  0.83247600  1
  C  187  1  0.88230200  0.29132700  0.82610900  1
  C  188  1  0.88392800  0.31062200  0.81458200  1
  C  189  1  0.92163900  0.32048200  0.81012700  1
  C  202  1  0.99752400  0.27884500  0.83168600  1
  C  203  1  0.99791300  0.32110900  0.80938000  1
  C  206  1  0.99681200  0.23534900  0.85150500  1
  C  209  1  0.99205100  0.24263000  0.75918000  1
  C  212  1  0.01524300  0.30945500  0.90640000  1
  C  215  1  0.15184100  0.27602900  0.82315100  1
  C  218  1  0.84251700  0.28005000  0.82954800  1
  C  221  1  0.99817100  0.82148400  0.26455300  1
  C  222  1  0.99767100  0.83435500  0.24592900  1
  C  223  1  0.99475700  0.86780000  0.26850400  1
  C  224  1  0.99714900  0.85546100  0.28744600  1
  C  225  1  0.99613100  0.86628200  0.30738400  1
  C  226  1  0.99109700  0.88865700  0.30888900  1
  C  227  1  0.98720400  0.90034600  0.28977800  1
  C  228  1  0.98998000  0.89016600  0.26989100  1
  C  229  1  0.99796800  0.82462100  0.22558300  1
  C  230  1  0.99817400  0.80233000  0.22351600  1
  C  231  1  0.99785500  0.78914100  0.24174300  1
  C  232  1  0.99818000  0.79891500  0.26203300  1
  C  233  1  0.03772700  0.82424100  0.29704500  1
  C  234  1  0.03761200  0.81055000  0.31507600  1
  C  235  1  0.95991100  0.81021800  0.31531500  1
  C  236  1  0.95906700  0.82374000  0.29717400  1
  C  237  1  0.92269700  0.80223100  0.32370200  1
  C  238  1  0.88497400  0.80716200  0.31406400  1
  C  239  1  0.88312100  0.82092400  0.29629800  1
  C  240  1  0.92035300  0.82918200  0.28826200  1
  C  241  1  0.07610200  0.82998300  0.28792700  1
  C  242  1  0.11369700  0.82173800  0.29557400  1
  C  243  1  0.11252900  0.80778600  0.31320700  1
  C  244  1  0.07518100  0.80266600  0.32312500  1
  C  257  1  0.99818000  0.83133900  0.28663200  1
  C  258  1  0.99898100  0.80325000  0.32528100  1
  C  261  1  0.99583000  0.85797000  0.24698000  1
  C  264  1  0.99674400  0.76558500  0.23918000  1
  C  267  1  0.98697400  0.89949500  0.33000200  1
  C  270  1  0.84348700  0.82516400  0.28517400  1
  C  273  1  0.15303700  0.82610800  0.28419200  1
  C  276  1  0.99830000  0.10228000  0.65955800  1
  C  277  1  0.99800200  0.08937400  0.67816000  1
  C  278  1  0.99492500  0.05597500  0.65552700  1
  C  279  1  0.99723500  0.06834800  0.63660500  1
  C  280  1  0.99617400  0.05756100  0.61664800  1
  C  281  1  0.99111800  0.03519100  0.61511100  1
  C  282  1  0.98724400  0.02346900  0.63420500  1
  C  283  1  0.99013100  0.03361200  0.65410700  1
  C  284  1  0.99851400  0.09907000  0.69852400  1
  C  285  1  0.99865600  0.12135800  0.70063100  1
  C  286  1  0.99806400  0.13457700  0.68242900  1
  C  287  1  0.99823500  0.12484200  0.66212100  1
  C  288  1  0.03775800  0.09960000  0.62703300  1
  C  289  1  0.03758300  0.11333400  0.60903600  1
  C  290  1  0.95988300  0.11364400  0.60884900  1
  C  291  1  0.95909200  0.10007700  0.62695800  1
  C  292  1  0.92264500  0.12163900  0.60049700  1
  C  293  1  0.88494300  0.11667600  0.61014400  1
  C  294  1  0.88313600  0.10285800  0.62786600  1
  C  295  1  0.92039900  0.09460400  0.63587500  1
  C  296  1  0.07616700  0.09384600  0.63610800  1
  C  297  1  0.11373600  0.10211500  0.62845000  1
  C  298  1  0.11250000  0.11610800  0.61085200  1
  C  299  1  0.07512300  0.12124400  0.60097700  1
  C  312  1  0.99824100  0.09246800  0.63746200  1
  C  313  1  0.99891900  0.12064800  0.59887700  1
  C  316  1  0.99617400  0.06576100  0.67706700  1
  C  319  1  0.99678700  0.15812600  0.68502400  1
  C  322  1  0.98699500  0.02438200  0.59398300  1
  C  325  1  0.84351100  0.09854600  0.63897300  1
  C  328  1  0.15311700  0.09773000  0.63978700  1
  C  331  1  0.99829400  0.26447300  0.10227700  1
  C  332  1  0.99786400  0.24584400  0.08941100  1
  C  333  1  0.99488500  0.26840700  0.05596100  1
  C  334  1  0.99725700  0.28735500  0.06829300  1
  C  335  1  0.99622300  0.30728800  0.05746500  1
  C  336  1  0.99115500  0.30878200  0.03509200  1
  C  337  1  0.98724100  0.28966600  0.02341300  1
  C  338  1  0.99008800  0.26978400  0.03359600  1
  C  339  1  0.99823500  0.22550100  0.09915000  1
  C  340  1  0.99840100  0.22344100  0.12144200  1
  C  341  1  0.99799600  0.24167100  0.13462400  1
  C  342  1  0.99827500  0.26196000  0.12484600  1
  C  343  1  0.03778200  0.29698900  0.09952500  1
  C  344  1  0.03761500  0.31501300  0.11322200  1
  C  345  1  0.95991400  0.31521600  0.11352100  1
  C  346  1  0.95912300  0.29707400  0.10000000  1
  C  347  1  0.92267200  0.32358900  0.12149000  1
  C  348  1  0.88497400  0.31393200  0.11654400  1
  C  349  1  0.88316400  0.29617500  0.10277000  1
  C  350  1  0.92043000  0.28813700  0.09455500  1
  C  351  1  0.07618500  0.28789200  0.09379400  1
  C  352  1  0.11375300  0.29555000  0.10206500  1
  C  353  1  0.11253000  0.31318300  0.11601600  1
  C  354  1  0.07515800  0.32308300  0.12111700  1
  C  367  1  0.99826300  0.28655000  0.09241600  1
  C  368  1  0.99895300  0.32520300  0.12050000  1
  C  371  1  0.99603600  0.24688800  0.06579500  1
  C  374  1  0.99683000  0.23912000  0.15818000  1
  C  377  1  0.98703800  0.32989300  0.02424600  1
  C  380  1  0.84354800  0.28505300  0.09848400  1
  C  383  1  0.15311200  0.28418000  0.09771800  1
  C  386  1  0.99822300  0.65944700  0.82146600  1
  C  387  1  0.99783700  0.67805000  0.83436800  1
  C  388  1  0.99478700  0.65542400  0.86777400  1
  C  389  1  0.99713700  0.63650100  0.85540500  1
  C  390  1  0.99608800  0.61654600  0.86619400  1
  C  391  1  0.99099600  0.61500900  0.88856200  1
  C  392  1  0.98712700  0.63410300  0.90028200  1
  C  393  1  0.98998900  0.65400500  0.89013800  1
  C  394  1  0.99828100  0.69841200  0.82466700  1
  C  395  1  0.99844100  0.70051400  0.80237800  1
  C  396  1  0.99796800  0.68230800  0.78916300  1
  C  397  1  0.99820500  0.66200200  0.79890200  1
  C  398  1  0.03773300  0.62693900  0.82417900  1
  C  399  1  0.03762000  0.60893500  0.81045400  1
  C  400  1  0.95991700  0.60870900  0.81010900  1
  C  401  1  0.95907300  0.62682700  0.82365900  1
  C  402  1  0.92270600  0.60033300  0.80210600  1
  C  403  1  0.88498300  0.60996300  0.80705000  1
  C  404  1  0.88312100  0.62769700  0.82085400  1
  C  405  1  0.92035900  0.63574000  0.82909900  1
  C  406  1  0.07611600  0.63603000  0.82995700  1
  C  407  1  0.11370800  0.62840200  0.82168600  1
  C  408  1  0.11253700  0.61079000  0.80771100  1
  C  409  1  0.07518900  0.60088500  0.80257200  1
  C  422  1  0.99818600  0.63735200  0.83128500  1
  C  423  1  0.99898400  0.59875000  0.80313200  1
  C  426  1  0.99598400  0.67696200  0.85798100  1
  C  429  1  0.99675700  0.68490100  0.76561200  1
  C  432  1  0.98683600  0.59387900  0.89936600  1
  C  435  1  0.84347100  0.63879100  0.82513700  1
  C  438  1  0.15304700  0.63977900  0.82607500  1
  C  441  1  0.49331800  0.60603000  0.76055100  1
  C  442  1  0.49169200  0.59676800  0.73989400  1
  C  443  1  0.49846600  0.55982200  0.75561200  1
  C  444  1  0.49869900  0.56838700  0.77658100  1
  C  445  1  0.50300000  0.55402000  0.79402500  1
  C  446  1  0.50839300  0.53186600  0.79095400  1
  C  447  1  0.50865400  0.52390000  0.76990700  1
  C  448  1  0.50310400  0.53763100  0.75250100  1
  C  449  1  0.48837000  0.60995200  0.72168900  1
  C  450  1  0.48752300  0.63222000  0.72367500  1
  C  451  1  0.48992500  0.64196000  0.74391400  1
  C  452  1  0.49219200  0.62868800  0.76213300  1
  C  453  1  0.45713200  0.59607700  0.79286600  1
  C  454  1  0.45773300  0.60571000  0.81335300  1
  C  455  1  0.53535100  0.60748200  0.81231800  1
  C  456  1  0.53552300  0.59833900  0.79160700  1
  C  457  1  0.57299500  0.61154600  0.82278700  1
  C  458  1  0.61049700  0.60575700  0.81337800  1
  C  459  1  0.61148500  0.59652800  0.79287200  1
  C  460  1  0.57395200  0.59364200  0.78200200  1
  C  461  1  0.41874600  0.58945300  0.78440800  1
  C  462  1  0.38173500  0.59152600  0.79594400  1
  C  463  1  0.38308500  0.60148300  0.81609800  1
  C  464  1  0.42051600  0.60865900  0.82458500  1
  C  477  1  0.49612500  0.59226800  0.78037400  1
  C  478  1  0.49660100  0.61229000  0.82380700  1
  C  481  1  0.49399000  0.57342300  0.73643400  1
  C  484  1  0.49110000  0.66564000  0.74534700  1
  C  487  1  0.51508600  0.51694400  0.80904700  1
  C  490  1  0.65059800  0.58832000  0.78366100  1
  C  493  1  0.34277800  0.58221400  0.78764800  1
  C  496  1  0.49333400  0.31817500  0.16315800  1
  C  497  1  0.49145900  0.32759000  0.18374200  1
  C  498  1  0.49863800  0.36440900  0.16779500  1
  C  499  1  0.49888300  0.35571200  0.14688300  1
  C  500  1  0.50322400  0.36997400  0.12935300  1
  C  501  1  0.50866000  0.39214400  0.13229200  1
  C  502  1  0.50900600  0.40023000  0.15329200  1
  C  503  1  0.50340200  0.38661000  0.17077800  1
  C  504  1  0.48771400  0.31455700  0.20202800  1
  C  505  1  0.48676900  0.29227800  0.20020900  1
  C  506  1  0.48960600  0.28237500  0.18006400  1
  C  507  1  0.49220500  0.29550200  0.16174700  1
  C  508  1  0.45721500  0.32795000  0.13078800  1
  C  509  1  0.45776100  0.31821300  0.11035100  1
  C  510  1  0.53537300  0.31641100  0.11136000  1
  C  511  1  0.53559700  0.32563200  0.13203800  1
  C  512  1  0.57298900  0.31228500  0.10089000  1
  C  513  1  0.61051900  0.31809800  0.11025600  1
  C  514  1  0.61155500  0.32740500  0.13072600  1
  C  515  1  0.57405300  0.33033800  0.14161400  1
  C  516  1  0.41885400  0.33463000  0.13923300  1
  C  517  1  0.38179900  0.33246300  0.12775400  1
  C  518  1  0.38309700  0.32240500  0.10765000  1
  C  519  1  0.42051300  0.31521600  0.09915700  1
  C  532  1  0.49622900  0.33180400  0.14324500  1
  C  533  1  0.49660100  0.31157800  0.09990500  1
  C  536  1  0.49390700  0.35095000  0.18705200  1
  C  539  1  0.49098700  0.25868100  0.17887300  1
  C  542  1  0.51522800  0.40697800  0.11411400  1
  C  545  1  0.65069900  0.33564200  0.13987500  1
  C  548  1  0.34284300  0.34176200  0.13606500  1
  C  551  1  0.49335500  0.16321500  0.60580400  1
  C  552  1  0.49156000  0.18381500  0.59642100  1
  C  553  1  0.49861300  0.16791100  0.55957400  1
  C  554  1  0.49885500  0.14698700  0.56824700  1
  C  555  1  0.50318700  0.12947300  0.55396800  1
  C  556  1  0.50861400  0.13243500  0.53180100  1
  C  557  1  0.50893000  0.15344300  0.52373300  1
  C  558  1  0.50336500  0.17091600  0.53737700  1
  C  559  1  0.48795300  0.20208600  0.60948700  1
  C  560  1  0.48702300  0.20023200  0.63176200  1
  C  561  1  0.48973200  0.18006500  0.64163100  1
  C  562  1  0.49221700  0.16176900  0.62847300  1
  C  563  1  0.45720300  0.13085800  0.59599300  1
  C  564  1  0.45775500  0.11041100  0.60571300  1
  C  565  1  0.53537000  0.11142300  0.60751600  1
  C  566  1  0.53559100  0.13210400  0.59830200  1
  C  567  1  0.57298600  0.10094900  0.61163100  1
  C  568  1  0.61051600  0.11031900  0.60582600  1
  C  569  1  0.61155500  0.13078600  0.59651300  1
  C  570  1  0.57404700  0.14167700  0.59359000  1
  C  571  1  0.41883500  0.13930900  0.58932900  1
  C  572  1  0.38179300  0.12781100  0.59146100  1
  C  573  1  0.38310600  0.10769000  0.60148600  1
  C  574  1  0.42051600  0.09920800  0.60869500  1
  C  587  1  0.49622000  0.14331900  0.59214900  1
  C  588  1  0.49659800  0.09996400  0.61234200  1
  C  591  1  0.49395600  0.18715300  0.57306200  1
  C  594  1  0.49105400  0.17881800  0.66532200  1
  C  597  1  0.51521500  0.11427000  0.51695500  1
  C  600  1  0.65069000  0.13992800  0.58826100  1
  C  603  1  0.34283700  0.13611400  0.58215500  1
  C  606  1  0.49329100  0.76059500  0.31795700  1
  C  607  1  0.49159100  0.73995500  0.32725400  1
  C  608  1  0.49847800  0.75572500  0.36417100  1
  C  609  1  0.49873600  0.77668100  0.35557600  1
  C  610  1  0.50306400  0.79414300  0.36992000  1
  C  611  1  0.50845700  0.79110000  0.39207900  1
  C  612  1  0.50871800  0.77006500  0.40007100  1
  C  613  1  0.50316500  0.75264000  0.38636200  1
  C  614  1  0.48814900  0.72173200  0.31410500  1
  C  615  1  0.48728100  0.72367800  0.29183400  1
  C  616  1  0.48980600  0.74389500  0.28205700  1
  C  617  1  0.49217100  0.76213700  0.29529400  1
  C  618  1  0.45715300  0.79293200  0.32787500  1
  C  619  1  0.45775500  0.81340800  0.31821900  1
  C  620  1  0.53536700  0.81235800  0.31642500  1
  C  621  1  0.53553600  0.79165600  0.32558600  1
  C  622  1  0.57301600  0.82281200  0.31233000  1
  C  623  1  0.61051200  0.81340900  0.31813900  1
  C  624  1  0.61149400  0.79291600  0.32739700  1
  C  625  1  0.57396400  0.78204300  0.33027900  1
  C  626  1  0.41876800  0.78448100  0.33450800  1
  C  627  1  0.38175600  0.79601200  0.33241600  1
  C  628  1  0.38310600  0.81615700  0.32244400  1
  C  629  1  0.42054100  0.82464700  0.31527800  1
  C  642  1  0.49613700  0.78043900  0.33168900  1
  C  643  1  0.49662200  0.82385000  0.31162000  1
  C  646  1  0.49392300  0.73653100  0.35060300  1
  C  649  1  0.49104500  0.74526900  0.25837200  1
  C  652  1  0.51513600  0.80921100  0.40698400  1
  C  655  1  0.65059800  0.78372300  0.33563000  1
  C  658  1  0.34279100  0.78770800  0.34171000  1
  C  661  1  0.49647500  0.32001800  0.76743400  1
  C  662  1  0.49540100  0.33225400  0.74838200  1
  C  663  1  0.49301100  0.36654900  0.76969700  1
  C  664  1  0.49562200  0.35487000  0.78903100  1
  C  665  1  0.49463100  0.36635100  0.80859600  1
  C  666  1  0.48934600  0.38871800  0.80938600  1
  C  667  1  0.48547100  0.39978800  0.78990600  1
  C  668  1  0.48822300  0.38895400  0.77035100  1
  C  669  1  0.49501800  0.32183100  0.72838500  1
  C  670  1  0.49522300  0.29949000  0.72707400  1
  C  671  1  0.49595900  0.28688900  0.74571400  1
  C  672  1  0.49676600  0.29736600  0.76568700  1
  C  673  1  0.53610000  0.32433100  0.79997000  1
  C  674  1  0.53612100  0.31222600  0.81909900  1
  C  675  1  0.45833500  0.31178000  0.81933200  1
  C  676  1  0.45754300  0.32379500  0.80015900  1
  C  677  1  0.42101600  0.30681400  0.82974600  1
  C  678  1  0.38336100  0.31445700  0.82191700  1
  C  679  1  0.38191900  0.32681600  0.80313800  1
  C  680  1  0.41895200  0.33059600  0.79211600  1
  C  681  1  0.57428600  0.33133800  0.79159700  1
  C  682  1  0.61184100  0.32740000  0.80212000  1
  C  683  1  0.61109200  0.31521800  0.82102700  1
  C  684  1  0.57382000  0.30749400  0.82923100  1
  C  697  1  0.49659100  0.33067800  0.78909500  1
  C  698  1  0.49748100  0.30493000  0.82934900  1
  C  701  1  0.49361300  0.35591200  0.74856400  1
  C  704  1  0.49508500  0.26323400  0.74375300  1
  C  707  1  0.48492200  0.40005700  0.83020600  1
  C  710  1  0.34306700  0.33712100  0.79598100  1
  C  713  1  0.65073300  0.33720600  0.79431100  1
  C  716  1  0.49659100  0.60383400  0.15661500  1
  C  717  1  0.49569300  0.59153200  0.17562800  1
  C  718  1  0.49318000  0.55731000  0.15419600  1
  C  719  1  0.49571400  0.56905700  0.13489900  1
  C  720  1  0.49468000  0.55764100  0.11529600  1
  C  721  1  0.48937300  0.53527900  0.11443400  1
  C  722  1  0.48554800  0.52414400  0.13387800  1
  C  723  1  0.48839800  0.53490700  0.15346700  1
  C  724  1  0.49549600  0.60188500  0.19566100  1
  C  725  1  0.49564700  0.62422300  0.19704900  1
  C  726  1  0.49612500  0.63688700  0.17845000  1
  C  727  1  0.49680900  0.62647900  0.15844000  1
  C  728  1  0.53616700  0.59963200  0.12405200  1
  C  729  1  0.53617100  0.61178200  0.10495000  1
  C  730  1  0.45838100  0.61220400  0.10472600  1
  C  731  1  0.45760700  0.60016000  0.12388200  1
  C  732  1  0.42106200  0.61715900  0.09431100  1
  C  733  1  0.38343100  0.60945600  0.10210800  1
  C  734  1  0.38198600  0.59709600  0.12088600  1
  C  735  1  0.41902500  0.59332900  0.13191100  1
  C  736  1  0.57436300  0.59261100  0.13240000  1
  C  737  1  0.61190800  0.59657300  0.12187600  1
  C  738  1  0.61113500  0.60879200  0.10299300  1
  C  739  1  0.57385700  0.61653500  0.09481800  1
  C  752  1  0.49666800  0.59324700  0.13491800  1
  C  753  1  0.49751800  0.61908800  0.09472200  1
  C  756  1  0.49392300  0.56787400  0.17536400  1
  C  759  1  0.49504800  0.66053300  0.18048700  1
  C  762  1  0.48487300  0.52401400  0.09357700  1
  C  765  1  0.34315600  0.58675300  0.12802000  1
  C  768  1  0.65080900  0.58674800  0.12964800  1
  C  771  1  0.49652700  0.76708400  0.60376900  1
  C  772  1  0.49567100  0.74807000  0.59146600  1
  C  773  1  0.49311600  0.76950400  0.55724900  1
  C  774  1  0.49567400  0.78880100  0.56899500  1
  C  775  1  0.49468000  0.80840300  0.55757800  1
  C  776  1  0.48939500  0.80926700  0.53521400  1
  C  777  1  0.48549900  0.78982400  0.52408400  1
  C  778  1  0.48831500  0.77023400  0.53484700  1
  C  779  1  0.49553600  0.72803500  0.60181800  1
  C  780  1  0.49571100  0.72664300  0.62415500  1
  C  781  1  0.49609100  0.74524200  0.63681800  1
  C  782  1  0.49672000  0.76525500  0.62641300  1
  C  783  1  0.53611200  0.79964200  0.59958500  1
  C  784  1  0.53611200  0.81874100  0.61173800  1
  C  785  1  0.45832800  0.81896700  0.61215500  1
  C  786  1  0.45755200  0.79982300  0.60009600  1
  C  787  1  0.42101000  0.82937500  0.61712900  1
  C  788  1  0.38337000  0.82157300  0.60944200  1
  C  789  1  0.38191900  0.80280400  0.59707200  1
  C  790  1  0.41896700  0.79180700  0.59325200  1
  C  791  1  0.57431400  0.79129000  0.59257300  1
  C  792  1  0.61185900  0.80181400  0.59654300  1
  C  793  1  0.61108000  0.82069200  0.60876900  1
  C  794  1  0.57379900  0.82886600  0.61650800  1
  C  807  1  0.49661300  0.78878200  0.59318800  1
  C  808  1  0.49746300  0.82896500  0.61905000  1
  C  811  1  0.49387700  0.74833500  0.56781000  1
  C  814  1  0.49496300  0.74320600  0.66046200  1
  C  817  1  0.48500500  0.83012500  0.52394200  1
  C  820  1  0.34305800  0.79565600  0.58676600  1
  C  823  1  0.65076300  0.79404100  0.58672400  1
  C  826  1  0.49649900  0.15625800  0.31996000  1
  C  827  1  0.49540100  0.17531200  0.33219300  1
  C  828  1  0.49314000  0.15400500  0.36649700  1
  C  829  1  0.49573600  0.13467000  0.35481800  1
  C  830  1  0.49475100  0.11510600  0.36629900  1
  C  831  1  0.48942800  0.11431500  0.38866300  1
  C  832  1  0.48561500  0.13379600  0.39973700  1
  C  833  1  0.48841000  0.15335100  0.38890500  1
  C  834  1  0.49490400  0.19530400  0.32176100  1
  C  835  1  0.49503600  0.19660800  0.29941900  1
  C  836  1  0.49587100  0.17796600  0.28682200  1
  C  837  1  0.49676600  0.15799800  0.29730600  1
  C  838  1  0.53616700  0.12373400  0.32426600  1
  C  839  1  0.53618900  0.10460000  0.31216900  1
  C  840  1  0.45839300  0.10435100  0.31175600  1
  C  841  1  0.45761100  0.12352900  0.32376400  1
  C  842  1  0.42107200  0.09393200  0.30681200  1
  C  843  1  0.38343100  0.10175100  0.31448300  1
  C  844  1  0.38198900  0.12054500  0.32682000  1
  C  845  1  0.41903200  0.13155500  0.33060000  1
  C  846  1  0.57435100  0.13212500  0.33125300  1
  C  847  1  0.61190500  0.12159000  0.32733800  1
  C  848  1  0.61116000  0.10268400  0.31515400  1
  C  849  1  0.57389100  0.09447700  0.30742800  1
  C  862  1  0.49665900  0.13460200  0.33062700  1
  C  863  1  0.49753900  0.09434300  0.30488900  1
  C  866  1  0.49369900  0.17513500  0.35585200  1
  C  869  1  0.49504800  0.17991900  0.26316400  1
  C  872  1  0.48487600  0.09349300  0.39998500  1
  C  875  1  0.34315600  0.12771700  0.33713500  1
  C  878  1  0.65077600  0.12939200  0.33717000  1
  C  881  1  0.02135300  0.20841900  0.22093400  1
  C  882  1  0.02259300  0.22300400  0.20384700  1
  C  883  1  0.03472400  0.21617600  0.18329800  1
  C  884  1  0.04601600  0.19469500  0.18016500  1
  C  885  1  0.04520000  0.18018800  0.19727200  1
  C  886  1  0.03264500  0.18689100  0.21772000  1
  C  895  1  0.02124500  0.71532900  0.70276600  1
  C  896  1  0.02245000  0.70080300  0.71990600  1
  C  897  1  0.03480100  0.70767300  0.74040700  1
  C  898  1  0.04637600  0.72912800  0.74343100  1
  C  899  1  0.04559900  0.74357300  0.72627200  1
  C  900  1  0.03279100  0.73683400  0.70587600  1
  C  909  1  0.02144700  0.70289800  0.20830200  1
  C  910  1  0.02265200  0.71995700  0.22292300  1
  C  911  1  0.03458300  0.74054600  0.21611700  1
  C  912  1  0.04567400  0.74375000  0.19461800  1
  C  913  1  0.04487800  0.72667500  0.18007400  1
  C  914  1  0.03255700  0.70618200  0.18675900  1
  C  923  1  0.02113900  0.22106500  0.71518400  1
  C  924  1  0.02236300  0.20388200  0.70071400  1
  C  925  1  0.03493500  0.18343200  0.70762300  1
  C  926  1  0.04675000  0.18050800  0.72905800  1
  C  927  1  0.04596800  0.19771600  0.74344400  1
  C  928  1  0.03290400  0.21805500  0.73667100  1
  C  937  1  0.51855600  0.71015600  0.72304300  1
  C  938  1  0.51955000  0.72505400  0.70619100  1
  C  939  1  0.53024700  0.71849500  0.68533900  1
  C  940  1  0.53988500  0.69688100  0.68164500  1
  C  941  1  0.53925400  0.68205700  0.69849300  1
  C  942  1  0.52857800  0.68853600  0.71930800  1
  C  951  1  0.51982600  0.21399100  0.20091300  1
  C  952  1  0.52080800  0.19886600  0.21756500  1
  C  953  1  0.52966700  0.20531300  0.23868300  1
  C  954  1  0.53729300  0.22705400  0.24286600  1
  C  955  1  0.53658200  0.24211700  0.22623300  1
  C  956  1  0.52791500  0.23574000  0.20513700  1
  C  965  1  0.51945200  0.20091500  0.70995200  1
  C  966  1  0.52044900  0.21761800  0.72501800  1
  C  967  1  0.52993400  0.23865500  0.71855000  1
  C  968  1  0.53819500  0.24270500  0.69684600  1
  C  969  1  0.53752000  0.22601400  0.68184700  1
  C  970  1  0.52818200  0.20500200  0.68824500  1
  C  979  1  0.51882300  0.72302700  0.21381300  1
  C  980  1  0.51982900  0.70622700  0.19885700  1
  C  981  1  0.53012700  0.68531100  0.20538600  1
  C  982  1  0.53928400  0.68149400  0.22703600  1
  C  983  1  0.53863700  0.69829100  0.24191900  1
  C  984  1  0.52839100  0.71917200  0.23546800  1
  C  993  1  0.71377000  0.11500100  0.29316800  1
  C  994  1  0.74577800  0.10166000  0.28615400  1
  C  995  1  0.77702600  0.09516200  0.30033300  1
  C  996  1  0.77479200  0.10158900  0.32189300  1
  C  997  1  0.74297800  0.11505900  0.32886200  1
  C  998  1  0.71207700  0.12189200  0.31462000  1
  C  1007  1  0.71382900  0.80854800  0.63068800  1
  C  1008  1  0.74578800  0.82194000  0.63766300  1
  C  1009  1  0.77695200  0.82847700  0.62345300  1
  C  1010  1  0.77467300  0.82203100  0.60189800  1
  C  1011  1  0.74290400  0.80851200  0.59496800  1
  C  1012  1  0.71208600  0.80164000  0.60924200  1
  C  1021  1  0.71386500  0.63070400  0.11514700  1
  C  1022  1  0.74582100  0.63767500  0.10175200  1
  C  1023  1  0.77699200  0.62346300  0.09522200  1
  C  1024  1  0.77471300  0.60191100  0.10166900  1
  C  1025  1  0.74296200  0.59498700  0.11520400  1
  C  1026  1  0.71213500  0.60925900  0.12206300  1
  C  1035  1  0.71373000  0.29319100  0.80874400  1
  C  1036  1  0.74574800  0.28617900  0.82208000  1
  C  1037  1  0.77699500  0.30036100  0.82857100  1
  C  1038  1  0.77472500  0.32192500  0.82216100  1
  C  1039  1  0.74291900  0.32888400  0.80868000  1
  C  1040  1  0.71200600  0.31464300  0.80185600  1
  C  1049  1  0.28214600  0.80474600  0.29792200  1
  C  1050  1  0.25044800  0.81835600  0.29103800  1
  C  1051  1  0.21812300  0.82394500  0.30494200  1
  C  1052  1  0.21895600  0.81637600  0.32615300  1
  C  1053  1  0.25046700  0.80263900  0.33298300  1
  C  1054  1  0.28240000  0.79667300  0.31897400  1
  C  1063  1  0.28218300  0.11916600  0.62596000  1
  C  1064  1  0.25049000  0.10556100  0.63286100  1
  C  1065  1  0.21813200  0.09997800  0.61897400  1
  C  1066  1  0.21891700  0.10755800  0.59776800  1
  C  1067  1  0.25043400  0.12128300  0.59091900  1
  C  1068  1  0.28241900  0.12723100  0.60490400  1
  C  1077  1  0.28220200  0.29794300  0.11914000  1
  C  1078  1  0.25051400  0.29104800  0.10552900  1
  C  1079  1  0.21817900  0.30494400  0.09993300  1
  C  1080  1  0.21899100  0.32615800  0.10749600  1
  C  1081  1  0.25047900  0.33299500  0.12124400  1
  C  1082  1  0.28243700  0.31900000  0.12720500  1
  C  1091  1  0.28212700  0.62599900  0.80468300  1
  C  1092  1  0.25044000  0.63289800  0.81829400  1
  C  1093  1  0.21810600  0.61900300  0.82389300  1
  C  1094  1  0.21893900  0.59778300  0.81635000  1
  C  1095  1  0.25042500  0.59094600  0.80259900  1
  C  1096  1  0.28238200  0.60494000  0.79662900  1
  C  1105  1  0.28261800  0.80684600  0.63195700  1
  C  1106  1  0.25036900  0.81913800  0.64041800  1
  C  1107  1  0.21719400  0.82543700  0.62739700  1
  C  1108  1  0.21759900  0.82000600  0.60554400  1
  C  1109  1  0.24967200  0.80758000  0.59712500  1
  C  1110  1  0.28242600  0.80084100  0.61023400  1
  C  1119  1  0.28275000  0.11675000  0.29192400  1
  C  1120  1  0.25043800  0.10452700  0.28342900  1
  C  1121  1  0.21715800  0.09830600  0.29641400  1
  C  1122  1  0.21749800  0.10375400  0.31826200  1
  C  1123  1  0.24963800  0.11610900  0.32671500  1
  C  1124  1  0.28251600  0.12275900  0.31364500  1
  C  1133  1  0.28271700  0.29187600  0.80696800  1
  C  1134  1  0.25043500  0.28336600  0.81920300  1
  C  1135  1  0.21717900  0.29634600  0.82547100  1
  C  1136  1  0.21752700  0.31820700  0.82007100  1
  C  1137  1  0.24961500  0.32667100  0.80768800  1
  C  1138  1  0.28246300  0.31360600  0.80098700  1
  C  1147  1  0.28266300  0.63189900  0.11685400  1
  C  1148  1  0.25039400  0.64035500  0.10457300  1
  C  1149  1  0.21718500  0.62733600  0.09831700  1
  C  1150  1  0.21758500  0.60548900  0.10376600  1
  C  1151  1  0.24966400  0.59707900  0.11619500  1
  C  1152  1  0.28246800  0.61018200  0.12288000  1
  C  1161  1  0.71331300  0.11873800  0.62956300  1
  C  1162  1  0.74563700  0.10469200  0.63448300  1
  C  1163  1  0.77725300  0.10085700  0.61958300  1
  C  1164  1  0.77513600  0.11064900  0.59933400  1
  C  1165  1  0.74295900  0.12478700  0.59447200  1
  C  1166  1  0.71173900  0.12902400  0.60951500  1
  C  1175  1  0.71328600  0.80498000  0.29439600  1
  C  1176  1  0.74559700  0.81905300  0.28953900  1
  C  1177  1  0.77715800  0.82286600  0.30447500  1
  C  1178  1  0.77501000  0.81301300  0.32469400  1
  C  1179  1  0.74284300  0.79885100  0.32949200  1
  C  1180  1  0.71166900  0.79464100  0.31441700  1
  C  1189  1  0.71326400  0.62953900  0.80496800  1
  C  1190  1  0.74559100  0.63438700  0.81903800  1
  C  1191  1  0.77717300  0.61945300  0.82281500  1
  C  1192  1  0.77502900  0.59924600  0.81294000  1
  C  1193  1  0.74286700  0.59446500  0.79876700  1
  C  1194  1  0.71166300  0.60953400  0.79459900  1
  C  1203  1  0.71335300  0.29436100  0.11863300  1
  C  1204  1  0.74567400  0.28947000  0.10457400  1
  C  1205  1  0.77724300  0.30439400  0.10073800  1
  C  1206  1  0.77507100  0.32464200  0.11052400  1
  C  1207  1  0.74292200  0.32946600  0.12469200  1
  C  1208  1  0.71173000  0.31440500  0.12892300  1
  C  1217  1  0.03079200  0.94602000  0.31074000  1
  C  1218  1  0.02152100  0.96708100  0.30463300  1
  C  1219  1  0.99513100  0.97988700  0.31711700  1
  C  1220  1  0.97803500  0.97105000  0.33587000  1
  C  1221  1  0.98685400  0.94987900  0.34182900  1
  C  1222  1  0.01254500  0.93699300  0.32907600  1
  C  1231  1  0.03082500  0.97784500  0.61322500  1
  C  1232  1  0.02155700  0.95678700  0.61934000  1
  C  1233  1  0.99506300  0.94399800  0.60689800  1
  C  1234  1  0.97788400  0.95284700  0.58817000  1
  C  1235  1  0.98672800  0.97401200  0.58219300  1
  C  1236  1  0.01252900  0.98688000  0.59490500  1
  C  1245  1  0.03067500  0.61305100  0.94592300  1
  C  1246  1  0.02144400  0.61912000  0.96699800  1
  C  1247  1  0.99504800  0.60662000  0.97979000  1
  C  1248  1  0.97790600  0.58789400  0.97091900  1
  C  1249  1  0.98666700  0.58198300  0.94972700  1
  C  1250  1  0.01240200  0.59473800  0.93686700  1
  C  1259  1  0.03084200  0.31055000  0.97774100  1
  C  1260  1  0.02154000  0.30438400  0.95670200  1
  C  1261  1  0.99504800  0.31680400  0.94389000  1
  C  1262  1  0.97791500  0.33556400  0.95269200  1
  C  1263  1  0.98674400  0.34157200  0.97384900  1
  C  1264  1  0.01254800  0.32888700  0.98674100  1
  C  1273  1  0.52873800  0.44563100  0.81018500  1
  C  1274  1  0.51943900  0.46660000  0.80381800  1
  C  1275  1  0.49428100  0.47979400  0.81657500  1
  C  1276  1  0.47852900  0.47152800  0.83589000  1
  C  1277  1  0.48737900  0.45045100  0.84212500  1
  C  1278  1  0.51175800  0.43716400  0.82909800  1
  C  1287  1  0.52863600  0.47832400  0.11334400  1
  C  1288  1  0.51943000  0.45729800  0.11955900  1
  C  1289  1  0.49432700  0.44416600  0.10670900  1
  C  1290  1  0.47855400  0.45255200  0.08745000  1
  C  1291  1  0.48735500  0.47367600  0.08135400  1
  C  1292  1  0.51169400  0.48689500  0.09447000  1
  C  1301  1  0.52864200  0.11334500  0.44562200  1
  C  1302  1  0.51941200  0.11961900  0.46662800  1
  C  1303  1  0.49432400  0.10679400  0.47979300  1
  C  1304  1  0.47856900  0.08750900  0.47146100  1
  C  1305  1  0.48733300  0.08137400  0.45034600  1
  C  1306  1  0.51169400  0.09445100  0.43709900  1
  C  1315  1  0.52881400  0.81021300  0.47830200  1
  C  1316  1  0.51953100  0.80390600  0.45731300  1
  C  1317  1  0.49434600  0.81668900  0.44415800  1
  C  1318  1  0.47858100  0.83597800  0.45247800  1
  C  1319  1  0.48739500  0.84214400  0.47358100  1
  C  1320  1  0.51182200  0.82909700  0.48682600  1
  C  1329  1  0.20950600  0.10519500  0.75336100  1
  C  1330  1  0.20878800  0.09543300  0.73293900  1
  C  1331  1  0.21526500  0.05895500  0.74979500  1
  C  1332  1  0.21497200  0.06807400  0.77053500  1
  C  1333  1  0.21883000  0.05420000  0.78840200  1
  C  1334  1  0.22403100  0.03192900  0.78597500  1
  C  1335  1  0.22488300  0.02342500  0.76514000  1
  C  1336  1  0.21993600  0.03668900  0.74733000  1
  C  1337  1  0.20611600  0.10818900  0.71439400  1
  C  1338  1  0.20485500  0.13050800  0.71585400  1
  C  1339  1  0.20589500  0.14068900  0.73590800  1
  C  1340  1  0.20775400  0.12786500  0.75440700  1
  C  1341  1  0.17318500  0.09649600  0.78577500  1
  C  1342  1  0.17376400  0.10766900  0.80546200  1
  C  1343  1  0.25131400  0.10965200  0.80427300  1
  C  1344  1  0.25164500  0.09879600  0.78441200  1
  C  1345  1  0.28859000  0.11713900  0.81304100  1
  C  1346  1  0.32589400  0.11420600  0.80222600  1
  C  1347  1  0.32729100  0.10302700  0.78272100  1
  C  1348  1  0.28997800  0.09542900  0.77414500  1
  C  1349  1  0.13454400  0.09117000  0.77670600  1
  C  1350  1  0.09704810  0.09759500  0.78603200  1
  C  1351  1  0.09865310  0.10917700  0.80529600  1
  C  1352  1  0.13634500  0.11363500  0.81517400  1
  C  1365  1  0.21227300  0.09199800  0.77359400  1
  C  1366  1  0.21262000  0.11442900  0.81579500  1
  C  1369  1  0.21146300  0.07200800  0.73017600  1
  C  1372  1  0.20670200  0.16435700  0.73705900  1
  C  1375  1  0.23011400  0.01738500  0.80446500  1
  C  1378  1  0.36658000  0.10058600  0.77076500  1
  C  1381  1  0.05729410  0.09416000  0.77472800  1
  C  1384  1  0.20951500  0.81856400  0.15980700  1
  C  1385  1  0.20883700  0.82827400  0.18025500  1
  C  1386  1  0.21520700  0.86479700  0.16348400  1
  C  1387  1  0.21490200  0.85572600  0.14272100  1
  C  1388  1  0.21873000  0.86964300  0.12488700  1
  C  1389  1  0.22391700  0.89190900  0.12736500  1
  C  1390  1  0.22478000  0.90036500  0.14821800  1
  C  1391  1  0.21985600  0.88705900  0.16600000  1
  C  1392  1  0.20624200  0.81546800  0.19876900  1
  C  1393  1  0.20501200  0.79315100  0.19725200  1
  C  1394  1  0.20599300  0.78302200  0.17717200  1
  C  1395  1  0.20778800  0.79589600  0.15870600  1
  C  1396  1  0.17316600  0.82732000  0.12741600  1
  C  1397  1  0.17376400  0.81618700  0.10770300  1
  C  1398  1  0.25131500  0.81422000  0.10889800  1
  C  1399  1  0.25163300  0.82505500  0.12877100  1
  C  1400  1  0.28859900  0.80675800  0.10012000  1
  C  1401  1  0.32589700  0.80968600  0.11094100  1
  C  1402  1  0.32728700  0.82084600  0.13045600  1
  C  1403  1  0.28996700  0.82842900  0.13903800  1
  C  1404  1  0.13450700  0.83259500  0.13649300  1
  C  1405  1  0.09701710  0.82620900  0.12712900  1
  C  1406  1  0.09865310  0.81466500  0.10784400  1
  C  1407  1  0.13636000  0.81022200  0.09797540  1
  C  1420  1  0.21224800  0.83181000  0.13960400  1
  C  1421  1  0.21262900  0.80945200  0.09736740  1
  C  1424  1  0.21147500  0.85169200  0.18307300  1
  C  1427  1  0.20677900  0.75935700  0.17595000  1
  C  1430  1  0.23000500  0.90649300  0.10890600  1
  C  1433  1  0.36657400  0.82327300  0.14241600  1
  C  1436  1  0.05723910  0.82961900  0.13842200  1
  C  1439  1  0.20950000  0.66510200  0.59976900  1
  C  1440  1  0.20874800  0.68551700  0.58998700  1
  C  1441  1  0.21524000  0.66863000  0.55352500  1
  C  1442  1  0.21496000  0.64789600  0.56266100  1
  C  1443  1  0.21881200  0.63002100  0.54879800  1
  C  1444  1  0.22400300  0.63243300  0.52652400  1
  C  1445  1  0.22486200  0.65326100  0.51800600  1
  C  1446  1  0.21993600  0.67108200  0.53125900  1
  C  1447  1  0.20603900  0.70407300  0.60272300  1
  C  1448  1  0.20477600  0.70263500  0.62504300  1
  C  1449  1  0.20588600  0.68259400  0.63524500  1
  C  1450  1  0.20776300  0.66408100  0.62244100  1
  C  1451  1  0.17317200  0.63268500  0.59109900  1
  C  1452  1  0.17374600  0.61300300  0.60228300  1
  C  1453  1  0.25129400  0.61418700  0.60426300  1
  C  1454  1  0.25163500  0.63404000  0.59339200  1
  C  1455  1  0.28856800  0.60541800  0.61175200  1
  C  1456  1  0.32587800  0.61622200  0.60880400  1
  C  1457  1  0.32728400  0.63572200  0.59762000  1
  C  1458  1  0.28997500  0.64429600  0.59001200  1
  C  1459  1  0.13452900  0.64175100  0.58576900  1
  C  1460  1  0.09703310  0.63243300  0.59220900  1
  C  1461  1  0.09863710  0.61318300  0.60381300  1
  C  1462  1  0.13633000  0.60330200  0.60826800  1
  C  1475  1  0.21226400  0.64485600  0.58658800  1
  C  1476  1  0.21259800  0.60267400  0.60905100  1
  C  1479  1  0.21141400  0.68825900  0.56656100  1
  C  1482  1  0.20673300  0.68147800  0.65891500  1
  C  1485  1  0.23005200  0.61393500  0.51198800  1
  C  1488  1  0.36657800  0.64767300  0.59518200  1
  C  1491  1  0.05727610  0.64373900  0.58877500  1
  C  1494  1  0.20954600  0.25866200  0.31310400  1
  C  1495  1  0.20891700  0.23819900  0.32278100  1
  C  1496  1  0.21523300  0.25492100  0.35933100  1
  C  1497  1  0.21490800  0.27569700  0.35028900  1
  C  1498  1  0.21871300  0.29351500  0.36422800  1
  C  1499  1  0.22389100  0.29101100  0.38649100  1
  C  1500  1  0.22475600  0.27014600  0.39492300  1
  C  1501  1  0.21988700  0.25237900  0.38159000  1
  C  1502  1  0.20636500  0.21970400  0.30994400  1
  C  1503  1  0.20512200  0.22125800  0.28762900  1
  C  1504  1  0.20604200  0.24135700  0.27753400  1
  C  1505  1  0.20781900  0.25980100  0.29043900  1
  C  1506  1  0.17317900  0.29103700  0.32189800  1
  C  1507  1  0.17378300  0.31076100  0.31078900  1
  C  1508  1  0.25133600  0.30957800  0.30884000  1
  C  1509  1  0.25164900  0.28968800  0.31964500  1
  C  1510  1  0.28862700  0.31836800  0.30140100  1
  C  1511  1  0.32592400  0.30753700  0.30431100  1
  C  1512  1  0.32730100  0.28800200  0.31543700  1
  C  1513  1  0.28997800  0.27941500  0.32300700  1
  C  1514  1  0.13452600  0.28195000  0.32716800  1
  C  1515  1  0.09703910  0.29132700  0.32080100  1
  C  1516  1  0.09866510  0.31062200  0.30927400  1
  C  1517  1  0.13637600  0.32048200  0.30481900  1
  C  1530  1  0.21226100  0.27884500  0.32637800  1
  C  1531  1  0.21265000  0.32110900  0.30407200  1
  C  1534  1  0.21154900  0.23534900  0.34619700  1
  C  1537  1  0.20678800  0.24263000  0.25387200  1
  C  1540  1  0.22998000  0.30945500  0.40109200  1
  C  1543  1  0.36657800  0.27602900  0.31784300  1
  C  1546  1  0.05725410  0.28005000  0.32424000  1
  C  1549  1  0.21290800  0.82148400  0.75924500  1
  C  1550  1  0.21240800  0.83435500  0.74062100  1
  C  1551  1  0.20949400  0.86780000  0.76319600  1
  C  1552  1  0.21188600  0.85546100  0.78213800  1
  C  1553  1  0.21086800  0.86628200  0.80207600  1
  C  1554  1  0.20583400  0.88865700  0.80358100  1
  C  1555  1  0.20194100  0.90034600  0.78447000  1
  C  1556  1  0.20471700  0.89016600  0.76458300  1
  C  1557  1  0.21270500  0.82462100  0.72027500  1
  C  1558  1  0.21291100  0.80233000  0.71820800  1
  C  1559  1  0.21259200  0.78914100  0.73643500  1
  C  1560  1  0.21291700  0.79891500  0.75672500  1
  C  1561  1  0.25246400  0.82424100  0.79173700  1
  C  1562  1  0.25234900  0.81055000  0.80976800  1
  C  1563  1  0.17464800  0.81021800  0.81000700  1
  C  1564  1  0.17380400  0.82374000  0.79186600  1
  C  1565  1  0.13743400  0.80223100  0.81839400  1
  C  1566  1  0.09971110  0.80716200  0.80875600  1
  C  1567  1  0.09785810  0.82092400  0.79099000  1
  C  1568  1  0.13509000  0.82918200  0.78295400  1
  C  1569  1  0.29083900  0.82998300  0.78261900  1
  C  1570  1  0.32843400  0.82173800  0.79026600  1
  C  1571  1  0.32726600  0.80778600  0.80789900  1
  C  1572  1  0.28991800  0.80266600  0.81781700  1
  C  1585  1  0.21291700  0.83133900  0.78132400  1
  C  1586  1  0.21371800  0.80325000  0.81997300  1
  C  1589  1  0.21056700  0.85797000  0.74167200  1
  C  1592  1  0.21148100  0.76558500  0.73387200  1
  C  1595  1  0.20171100  0.89949500  0.82469400  1
  C  1598  1  0.05822410  0.82516400  0.77986600  1
  C  1601  1  0.36777400  0.82610800  0.77888400  1
  C  1604  1  0.21303700  0.10228000  0.15425000  1
  C  1605  1  0.21273900  0.08937400  0.17285200  1
  C  1606  1  0.20966200  0.05597500  0.15021900  1
  C  1607  1  0.21197200  0.06834800  0.13129700  1
  C  1608  1  0.21091100  0.05756100  0.11134000  1
  C  1609  1  0.20585500  0.03519100  0.10980300  1
  C  1610  1  0.20198100  0.02346900  0.12889700  1
  C  1611  1  0.20486800  0.03361200  0.14879900  1
  C  1612  1  0.21325100  0.09907000  0.19321600  1
  C  1613  1  0.21339300  0.12135800  0.19532300  1
  C  1614  1  0.21280100  0.13457700  0.17712100  1
  C  1615  1  0.21297200  0.12484200  0.15681300  1
  C  1616  1  0.25249500  0.09960000  0.12172500  1
  C  1617  1  0.25232000  0.11333400  0.10372800  1
  C  1618  1  0.17462000  0.11364400  0.10354100  1
  C  1619  1  0.17382900  0.10007700  0.12165000  1
  C  1620  1  0.13738200  0.12163900  0.09518940  1
  C  1621  1  0.09968010  0.11667600  0.10483600  1
  C  1622  1  0.09787310  0.10285800  0.12255800  1
  C  1623  1  0.13513600  0.09460400  0.13056700  1
  C  1624  1  0.29090400  0.09384600  0.13080000  1
  C  1625  1  0.32847300  0.10211500  0.12314200  1
  C  1626  1  0.32723700  0.11610800  0.10554400  1
  C  1627  1  0.28986000  0.12124400  0.09566940  1
  C  1640  1  0.21297800  0.09246800  0.13215400  1
  C  1641  1  0.21365600  0.12064800  0.09356940  1
  C  1644  1  0.21091100  0.06576100  0.17175900  1
  C  1647  1  0.21152400  0.15812600  0.17971600  1
  C  1650  1  0.20173200  0.02438200  0.08867540  1
  C  1653  1  0.05824810  0.09854600  0.13366500  1
  C  1656  1  0.36785400  0.09773000  0.13447900  1
  C  1659  1  0.21303100  0.26447300  0.59696900  1
  C  1660  1  0.21260100  0.24584400  0.58410300  1
  C  1661  1  0.20962200  0.26840700  0.55065300  1
  C  1662  1  0.21199400  0.28735500  0.56298500  1
  C  1663  1  0.21096000  0.30728800  0.55215700  1
  C  1664  1  0.20589200  0.30878200  0.52978400  1
  C  1665  1  0.20197800  0.28966600  0.51810500  1
  C  1666  1  0.20482500  0.26978400  0.52828800  1
  C  1667  1  0.21297200  0.22550100  0.59384200  1
  C  1668  1  0.21313800  0.22344100  0.61613400  1
  C  1669  1  0.21273300  0.24167100  0.62931600  1
  C  1670  1  0.21301200  0.26196000  0.61953800  1
  C  1671  1  0.25251900  0.29698900  0.59421700  1
  C  1672  1  0.25235200  0.31501300  0.60791400  1
  C  1673  1  0.17465100  0.31521600  0.60821300  1
  C  1674  1  0.17386000  0.29707400  0.59469200  1
  C  1675  1  0.13740900  0.32358900  0.61618200  1
  C  1676  1  0.09971110  0.31393200  0.61123600  1
  C  1677  1  0.09790110  0.29617500  0.59746200  1
  C  1678  1  0.13516700  0.28813700  0.58924700  1
  C  1679  1  0.29092200  0.28789200  0.58848600  1
  C  1680  1  0.32849000  0.29555000  0.59675700  1
  C  1681  1  0.32726700  0.31318300  0.61070800  1
  C  1682  1  0.28989500  0.32308300  0.61580900  1
  C  1695  1  0.21300000  0.28655000  0.58710800  1
  C  1696  1  0.21369000  0.32520300  0.61519200  1
  C  1699  1  0.21077300  0.24688800  0.56048700  1
  C  1702  1  0.21156700  0.23912000  0.65287200  1
  C  1705  1  0.20177500  0.32989300  0.51893800  1
  C  1708  1  0.05828510  0.28505300  0.59317600  1
  C  1711  1  0.36784900  0.28418000  0.59241000  1
  C  1714  1  0.21296000  0.65944700  0.31615800  1
  C  1715  1  0.21257400  0.67805000  0.32906000  1
  C  1716  1  0.20952400  0.65542400  0.36246600  1
  C  1717  1  0.21187400  0.63650100  0.35009700  1
  C  1718  1  0.21082500  0.61654600  0.36088600  1
  C  1719  1  0.20573300  0.61500900  0.38325400  1
  C  1720  1  0.20186400  0.63410300  0.39497400  1
  C  1721  1  0.20472600  0.65400500  0.38483000  1
  C  1722  1  0.21301800  0.69841200  0.31935900  1
  C  1723  1  0.21317800  0.70051400  0.29707000  1
  C  1724  1  0.21270500  0.68230800  0.28385500  1
  C  1725  1  0.21294200  0.66200200  0.29359400  1
  C  1726  1  0.25247000  0.62693900  0.31887100  1
  C  1727  1  0.25235700  0.60893500  0.30514600  1
  C  1728  1  0.17465400  0.60870900  0.30480100  1
  C  1729  1  0.17381000  0.62682700  0.31835100  1
  C  1730  1  0.13744300  0.60033300  0.29679800  1
  C  1731  1  0.09972010  0.60996300  0.30174200  1
  C  1732  1  0.09785810  0.62769700  0.31554600  1
  C  1733  1  0.13509600  0.63574000  0.32379100  1
  C  1734  1  0.29085300  0.63603000  0.32464900  1
  C  1735  1  0.32844500  0.62840200  0.31637800  1
  C  1736  1  0.32727400  0.61079000  0.30240300  1
  C  1737  1  0.28992600  0.60088500  0.29726400  1
  C  1750  1  0.21292300  0.63735200  0.32597700  1
  C  1751  1  0.21372100  0.59875000  0.29782400  1
  C  1754  1  0.21072100  0.67696200  0.35267300  1
  C  1757  1  0.21149400  0.68490100  0.26030400  1
  C  1760  1  0.20157300  0.59387900  0.39405800  1
  C  1763  1  0.05820810  0.63879100  0.31982900  1
  C  1766  1  0.36778400  0.63977900  0.32076700  1
  C  1769  1  0.70805500  0.60603000  0.25524300  1
  C  1770  1  0.70642900  0.59676800  0.23458600  1
  C  1771  1  0.71320300  0.55982200  0.25030400  1
  C  1772  1  0.71343600  0.56838700  0.27127300  1
  C  1773  1  0.71773700  0.55402000  0.28871700  1
  C  1774  1  0.72313000  0.53186600  0.28564600  1
  C  1775  1  0.72339100  0.52390000  0.26459900  1
  C  1776  1  0.71784100  0.53763100  0.24719300  1
  C  1777  1  0.70310700  0.60995200  0.21638100  1
  C  1778  1  0.70226000  0.63222000  0.21836700  1
  C  1779  1  0.70466200  0.64196000  0.23860600  1
  C  1780  1  0.70692900  0.62868800  0.25682500  1
  C  1781  1  0.67186900  0.59607700  0.28755800  1
  C  1782  1  0.67247000  0.60571000  0.30804500  1
  C  1783  1  0.75008800  0.60748200  0.30701000  1
  C  1784  1  0.75026000  0.59833900  0.28629900  1
  C  1785  1  0.78773200  0.61154600  0.31747900  1
  C  1786  1  0.82523400  0.60575700  0.30807000  1
  C  1787  1  0.82622200  0.59652800  0.28756400  1
  C  1788  1  0.78868900  0.59364200  0.27669400  1
  C  1789  1  0.63348300  0.58945300  0.27910000  1
  C  1790  1  0.59647200  0.59152600  0.29063600  1
  C  1791  1  0.59782200  0.60148300  0.31079000  1
  C  1792  1  0.63525300  0.60865900  0.31927700  1
  C  1805  1  0.71086200  0.59226800  0.27506600  1
  C  1806  1  0.71133800  0.61229000  0.31849900  1
  C  1809  1  0.70872700  0.57342300  0.23112600  1
  C  1812  1  0.70583700  0.66564000  0.24003900  1
  C  1815  1  0.72982300  0.51694400  0.30373900  1
  C  1818  1  0.86533500  0.58832000  0.27835300  1
  C  1821  1  0.55751500  0.58221400  0.28234000  1
  C  1824  1  0.70807100  0.31817500  0.65785000  1
  C  1825  1  0.70619600  0.32759000  0.67843400  1
  C  1826  1  0.71337500  0.36440900  0.66248700  1
  C  1827  1  0.71362000  0.35571200  0.64157500  1
  C  1828  1  0.71796100  0.36997400  0.62404500  1
  C  1829  1  0.72339700  0.39214400  0.62698400  1
  C  1830  1  0.72374300  0.40023000  0.64798400  1
  C  1831  1  0.71813900  0.38661000  0.66547000  1
  C  1832  1  0.70245100  0.31455700  0.69672000  1
  C  1833  1  0.70150600  0.29227800  0.69490100  1
  C  1834  1  0.70434300  0.28237500  0.67475600  1
  C  1835  1  0.70694200  0.29550200  0.65643900  1
  C  1836  1  0.67195200  0.32795000  0.62548000  1
  C  1837  1  0.67249800  0.31821300  0.60504300  1
  C  1838  1  0.75011000  0.31641100  0.60605200  1
  C  1839  1  0.75033400  0.32563200  0.62673000  1
  C  1840  1  0.78772600  0.31228500  0.59558200  1
  C  1841  1  0.82525600  0.31809800  0.60494800  1
  C  1842  1  0.82629200  0.32740500  0.62541800  1
  C  1843  1  0.78879000  0.33033800  0.63630600  1
  C  1844  1  0.63359100  0.33463000  0.63392500  1
  C  1845  1  0.59653600  0.33246300  0.62244600  1
  C  1846  1  0.59783400  0.32240500  0.60234200  1
  C  1847  1  0.63525000  0.31521600  0.59384900  1
  C  1860  1  0.71096600  0.33180400  0.63793700  1
  C  1861  1  0.71133800  0.31157800  0.59459700  1
  C  1864  1  0.70864400  0.35095000  0.68174400  1
  C  1867  1  0.70572400  0.25868100  0.67356500  1
  C  1870  1  0.72996500  0.40697800  0.60880600  1
  C  1873  1  0.86543600  0.33564200  0.63456700  1
  C  1876  1  0.55758000  0.34176200  0.63075700  1
  C  1879  1  0.70809200  0.16321500  0.10049600  1
  C  1880  1  0.70629700  0.18381500  0.09111340  1
  C  1881  1  0.71335000  0.16791100  0.05426640  1
  C  1882  1  0.71359200  0.14698700  0.06293940  1
  C  1883  1  0.71792400  0.12947300  0.04866040  1
  C  1884  1  0.72335100  0.13243500  0.02649340  1
  C  1885  1  0.72366700  0.15344300  0.01842540  1
  C  1886  1  0.71810200  0.17091600  0.03206940  1
  C  1887  1  0.70269000  0.20208600  0.10417900  1
  C  1888  1  0.70176000  0.20023200  0.12645400  1
  C  1889  1  0.70446900  0.18006500  0.13632300  1
  C  1890  1  0.70695400  0.16176900  0.12316500  1
  C  1891  1  0.67194000  0.13085800  0.09068540  1
  C  1892  1  0.67249200  0.11041100  0.10040500  1
  C  1893  1  0.75010700  0.11142300  0.10220800  1
  C  1894  1  0.75032800  0.13210400  0.09299440  1
  C  1895  1  0.78772300  0.10094900  0.10632300  1
  C  1896  1  0.82525300  0.11031900  0.10051800  1
  C  1897  1  0.82629200  0.13078600  0.09120540  1
  C  1898  1  0.78878400  0.14167700  0.08828240  1
  C  1899  1  0.63357200  0.13930900  0.08402140  1
  C  1900  1  0.59653000  0.12781100  0.08615340  1
  C  1901  1  0.59784300  0.10769000  0.09617840  1
  C  1902  1  0.63525300  0.09920800  0.10338700  1
  C  1915  1  0.71095700  0.14331900  0.08684140  1
  C  1916  1  0.71133500  0.09996400  0.10703400  1
  C  1919  1  0.70869300  0.18715300  0.06775440  1
  C  1922  1  0.70579100  0.17881800  0.16001400  1
  C  1925  1  0.72995200  0.11427000  0.01164740  1
  C  1928  1  0.86542700  0.13992800  0.08295340  1
  C  1931  1  0.55757400  0.13611400  0.07684740  1
  C  1934  1  0.70802800  0.76059500  0.81264900  1
  C  1935  1  0.70632800  0.73995500  0.82194600  1
  C  1936  1  0.71321500  0.75572500  0.85886300  1
  C  1937  1  0.71347300  0.77668100  0.85026800  1
  C  1938  1  0.71780100  0.79414300  0.86461200  1
  C  1939  1  0.72319400  0.79110000  0.88677100  1
  C  1940  1  0.72345500  0.77006500  0.89476300  1
  C  1941  1  0.71790200  0.75264000  0.88105400  1
  C  1942  1  0.70288600  0.72173200  0.80879700  1
  C  1943  1  0.70201800  0.72367800  0.78652600  1
  C  1944  1  0.70454300  0.74389500  0.77674900  1
  C  1945  1  0.70690800  0.76213700  0.78998600  1
  C  1946  1  0.67189000  0.79293200  0.82256700  1
  C  1947  1  0.67249200  0.81340800  0.81291100  1
  C  1948  1  0.75010400  0.81235800  0.81111700  1
  C  1949  1  0.75027300  0.79165600  0.82027800  1
  C  1950  1  0.78775300  0.82281200  0.80702200  1
  C  1951  1  0.82524900  0.81340900  0.81283100  1
  C  1952  1  0.82623100  0.79291600  0.82208900  1
  C  1953  1  0.78870100  0.78204300  0.82497100  1
  C  1954  1  0.63350500  0.78448100  0.82920000  1
  C  1955  1  0.59649300  0.79601200  0.82710800  1
  C  1956  1  0.59784300  0.81615700  0.81713600  1
  C  1957  1  0.63527800  0.82464700  0.80997000  1
  C  1970  1  0.71087400  0.78043900  0.82638100  1
  C  1971  1  0.71135900  0.82385000  0.80631200  1
  C  1974  1  0.70866000  0.73653100  0.84529500  1
  C  1977  1  0.70578200  0.74526900  0.75306400  1
  C  1980  1  0.72987300  0.80921100  0.90167600  1
  C  1983  1  0.86533500  0.78372300  0.83032200  1
  C  1986  1  0.55752800  0.78770800  0.83640200  1
  C  1989  1  0.71121200  0.32001800  0.26212600  1
  C  1990  1  0.71013800  0.33225400  0.24307400  1
  C  1991  1  0.70774800  0.36654900  0.26438900  1
  C  1992  1  0.71035900  0.35487000  0.28372300  1
  C  1993  1  0.70936800  0.36635100  0.30328800  1
  C  1994  1  0.70408300  0.38871800  0.30407800  1
  C  1995  1  0.70020800  0.39978800  0.28459800  1
  C  1996  1  0.70296000  0.38895400  0.26504300  1
  C  1997  1  0.70975500  0.32183100  0.22307700  1
  C  1998  1  0.70996000  0.29949000  0.22176600  1
  C  1999  1  0.71069600  0.28688900  0.24040600  1
  C  2000  1  0.71150300  0.29736600  0.26037900  1
  C  2001  1  0.75083700  0.32433100  0.29466200  1
  C  2002  1  0.75085800  0.31222600  0.31379100  1
  C  2003  1  0.67307200  0.31178000  0.31402400  1
  C  2004  1  0.67228000  0.32379500  0.29485100  1
  C  2005  1  0.63575300  0.30681400  0.32443800  1
  C  2006  1  0.59809800  0.31445700  0.31660900  1
  C  2007  1  0.59665600  0.32681600  0.29783000  1
  C  2008  1  0.63368900  0.33059600  0.28680800  1
  C  2009  1  0.78902300  0.33133800  0.28628900  1
  C  2010  1  0.82657800  0.32740000  0.29681200  1
  C  2011  1  0.82582900  0.31521800  0.31571900  1
  C  2012  1  0.78855700  0.30749400  0.32392300  1
  C  2025  1  0.71132800  0.33067800  0.28378700  1
  C  2026  1  0.71221800  0.30493000  0.32404100  1
  C  2029  1  0.70835000  0.35591200  0.24325600  1
  C  2032  1  0.70982200  0.26323400  0.23844500  1
  C  2035  1  0.69965900  0.40005700  0.32489800  1
  C  2038  1  0.55780400  0.33712100  0.29067300  1
  C  2041  1  0.86547000  0.33720600  0.28900300  1
  C  2044  1  0.71132800  0.60383400  0.65130700  1
  C  2045  1  0.71043000  0.59153200  0.67032000  1
  C  2046  1  0.70791700  0.55731000  0.64888800  1
  C  2047  1  0.71045100  0.56905700  0.62959100  1
  C  2048  1  0.70941700  0.55764100  0.60998800  1
  C  2049  1  0.70411000  0.53527900  0.60912600  1
  C  2050  1  0.70028500  0.52414400  0.62857000  1
  C  2051  1  0.70313500  0.53490700  0.64815900  1
  C  2052  1  0.71023300  0.60188500  0.69035300  1
  C  2053  1  0.71038400  0.62422300  0.69174100  1
  C  2054  1  0.71086200  0.63688700  0.67314200  1
  C  2055  1  0.71154600  0.62647900  0.65313200  1
  C  2056  1  0.75090400  0.59963200  0.61874400  1
  C  2057  1  0.75090800  0.61178200  0.59964200  1
  C  2058  1  0.67311800  0.61220400  0.59941800  1
  C  2059  1  0.67234400  0.60016000  0.61857400  1
  C  2060  1  0.63579900  0.61715900  0.58900300  1
  C  2061  1  0.59816800  0.60945600  0.59680000  1
  C  2062  1  0.59672300  0.59709600  0.61557800  1
  C  2063  1  0.63376200  0.59332900  0.62660300  1
  C  2064  1  0.78910000  0.59261100  0.62709200  1
  C  2065  1  0.82664500  0.59657300  0.61656800  1
  C  2066  1  0.82587200  0.60879200  0.59768500  1
  C  2067  1  0.78859400  0.61653500  0.58951000  1
  C  2080  1  0.71140500  0.59324700  0.62961000  1
  C  2081  1  0.71225500  0.61908800  0.58941400  1
  C  2084  1  0.70866000  0.56787400  0.67005600  1
  C  2087  1  0.70978500  0.66053300  0.67517900  1
  C  2090  1  0.69961000  0.52401400  0.58826900  1
  C  2093  1  0.55789300  0.58675300  0.62271200  1
  C  2096  1  0.86554600  0.58674800  0.62434000  1
  C  2099  1  0.71126400  0.76708400  0.09846140  1
  C  2100  1  0.71040800  0.74807000  0.08615840  1
  C  2101  1  0.70785300  0.76950400  0.05194140  1
  C  2102  1  0.71041100  0.78880100  0.06368740  1
  C  2103  1  0.70941700  0.80840300  0.05227040  1
  C  2104  1  0.70413200  0.80926700  0.02990640  1
  C  2105  1  0.70023600  0.78982400  0.01877640  1
  C  2106  1  0.70305200  0.77023400  0.02953940  1
  C  2107  1  0.71027300  0.72803500  0.09651040  1
  C  2108  1  0.71044800  0.72664300  0.11884700  1
  C  2109  1  0.71082800  0.74524200  0.13151000  1
  C  2110  1  0.71145700  0.76525500  0.12110500  1
  C  2111  1  0.75084900  0.79964200  0.09427740  1
  C  2112  1  0.75084900  0.81874100  0.10643000  1
  C  2113  1  0.67306500  0.81896700  0.10684700  1
  C  2114  1  0.67228900  0.79982300  0.09478840  1
  C  2115  1  0.63574700  0.82937500  0.11182100  1
  C  2116  1  0.59810700  0.82157300  0.10413400  1
  C  2117  1  0.59665600  0.80280400  0.09176440  1
  C  2118  1  0.63370400  0.79180700  0.08794440  1
  C  2119  1  0.78905100  0.79129000  0.08726540  1
  C  2120  1  0.82659600  0.80181400  0.09123540  1
  C  2121  1  0.82581700  0.82069200  0.10346100  1
  C  2122  1  0.78853600  0.82886600  0.11120000  1
  C  2135  1  0.71135000  0.78878200  0.08788040  1
  C  2136  1  0.71220000  0.82896500  0.11374200  1
  C  2139  1  0.70861400  0.74833500  0.06250240  1
  C  2142  1  0.70970000  0.74320600  0.15515400  1
  C  2145  1  0.69974200  0.83012500  0.01863440  1
  C  2148  1  0.55779500  0.79565600  0.08145840  1
  C  2151  1  0.86550000  0.79404100  0.08141640  1
  C  2154  1  0.71123600  0.15625800  0.81465200  1
  C  2155  1  0.71013800  0.17531200  0.82688500  1
  C  2156  1  0.70787700  0.15400500  0.86118900  1
  C  2157  1  0.71047300  0.13467000  0.84951000  1
  C  2158  1  0.70948800  0.11510600  0.86099100  1
  C  2159  1  0.70416500  0.11431500  0.88335500  1
  C  2160  1  0.70035200  0.13379600  0.89442900  1
  C  2161  1  0.70314700  0.15335100  0.88359700  1
  C  2162  1  0.70964100  0.19530400  0.81645300  1
  C  2163  1  0.70977300  0.19660800  0.79411100  1
  C  2164  1  0.71060800  0.17796600  0.78151400  1
  C  2165  1  0.71150300  0.15799800  0.79199800  1
  C  2166  1  0.75090400  0.12373400  0.81895800  1
  C  2167  1  0.75092600  0.10460000  0.80686100  1
  C  2168  1  0.67313000  0.10435100  0.80644800  1
  C  2169  1  0.67234800  0.12352900  0.81845600  1
  C  2170  1  0.63580900  0.09393200  0.80150400  1
  C  2171  1  0.59816800  0.10175100  0.80917500  1
  C  2172  1  0.59672600  0.12054500  0.82151200  1
  C  2173  1  0.63376900  0.13155500  0.82529200  1
  C  2174  1  0.78908800  0.13212500  0.82594500  1
  C  2175  1  0.82664200  0.12159000  0.82203000  1
  C  2176  1  0.82589700  0.10268400  0.80984600  1
  C  2177  1  0.78862800  0.09447700  0.80212000  1
  C  2190  1  0.71139600  0.13460200  0.82531900  1
  C  2191  1  0.71227600  0.09434300  0.79958100  1
  C  2194  1  0.70843600  0.17513500  0.85054400  1
  C  2197  1  0.70978500  0.17991900  0.75785600  1
  C  2200  1  0.69961300  0.09349300  0.89467700  1
  C  2203  1  0.55789300  0.12771700  0.83182700  1
  C  2206  1  0.86551300  0.12939200  0.83186200  1
  C  2209  1  0.23609000  0.20841900  0.71562600  1
  C  2210  1  0.23733000  0.22300400  0.69853900  1
  C  2211  1  0.24946100  0.21617600  0.67799000  1
  C  2212  1  0.26075300  0.19469500  0.67485700  1
  C  2213  1  0.25993700  0.18018800  0.69196400  1
  C  2214  1  0.24738200  0.18689100  0.71241200  1
  C  2223  1  0.23598200  0.71532900  0.19745800  1
  C  2224  1  0.23718700  0.70080300  0.21459800  1
  C  2225  1  0.24953800  0.70767300  0.23509900  1
  C  2226  1  0.26111300  0.72912800  0.23812300  1
  C  2227  1  0.26033600  0.74357300  0.22096400  1
  C  2228  1  0.24752800  0.73683400  0.20056800  1
  C  2237  1  0.23618400  0.70289800  0.70299400  1
  C  2238  1  0.23738900  0.71995700  0.71761500  1
  C  2239  1  0.24932000  0.74054600  0.71080900  1
  C  2240  1  0.26041100  0.74375000  0.68931000  1
  C  2241  1  0.25961500  0.72667500  0.67476600  1
  C  2242  1  0.24729400  0.70618200  0.68145100  1
  C  2251  1  0.23587600  0.22106500  0.20987600  1
  C  2252  1  0.23710000  0.20388200  0.19540600  1
  C  2253  1  0.24967200  0.18343200  0.20231500  1
  C  2254  1  0.26148700  0.18050800  0.22375000  1
  C  2255  1  0.26070500  0.19771600  0.23813600  1
  C  2256  1  0.24764100  0.21805500  0.23136300  1
  C  2265  1  0.73329300  0.71015600  0.21773500  1
  C  2266  1  0.73428700  0.72505400  0.20088300  1
  C  2267  1  0.74498400  0.71849500  0.18003100  1
  C  2268  1  0.75462200  0.69688100  0.17633700  1
  C  2269  1  0.75399100  0.68205700  0.19318500  1
  C  2270  1  0.74331500  0.68853600  0.21400000  1
  C  2279  1  0.73456300  0.21399100  0.69560500  1
  C  2280  1  0.73554500  0.19886600  0.71225700  1
  C  2281  1  0.74440400  0.20531300  0.73337500  1
  C  2282  1  0.75203000  0.22705400  0.73755800  1
  C  2283  1  0.75131900  0.24211700  0.72092500  1
  C  2284  1  0.74265200  0.23574000  0.69982900  1
  C  2293  1  0.73418900  0.20091500  0.20464400  1
  C  2294  1  0.73518600  0.21761800  0.21971000  1
  C  2295  1  0.74467100  0.23865500  0.21324200  1
  C  2296  1  0.75293200  0.24270500  0.19153800  1
  C  2297  1  0.75225700  0.22601400  0.17653900  1
  C  2298  1  0.74291900  0.20500200  0.18293700  1
  C  2307  1  0.73356000  0.72302700  0.70850500  1
  C  2308  1  0.73456600  0.70622700  0.69354900  1
  C  2309  1  0.74486400  0.68531100  0.70007800  1
  C  2310  1  0.75402100  0.68149400  0.72172800  1
  C  2311  1  0.75337400  0.69829100  0.73661100  1
  C  2312  1  0.74312800  0.71917200  0.73016000  1
  C  2321  1  0.92850700  0.11500100  0.78786000  1
  C  2322  1  0.96051500  0.10166000  0.78084600  1
  C  2323  1  0.99176300  0.09516200  0.79502500  1
  C  2324  1  0.98952900  0.10158900  0.81658500  1
  C  2325  1  0.95771500  0.11505900  0.82355400  1
  C  2326  1  0.92681400  0.12189200  0.80931200  1
  C  2335  1  0.92856600  0.80854800  0.12538000  1
  C  2336  1  0.96052500  0.82194000  0.13235500  1
  C  2337  1  0.99168900  0.82847700  0.11814500  1
  C  2338  1  0.98941000  0.82203100  0.09659040  1
  C  2339  1  0.95764100  0.80851200  0.08966040  1
  C  2340  1  0.92682300  0.80164000  0.10393400  1
  C  2349  1  0.92860200  0.63070400  0.60983900  1
  C  2350  1  0.96055800  0.63767500  0.59644400  1
  C  2351  1  0.99172900  0.62346300  0.58991400  1
  C  2352  1  0.98945000  0.60191100  0.59636100  1
  C  2353  1  0.95769900  0.59498700  0.60989600  1
  C  2354  1  0.92687200  0.60925900  0.61675500  1
  C  2363  1  0.92846700  0.29319100  0.30343600  1
  C  2364  1  0.96048500  0.28617900  0.31677200  1
  C  2365  1  0.99173200  0.30036100  0.32326300  1
  C  2366  1  0.98946200  0.32192500  0.31685300  1
  C  2367  1  0.95765600  0.32888400  0.30337200  1
  C  2368  1  0.92674300  0.31464300  0.29654800  1
  C  2377  1  0.49688300  0.80474600  0.79261400  1
  C  2378  1  0.46518500  0.81835600  0.78573000  1
  C  2379  1  0.43286000  0.82394500  0.79963400  1
  C  2380  1  0.43369300  0.81637600  0.82084500  1
  C  2381  1  0.46520400  0.80263900  0.82767500  1
  C  2382  1  0.49713700  0.79667300  0.81366600  1
  C  2391  1  0.49692000  0.11916600  0.12065200  1
  C  2392  1  0.46522700  0.10556100  0.12755300  1
  C  2393  1  0.43286900  0.09997800  0.11366600  1
  C  2394  1  0.43365400  0.10755800  0.09246040  1
  C  2395  1  0.46517100  0.12128300  0.08561140  1
  C  2396  1  0.49715600  0.12723100  0.09959640  1
  C  2405  1  0.49693900  0.29794300  0.61383200  1
  C  2406  1  0.46525100  0.29104800  0.60022100  1
  C  2407  1  0.43291600  0.30494400  0.59462500  1
  C  2408  1  0.43372800  0.32615800  0.60218800  1
  C  2409  1  0.46521600  0.33299500  0.61593600  1
  C  2410  1  0.49717400  0.31900000  0.62189700  1
  C  2419  1  0.49686400  0.62599900  0.29937500  1
  C  2420  1  0.46517700  0.63289800  0.31298600  1
  C  2421  1  0.43284300  0.61900300  0.31858500  1
  C  2422  1  0.43367600  0.59778300  0.31104200  1
  C  2423  1  0.46516200  0.59094600  0.29729100  1
  C  2424  1  0.49711900  0.60494000  0.29132100  1
  C  2433  1  0.49735500  0.80684600  0.12664900  1
  C  2434  1  0.46510600  0.81913800  0.13511000  1
  C  2435  1  0.43193100  0.82543700  0.12208900  1
  C  2436  1  0.43233600  0.82000600  0.10023600  1
  C  2437  1  0.46440900  0.80758000  0.09181740  1
  C  2438  1  0.49716300  0.80084100  0.10492600  1
  C  2447  1  0.49748700  0.11675000  0.78661600  1
  C  2448  1  0.46517500  0.10452700  0.77812100  1
  C  2449  1  0.43189500  0.09830600  0.79110600  1
  C  2450  1  0.43223500  0.10375400  0.81295400  1
  C  2451  1  0.46437500  0.11610900  0.82140700  1
  C  2452  1  0.49725300  0.12275900  0.80833700  1
  C  2461  1  0.49745400  0.29187600  0.30166000  1
  C  2462  1  0.46517200  0.28336600  0.31389500  1
  C  2463  1  0.43191600  0.29634600  0.32016300  1
  C  2464  1  0.43226400  0.31820700  0.31476300  1
  C  2465  1  0.46435200  0.32667100  0.30238000  1
  C  2466  1  0.49720000  0.31360600  0.29567900  1
  C  2475  1  0.49740000  0.63189900  0.61154600  1
  C  2476  1  0.46513100  0.64035500  0.59926500  1
  C  2477  1  0.43192200  0.62733600  0.59300900  1
  C  2478  1  0.43232200  0.60548900  0.59845800  1
  C  2479  1  0.46440100  0.59707900  0.61088700  1
  C  2480  1  0.49720500  0.61018200  0.61757200  1
  C  2489  1  0.92805000  0.11873800  0.12425500  1
  C  2490  1  0.96037400  0.10469200  0.12917500  1
  C  2491  1  0.99199000  0.10085700  0.11427500  1
  C  2492  1  0.98987300  0.11064900  0.09402640  1
  C  2493  1  0.95769600  0.12478700  0.08916440  1
  C  2494  1  0.92647600  0.12902400  0.10420700  1
  C  2503  1  0.92802300  0.80498000  0.78908800  1
  C  2504  1  0.96033400  0.81905300  0.78423100  1
  C  2505  1  0.99189500  0.82286600  0.79916700  1
  C  2506  1  0.98974700  0.81301300  0.81938600  1
  C  2507  1  0.95758000  0.79885100  0.82418400  1
  C  2508  1  0.92640600  0.79464100  0.80910900  1
  C  2517  1  0.92800100  0.62953900  0.29966000  1
  C  2518  1  0.96032800  0.63438700  0.31373000  1
  C  2519  1  0.99191000  0.61945300  0.31750700  1
  C  2520  1  0.98976600  0.59924600  0.30763200  1
  C  2521  1  0.95760400  0.59446500  0.29345900  1
  C  2522  1  0.92640000  0.60953400  0.28929100  1
  C  2531  1  0.92809000  0.29436100  0.61332500  1
  C  2532  1  0.96041100  0.28947000  0.59926600  1
  C  2533  1  0.99198000  0.30439400  0.59543000  1
  C  2534  1  0.98980800  0.32464200  0.60521600  1
  C  2535  1  0.95765900  0.32946600  0.61938400  1
  C  2536  1  0.92646700  0.31440500  0.62361500  1
  C  2545  1  0.24552900  0.94602000  0.80543200  1
  C  2546  1  0.23625800  0.96708100  0.79932500  1
  C  2547  1  0.20986800  0.97988700  0.81180900  1
  C  2548  1  0.19277200  0.97105000  0.83056200  1
  C  2549  1  0.20159100  0.94987900  0.83652100  1
  C  2550  1  0.22728200  0.93699300  0.82376800  1
  C  2559  1  0.24556200  0.97784500  0.10791700  1
  C  2560  1  0.23629400  0.95678700  0.11403200  1
  C  2561  1  0.20980000  0.94399800  0.10159000  1
  C  2562  1  0.19262100  0.95284700  0.08286240  1
  C  2563  1  0.20146500  0.97401200  0.07688540  1
  C  2564  1  0.22726600  0.98688000  0.08959740  1
  C  2573  1  0.24541200  0.61305100  0.44061500  1
  C  2574  1  0.23618100  0.61912000  0.46169000  1
  C  2575  1  0.20978500  0.60662000  0.47448200  1
  C  2576  1  0.19264300  0.58789400  0.46561100  1
  C  2577  1  0.20140400  0.58198300  0.44441900  1
  C  2578  1  0.22713900  0.59473800  0.43155900  1
  C  2587  1  0.24557900  0.31055000  0.47243300  1
  C  2588  1  0.23627700  0.30438400  0.45139400  1
  C  2589  1  0.20978500  0.31680400  0.43858200  1
  C  2590  1  0.19265200  0.33556400  0.44738400  1
  C  2591  1  0.20148100  0.34157200  0.46854100  1
  C  2592  1  0.22728500  0.32888700  0.48143300  1
  C  2601  1  0.74347500  0.44563100  0.30487700  1
  C  2602  1  0.73417600  0.46660000  0.29851000  1
  C  2603  1  0.70901800  0.47979400  0.31126700  1
  C  2604  1  0.69326600  0.47152800  0.33058200  1
  C  2605  1  0.70211600  0.45045100  0.33681700  1
  C  2606  1  0.72649500  0.43716400  0.32379000  1
  C  2615  1  0.74337300  0.47832400  0.60803600  1
  C  2616  1  0.73416700  0.45729800  0.61425100  1
  C  2617  1  0.70906400  0.44416600  0.60140100  1
  C  2618  1  0.69329100  0.45255200  0.58214200  1
  C  2619  1  0.70209200  0.47367600  0.57604600  1
  C  2620  1  0.72643100  0.48689500  0.58916200  1
  C  2629  1  0.74337900  0.11334500  0.94031400  1
  C  2630  1  0.73414900  0.11961900  0.96132000  1
  C  2631  1  0.70906100  0.10679400  0.97448500  1
  C  2632  1  0.69330600  0.08750900  0.96615300  1
  C  2633  1  0.70207000  0.08137400  0.94503800  1
  C  2634  1  0.72643100  0.09445100  0.93179100  1
  C  2643  1  0.74355100  0.81021300  0.97299400  1
  C  2644  1  0.73426800  0.80390600  0.95200500  1
  C  2645  1  0.70908300  0.81668900  0.93885000  1
  C  2646  1  0.69331800  0.83597800  0.94717000  1
  C  2647  1  0.70213200  0.84214400  0.96827300  1
  C  2648  1  0.72655900  0.82909700  0.98151800  1
  N  891  1  0.03642000  0.22997900  0.16551900  1
  N  893  1  0.03250900  0.17170300  0.23434400  1
  N  905  1  0.03641500  0.69393600  0.75824000  1
  N  907  1  0.03261600  0.75196700  0.68920000  1
  N  919  1  0.03629800  0.75829100  0.22996200  1
  N  921  1  0.03249300  0.68958900  0.17153800  1
  N  933  1  0.03650200  0.16554600  0.69394900  1
  N  935  1  0.03266800  0.23477800  0.75175200  1
  N  947  1  0.53329600  0.73277600  0.66794500  1
  N  949  1  0.53031700  0.67319800  0.73582600  1
  N  961  1  0.53302000  0.19083300  0.25588700  1
  N  963  1  0.52989400  0.25134500  0.18888200  1
  N  975  1  0.53317600  0.25590700  0.73298600  1
  N  977  1  0.53006900  0.18867600  0.67271200  1
  N  989  1  0.53328100  0.66797000  0.19105100  1
  N  991  1  0.53019200  0.73562600  0.25087200  1
  N  1003  1  0.81009800  0.08284000  0.29236500  1
  N  1005  1  0.68246800  0.13682500  0.32183100  1
  N  1017  1  0.80997500  0.84086500  0.63137900  1
  N  1019  1  0.68250100  0.78667200  0.60207100  1
  N  1031  1  0.81001500  0.63138800  0.08283600  1
  N  1033  1  0.68254700  0.60208800  0.13702800  1
  N  1045  1  0.81009200  0.29239300  0.84087900  1
  N  1047  1  0.68241600  0.32184500  0.78690900  1
  N  1059  1  0.18557800  0.83668000  0.29708300  1
  N  1061  1  0.31134400  0.78124600  0.32582600  1
  N  1073  1  0.18563600  0.08721000  0.62684000  1
  N  1075  1  0.31141200  0.14262300  0.59802900  1
  N  1087  1  0.18566900  0.29708200  0.08717500  1
  N  1089  1  0.31144200  0.32587800  0.14258900  1
  N  1101  1  0.18557900  0.62687400  0.83663600  1
  N  1103  1  0.31129800  0.59808100  0.78119200  1
  N  1115  1  0.18383400  0.83629400  0.63687700  1
  N  1117  1  0.31204000  0.78675300  0.60162300  1
  N  1129  1  0.18376900  0.08750600  0.28690200  1
  N  1131  1  0.31225200  0.13674700  0.32229400  1
  N  1143  1  0.18379000  0.28681400  0.83625300  1
  N  1145  1  0.31214800  0.32227100  0.78697800  1
  N  1157  1  0.18381500  0.63681200  0.08746700  1
  N  1159  1  0.31211100  0.60157600  0.13695100  1
  N  1171  1  0.81111000  0.08817500  0.62581000  1
  N  1173  1  0.68202000  0.14484300  0.60475300  1
  N  1185  1  0.81104300  0.83555100  0.29829800  1
  N  1187  1  0.68191600  0.77882700  0.31912500  1
  N  1199  1  0.81106400  0.62562400  0.83550000  1
  N  1201  1  0.68189700  0.60483900  0.77878400  1
  N  1213  1  0.81113800  0.29818300  0.08807500  1
  N  1215  1  0.68203200  0.31914000  0.14476000  1
  N  1227  1  0.98364900  0.00032600  0.30935600  1
  N  1229  1  0.01933400  0.91547500  0.33509500  1
  N  1241  1  0.98357500  0.92356800  0.61467500  1
  N  1243  1  0.01933600  0.00839400  0.58887500  1
  N  1255  1  0.98358400  0.61436100  0.00023800  1
  N  1257  1  0.01918400  0.58874700  0.91534000  1
  N  1269  1  0.98355700  0.30898300  0.92347800  1
  N  1271  1  0.01937000  0.33496200  0.00824100  1
  N  1283  1  0.48291600  0.50014600  0.80866100  1
  N  1285  1  0.51789000  0.41567800  0.83526700  1
  N  1297  1  0.48300500  0.42375200  0.11448100  1
  N  1299  1  0.51782600  0.50841600  0.08842500  1
  N  1311  1  0.48299600  0.11463000  0.50018200  1
  N  1313  1  0.51782000  0.08835600  0.41559300  1
  N  1325  1  0.48296800  0.80882600  0.42378600  1
  N  1327  1  0.51797000  0.83521400  0.50832500  1
  N  2219  1  0.25115700  0.22997900  0.66021100  1
  N  2221  1  0.24724600  0.17170300  0.72903600  1
  N  2233  1  0.25115200  0.69393600  0.25293200  1
  N  2235  1  0.24735300  0.75196700  0.18389200  1
  N  2247  1  0.25103500  0.75829100  0.72465400  1
  N  2249  1  0.24723000  0.68958900  0.66623000  1
  N  2261  1  0.25123900  0.16554600  0.18864100  1
  N  2263  1  0.24740500  0.23477800  0.24644400  1
  N  2275  1  0.74803300  0.73277600  0.16263700  1
  N  2277  1  0.74505400  0.67319800  0.23051800  1
  N  2289  1  0.74775700  0.19083300  0.75057900  1
  N  2291  1  0.74463100  0.25134500  0.68357400  1
  N  2303  1  0.74791300  0.25590700  0.22767800  1
  N  2305  1  0.74480600  0.18867600  0.16740400  1
  N  2317  1  0.74801800  0.66797000  0.68574300  1
  N  2319  1  0.74492900  0.73562600  0.74556400  1
  N  2331  1  0.02483510  0.08284000  0.78705700  1
  N  2333  1  0.89720500  0.13682500  0.81652300  1
  N  2345  1  0.02471210  0.84086500  0.12607100  1
  N  2347  1  0.89723800  0.78667200  0.09676340  1
  N  2359  1  0.02475210  0.63138800  0.57752800  1
  N  2361  1  0.89728400  0.60208800  0.63172000  1
  N  2373  1  0.02482910  0.29239300  0.33557100  1
  N  2375  1  0.89715300  0.32184500  0.28160100  1
  N  2387  1  0.40031500  0.83668000  0.79177500  1
  N  2389  1  0.52608100  0.78124600  0.82051800  1
  N  2401  1  0.40037300  0.08721000  0.12153200  1
  N  2403  1  0.52614900  0.14262300  0.09272140  1
  N  2415  1  0.40040600  0.29708200  0.58186700  1
  N  2417  1  0.52617900  0.32587800  0.63728100  1
  N  2429  1  0.40031600  0.62687400  0.33132800  1
  N  2431  1  0.52603500  0.59808100  0.27588400  1
  N  2443  1  0.39857100  0.83629400  0.13156900  1
  N  2445  1  0.52677700  0.78675300  0.09631540  1
  N  2457  1  0.39850600  0.08750600  0.78159400  1
  N  2459  1  0.52698900  0.13674700  0.81698600  1
  N  2471  1  0.39852700  0.28681400  0.33094500  1
  N  2473  1  0.52688500  0.32227100  0.28167000  1
  N  2485  1  0.39855200  0.63681200  0.58215900  1
  N  2487  1  0.52684800  0.60157600  0.63164300  1
  N  2499  1  0.02584710  0.08817500  0.12050200  1
  N  2501  1  0.89675700  0.14484300  0.09944540  1
  N  2513  1  0.02578010  0.83555100  0.79299000  1
  N  2515  1  0.89665300  0.77882700  0.81381700  1
  N  2527  1  0.02580110  0.62562400  0.33019200  1
  N  2529  1  0.89663400  0.60483900  0.27347600  1
  N  2541  1  0.02587510  0.29818300  0.58276700  1
  N  2543  1  0.89676900  0.31914000  0.63945200  1
  N  2555  1  0.19838600  0.00032600  0.80404800  1
  N  2557  1  0.23407100  0.91547500  0.82978700  1
  N  2569  1  0.19831200  0.92356800  0.10936700  1
  N  2571  1  0.23407300  0.00839400  0.08356740  1
  N  2583  1  0.19832100  0.61436100  0.49493000  1
  N  2585  1  0.23392100  0.58874700  0.41003200  1
  N  2597  1  0.19829400  0.30898300  0.41817000  1
  N  2599  1  0.23410700  0.33496200  0.50293300  1
  N  2611  1  0.69765300  0.50014600  0.30335300  1
  N  2613  1  0.73262700  0.41567800  0.32995900  1
  N  2625  1  0.69774200  0.42375200  0.60917300  1
  N  2627  1  0.73256300  0.50841600  0.58311700  1
  N  2639  1  0.69773300  0.11463000  0.99487400  1
  N  2641  1  0.73255700  0.08835600  0.91028500  1
  N  2653  1  0.69770500  0.80882600  0.91847800  1
  N  2655  1  0.73270700  0.83521400  0.00301743  1
