# generated using pymatgen
data_H14C25N3
_symmetry_space_group_name_H-M   'P 1'
_cell_length_a   21.40955000
_cell_length_b   44.38340000
_cell_length_c   72.11320000
_cell_angle_alpha   90.00000000
_cell_angle_beta   89.99740000
_cell_angle_gamma   89.99790000
_symmetry_Int_Tables_number   1
_chemical_formula_structural   H14C25N3
_chemical_formula_sum   'H448 C800 N96'
_cell_volume   68524.02650921
_cell_formula_units_Z   32
loop_
 _symmetry_equiv_pos_site_id
 _symmetry_equiv_pos_as_xyz
  1  'x, y, z'
loop_
 _atom_site_type_symbol
 _atom_site_label
 _atom_site_symmetry_multiplicity
 _atom_site_fract_x
 _atom_site_fract_y
 _atom_site_fract_z
 _atom_site_occupancy
  C  1  1  0.99305000  0.08790300  0.09128500  1
  C  2  1  0.99304600  0.17032800  0.04754400  1
  C  3  1  0.99304500  0.18996900  0.11401700  1
  C  4  1  0.99304400  0.20175500  0.04413300  1
  C  5  1  0.99304300  0.21302600  0.02599900  1
  C  6  1  0.99304300  0.19327600  0.01072900  1
  C  7  1  0.99304500  0.16186000  0.01372900  1
  C  8  1  0.99304500  0.15054200  0.03201800  1
  C  9  1  0.99305100  0.06616900  0.07680600  1
  C  10  1  0.99304900  0.03530900  0.08098700  1
  C  11  1  0.99304100  0.02651650  0.09969600  1
  C  12  1  0.99304400  0.04741500  0.11425050  1
  C  13  1  0.99304900  0.07804450  0.11000000  1
  C  14  1  0.99304600  0.18074200  0.13294900  1
  C  15  1  0.99304400  0.20219000  0.14745350  1
  C  16  1  0.99303900  0.23320200  0.14307150  1
  C  17  1  0.99303900  0.24247600  0.12443900  1
  C  18  1  0.99304000  0.22122600  0.11015200  1
  C  30  1  0.99304800  0.16935000  0.09887050  1
  C  32  1  0.99305200  0.11906300  0.08753100  1
  C  34  1  0.99304800  0.15956700  0.06613400  1
  C  40  1  0.99305300  0.08785900  0.88095350  1
  C  41  1  0.99304400  0.17032600  0.92465300  1
  C  42  1  0.99304300  0.18996500  0.85818000  1
  C  43  1  0.99304100  0.20175400  0.92806150  1
  C  44  1  0.99304100  0.21302600  0.94619550  1
  C  45  1  0.99304300  0.19327700  0.96146600  1
  C  46  1  0.99304700  0.16186000  0.95846800  1
  C  47  1  0.99304900  0.15054200  0.94017950  1
  C  48  1  0.99305600  0.06594150  0.89535000  1
  C  49  1  0.99305800  0.03502000  0.89106400  1
  C  50  1  0.99305500  0.02645500  0.87227350  1
  C  51  1  0.99305200  0.04768400  0.85790500  1
  C  52  1  0.99305100  0.07819100  0.86223000  1
  C  53  1  0.99304300  0.18073800  0.83924700  1
  C  54  1  0.99304400  0.20218500  0.82474150  1
  C  55  1  0.99304400  0.23320000  0.82912100  1
  C  56  1  0.99304300  0.24247100  0.84775450  1
  C  57  1  0.99304200  0.22122300  0.86204250  1
  C  69  1  0.99304400  0.16934600  0.87333050  1
  C  71  1  0.99305100  0.11903800  0.88468900  1
  C  73  1  0.99304500  0.15955600  0.90606550  1
  C  79  1  0.99306500  0.88374500  0.88095150  1
  C  80  1  0.99307400  0.80127900  0.92465100  1
  C  81  1  0.99307600  0.78164100  0.85817950  1
  C  82  1  0.99307700  0.76985100  0.92806000  1
  C  83  1  0.99307800  0.75857900  0.94619400  1
  C  84  1  0.99307600  0.77832700  0.96146400  1
  C  85  1  0.99307100  0.80974400  0.95846600  1
  C  86  1  0.99307000  0.82106400  0.94017800  1
  C  87  1  0.99306200  0.90565600  0.89535150  1
  C  88  1  0.99306000  0.93657500  0.89106950  1
  C  89  1  0.99306400  0.94514400  0.87228200  1
  C  90  1  0.99306600  0.92392900  0.85790650  1
  C  91  1  0.99306800  0.89341700  0.86222950  1
  C  92  1  0.99307600  0.79086600  0.83924650  1
  C  93  1  0.99307700  0.76941800  0.82474150  1
  C  94  1  0.99307900  0.73840500  0.82912200  1
  C  95  1  0.99307700  0.72913300  0.84775550  1
  C  96  1  0.99307500  0.75038200  0.86204350  1
  C  108  1  0.99307400  0.80225900  0.87332900  1
  C  110  1  0.99306700  0.85256700  0.88468800  1
  C  112  1  0.99307300  0.81204900  0.90606500  1
  C  118  1  0.99307300  0.88381200  0.09121800  1
  C  119  1  0.99307400  0.80127900  0.04753700  1
  C  120  1  0.99307300  0.78164800  0.11401300  1
  C  121  1  0.99307700  0.76984900  0.04412900  1
  C  122  1  0.99307700  0.75857600  0.02599600  1
  C  123  1  0.99307600  0.77832500  0.01072500  1
  C  124  1  0.99307400  0.80974200  0.01372200  1
  C  125  1  0.99307400  0.82106200  0.03201000  1
  C  126  1  0.99307700  0.90590900  0.07691900  1
  C  127  1  0.99308500  0.93687100  0.08136300  1
  C  128  1  0.99308300  0.94540650  0.10025850  1
  C  129  1  0.99308800  0.92374600  0.11438100  1
  C  130  1  0.99307600  0.89332700  0.10994500  1
  C  131  1  0.99307100  0.79088800  0.13294400  1
  C  132  1  0.99306900  0.76945200  0.14745750  1
  C  133  1  0.99306500  0.73843400  0.14308950  1
  C  134  1  0.99306600  0.72914700  0.12445900  1
  C  135  1  0.99307300  0.75038400  0.11016300  1
  C  147  1  0.99307400  0.80226400  0.09885600  1
  C  149  1  0.99306600  0.85260300  0.08748200  1
  C  151  1  0.99307300  0.81205800  0.06612200  1
  C  157  1  0.49297500  0.08776900  0.59122150  1
  C  158  1  0.49297100  0.17032000  0.54754150  1
  C  159  1  0.49296900  0.18995600  0.61401050  1
  C  160  1  0.49296800  0.20175000  0.54413450  1
  C  161  1  0.49296800  0.21302400  0.52600150  1
  C  162  1  0.49296700  0.19327800  0.51073000  1
  C  163  1  0.49296900  0.16186100  0.51372650  1
  C  164  1  0.49297000  0.15053900  0.53201350  1
  C  165  1  0.49297100  0.06563000  0.57694650  1
  C  166  1  0.49296400  0.03467350  0.58142500  1
  C  167  1  0.49293300  0.02617850  0.60032300  1
  C  168  1  0.49296100  0.04787750  0.61441950  1
  C  169  1  0.49297100  0.07828300  0.60995200  1
  C  170  1  0.49297000  0.18073550  0.63294450  1
  C  171  1  0.49296800  0.20218550  0.64745050  1
  C  172  1  0.49296300  0.23320000  0.64307050  1
  C  173  1  0.49296300  0.24246900  0.62443650  1
  C  174  1  0.49296500  0.22121700  0.61014850  1
  C  186  1  0.49297100  0.16933100  0.59885800  1
  C  188  1  0.49297700  0.11898500  0.58748350  1
  C  190  1  0.49297200  0.15953250  0.56612450  1
  C  196  1  0.49297700  0.08785800  0.38095850  1
  C  197  1  0.49297100  0.17032900  0.42465550  1
  C  198  1  0.49296700  0.18996300  0.35817900  1
  C  199  1  0.49296600  0.20175700  0.42806400  1
  C  200  1  0.49296500  0.21302800  0.44619800  1
  C  201  1  0.49296700  0.19327900  0.46146850  1
  C  202  1  0.49297100  0.16186200  0.45846950  1
  C  203  1  0.49297200  0.15054400  0.44018100  1
  C  204  1  0.49298100  0.06592400  0.39534700  1
  C  205  1  0.49298100  0.03499800  0.39104950  1
  C  206  1  0.49297900  0.02644100  0.37225050  1
  C  207  1  0.49297500  0.04770500  0.35790200  1
  C  208  1  0.49297500  0.07820400  0.36223550  1
  C  209  1  0.49296700  0.18072500  0.33924800  1
  C  210  1  0.49295900  0.20216300  0.32473750  1
  C  211  1  0.49294300  0.23318000  0.32910800  1
  C  212  1  0.49294500  0.24246500  0.34773950  1
  C  213  1  0.49295800  0.22122400  0.36203350  1
  C  225  1  0.49297300  0.16935000  0.37333250  1
  C  227  1  0.49297700  0.11903900  0.38469350  1
  C  229  1  0.49297200  0.15956000  0.40606800  1
  C  235  1  0.49298900  0.88374000  0.38094900  1
  C  236  1  0.49299800  0.80127900  0.42465100  1
  C  237  1  0.49299900  0.78163900  0.35817900  1
  C  238  1  0.49300000  0.76985100  0.42806100  1
  C  239  1  0.49300100  0.75857900  0.44619450  1
  C  240  1  0.49299900  0.77832900  0.46146550  1
  C  241  1  0.49299500  0.80974400  0.45846600  1
  C  242  1  0.49299300  0.82106400  0.44017800  1
  C  243  1  0.49298500  0.90563800  0.39535650  1
  C  244  1  0.49298500  0.93655300  0.39108450  1
  C  245  1  0.49298700  0.94513300  0.37230400  1
  C  246  1  0.49299100  0.92394700  0.35791150  1
  C  247  1  0.49299100  0.89342900  0.36222700  1
  C  248  1  0.49299800  0.79086600  0.33924650  1
  C  249  1  0.49300000  0.76941800  0.32474150  1
  C  250  1  0.49300000  0.73840500  0.32912150  1
  C  251  1  0.49300100  0.72913100  0.34775550  1
  C  252  1  0.49299900  0.75038200  0.36204250  1
  C  264  1  0.49299800  0.80225900  0.37332900  1
  C  266  1  0.49299100  0.85256400  0.38468600  1
  C  268  1  0.49299700  0.81204900  0.40606450  1
  C  274  1  0.49299300  0.88369300  0.59129850  1
  C  275  1  0.49299800  0.80127700  0.54754350  1
  C  276  1  0.49299700  0.78163500  0.61401750  1
  C  277  1  0.49300000  0.76984900  0.54413250  1
  C  278  1  0.49300100  0.75857900  0.52599850  1
  C  279  1  0.49299900  0.77832700  0.51072750  1
  C  280  1  0.49299900  0.80974400  0.51372800  1
  C  281  1  0.49299900  0.82106200  0.53201700  1
  C  282  1  0.49299700  0.90537700  0.57679250  1
  C  283  1  0.49299900  0.93624900  0.58089750  1
  C  284  1  0.49296500  0.94514500  0.59958350  1
  C  285  1  0.49300200  0.92429350  0.61417700  1
  C  286  1  0.49299700  0.89361550  0.61000250  1
  C  287  1  0.49299800  0.79086600  0.63294900  1
  C  288  1  0.49300000  0.76942300  0.64745500  1
  C  289  1  0.49300500  0.73840900  0.64307750  1
  C  290  1  0.49300800  0.72913100  0.62444550  1
  C  291  1  0.49300300  0.75037500  0.61015550  1
  C  303  1  0.49299500  0.80225000  0.59887050  1
  C  305  1  0.49299100  0.85253500  0.58753800  1
  C  307  1  0.49299500  0.81203300  0.56613450  1
  C  313  1  0.93962500  0.35020800  0.22445450  1
  C  314  1  0.96041500  0.33862000  0.24143050  1
  C  315  1  0.02558700  0.33861800  0.24143000  1
  C  316  1  0.04637900  0.35020800  0.22445450  1
  C  317  1  0.11080400  0.35337100  0.22087800  1
  C  318  1  0.15541000  0.34471900  0.23447000  1
  C  319  1  0.13293500  0.33216300  0.25140750  1
  C  320  1  0.06850500  0.32938400  0.25505700  1
  C  321  1  0.91750100  0.32937800  0.25505650  1
  C  322  1  0.85306800  0.33215600  0.25140850  1
  C  323  1  0.83058700  0.34472100  0.23447450  1
  C  324  1  0.87519700  0.35336600  0.22087950  1
  C  325  1  0.99301300  0.38921500  0.20552050  1
  C  326  1  0.99302700  0.39044300  0.18616250  1
  C  327  1  0.99302500  0.36110800  0.17922300  1
  C  328  1  0.99301500  0.34127900  0.19433850  1
  C  329  1  0.99303900  0.35000500  0.16094100  1
  C  330  1  0.99304200  0.31852500  0.15817250  1
  C  331  1  0.99304100  0.29787900  0.17340900  1
  C  332  1  0.99302900  0.30985900  0.19160250  1
  C  333  1  0.99303000  0.41583100  0.21615700  1
  C  334  1  0.99304700  0.44505200  0.20776700  1
  C  335  1  0.99304700  0.44481300  0.18801450  1
  C  336  1  0.99304400  0.41839100  0.17716150  1
  C  349  1  0.99300400  0.35774000  0.21220050  1
  C  350  1  0.99304600  0.26659100  0.17116450  1
  C  351  1  0.99305800  0.47043000  0.21993500  1
  C  352  1  0.76693500  0.34636200  0.23002050  1
  C  353  1  0.21906000  0.34638000  0.23002050  1
  C  358  1  0.04637400  0.35020800  0.74774000  1
  C  359  1  0.02558600  0.33862100  0.73076400  1
  C  360  1  0.96041300  0.33862400  0.73076450  1
  C  361  1  0.93962200  0.35021300  0.74774050  1
  C  362  1  0.87519200  0.35337100  0.75131900  1
  C  363  1  0.83058900  0.34470500  0.73772800  1
  C  364  1  0.85306600  0.33216500  0.72078650  1
  C  365  1  0.91749500  0.32938000  0.71714000  1
  C  366  1  0.06850300  0.32938400  0.71713650  1
  C  367  1  0.13293500  0.33216000  0.72078500  1
  C  368  1  0.15540600  0.34469600  0.73772850  1
  C  369  1  0.11080000  0.35336400  0.75131750  1
  C  370  1  0.99302300  0.38923150  0.76666000  1
  C  371  1  0.99303200  0.39045150  0.78602500  1
  C  372  1  0.99301800  0.36111150  0.79297050  1
  C  373  1  0.99300500  0.34128200  0.77785600  1
  C  374  1  0.99302100  0.35000500  0.81125250  1
  C  375  1  0.99302300  0.31852200  0.81402150  1
  C  376  1  0.99302100  0.29787900  0.79878450  1
  C  377  1  0.99301000  0.30986100  0.78059050  1
  C  378  1  0.99304200  0.41583000  0.75599400  1
  C  379  1  0.99298300  0.44504150  0.76441250  1
  C  380  1  0.99285300  0.44481250  0.78417450  1
  C  381  1  0.99296700  0.41839500  0.79502900  1
  C  394  1  0.99300100  0.35774650  0.75999350  1
  C  395  1  0.99302700  0.26659100  0.80102800  1
  C  396  1  0.99301700  0.47043600  0.75225850  1
  C  397  1  0.21905600  0.34635700  0.74217500  1
  C  398  1  0.76693300  0.34637300  0.74217550  1
  C  403  1  0.93967300  0.62139800  0.74774000  1
  C  404  1  0.96047000  0.63298550  0.73076450  1
  C  405  1  0.02564200  0.63298400  0.73076450  1
  C  406  1  0.04642900  0.62139100  0.74774000  1
  C  407  1  0.11085500  0.61822700  0.75131500  1
  C  408  1  0.15546100  0.62687600  0.73771950  1
  C  409  1  0.13298800  0.63944200  0.72078550  1
  C  410  1  0.06855800  0.64222700  0.71713900  1
  C  411  1  0.91755600  0.64223300  0.71714050  1
  C  412  1  0.85312500  0.63944900  0.72078650  1
  C  413  1  0.83064000  0.62688500  0.73772050  1
  C  414  1  0.87524700  0.61823900  0.75131600  1
  C  415  1  0.99304100  0.58240150  0.76669600  1
  C  416  1  0.99304500  0.58116350  0.78604400  1
  C  417  1  0.99306500  0.61049950  0.79297350  1
  C  418  1  0.99306000  0.63032600  0.77785700  1
  C  419  1  0.99308900  0.62160200  0.81125450  1
  C  420  1  0.99309600  0.65308200  0.81402250  1
  C  421  1  0.99308900  0.67372500  0.79878550  1
  C  422  1  0.99307600  0.66174500  0.78059150  1
  C  423  1  0.99304500  0.55576950  0.75608700  1
  C  424  1  0.99312500  0.52653600  0.76444200  1
  C  425  1  0.99326800  0.52678450  0.78418750  1
  C  426  1  0.99314400  0.55320800  0.79503950  1
  C  439  1  0.99305100  0.61386350  0.75999550  1
  C  440  1  0.99309100  0.70501400  0.80102950  1
  C  441  1  0.99310600  0.50117400  0.75226000  1
  C  442  1  0.76698900  0.62524300  0.74217350  1
  C  443  1  0.21910800  0.62523200  0.74217450  1
  C  448  1  0.04643300  0.62139000  0.22445250  1
  C  449  1  0.02563500  0.63298000  0.24142750  1
  C  450  1  0.96046300  0.63297500  0.24142850  1
  C  451  1  0.93967600  0.62138600  0.22445300  1
  C  452  1  0.87524900  0.61822900  0.22087600  1
  C  453  1  0.83063800  0.62688300  0.23446850  1
  C  454  1  0.85311500  0.63942600  0.25140900  1
  C  455  1  0.91754400  0.64221300  0.25505500  1
  C  456  1  0.06854400  0.64222700  0.25505250  1
  C  457  1  0.13297800  0.63945300  0.25140550  1
  C  458  1  0.15545600  0.62689700  0.23446850  1
  C  459  1  0.11085900  0.61823300  0.22087500  1
  C  460  1  0.99306300  0.58238200  0.20551500  1
  C  461  1  0.99306400  0.58115700  0.18615800  1
  C  462  1  0.99306100  0.61049900  0.17921850  1
  C  463  1  0.99305500  0.63032100  0.19433650  1
  C  464  1  0.99306500  0.62161500  0.16093900  1
  C  465  1  0.99307300  0.65309800  0.15817700  1
  C  466  1  0.99307500  0.67373400  0.17341800  1
  C  467  1  0.99306200  0.66174100  0.19160900  1
  C  468  1  0.99306500  0.55576900  0.21615200  1
  C  469  1  0.99306700  0.52654600  0.20776400  1
  C  470  1  0.99307200  0.52678700  0.18801050  1
  C  471  1  0.99307000  0.55320700  0.17715750  1
  C  484  1  0.99305700  0.61385600  0.21219850  1
  C  485  1  0.99310100  0.70502700  0.17118550  1
  C  486  1  0.99306500  0.50116900  0.21993350  1
  C  487  1  0.21910900  0.62524300  0.23001750  1
  C  488  1  0.76698700  0.62523400  0.23001850  1
  C  493  1  0.43961900  0.35020900  0.72445450  1
  C  494  1  0.46040700  0.33861800  0.74143000  1
  C  495  1  0.52558100  0.33862200  0.74143050  1
  C  496  1  0.54637000  0.35021000  0.72445400  1
  C  497  1  0.61079900  0.35337000  0.72087700  1
  C  498  1  0.65540100  0.34470500  0.73446750  1
  C  499  1  0.63292700  0.33217800  0.75141250  1
  C  500  1  0.56849500  0.32938400  0.75505700  1
  C  501  1  0.41748900  0.32937300  0.75505400  1
  C  502  1  0.35305700  0.33216500  0.75140950  1
  C  503  1  0.33058500  0.34470100  0.73446650  1
  C  504  1  0.37519100  0.35336900  0.72087750  1
  C  505  1  0.49298900  0.38921800  0.70552050  1
  C  506  1  0.49298500  0.39044600  0.68616350  1
  C  507  1  0.49298400  0.36110800  0.67922350  1
  C  508  1  0.49299300  0.34128100  0.69433850  1
  C  509  1  0.49297300  0.35000500  0.66094100  1
  C  510  1  0.49296900  0.31852500  0.65817250  1
  C  511  1  0.49297300  0.29788050  0.67340850  1
  C  512  1  0.49298400  0.30986100  0.69160250  1
  C  513  1  0.49298700  0.41583300  0.71615700  1
  C  514  1  0.49298100  0.44505400  0.70776850  1
  C  515  1  0.49297100  0.44481500  0.68801450  1
  C  516  1  0.49297500  0.41839300  0.67716150  1
  C  529  1  0.49299400  0.35774200  0.71220050  1
  C  530  1  0.49296500  0.26659100  0.67116400  1
  C  531  1  0.49297900  0.47043300  0.71993600  1
  C  532  1  0.26693500  0.34636400  0.73001900  1
  C  533  1  0.71905700  0.34637100  0.73001950  1
  C  538  1  0.54636500  0.35021000  0.24774150  1
  C  539  1  0.52557400  0.33862200  0.23076650  1
  C  540  1  0.46040100  0.33862400  0.23076600  1
  C  541  1  0.43961000  0.35021700  0.24774100  1
  C  542  1  0.37518200  0.35338200  0.25131650  1
  C  543  1  0.33058100  0.34473000  0.23772200  1
  C  544  1  0.35306100  0.33216500  0.22078750  1
  C  545  1  0.41749000  0.32938000  0.21714150  1
  C  546  1  0.56849000  0.32937300  0.21714300  1
  C  547  1  0.63292100  0.33215600  0.22078800  1
  C  548  1  0.65540100  0.34472100  0.23772200  1
  C  549  1  0.61079200  0.35336900  0.25131750  1
  C  550  1  0.49299400  0.38922000  0.26667850  1
  C  551  1  0.49298900  0.39044800  0.28603550  1
  C  552  1  0.49296600  0.36110800  0.29297450  1
  C  553  1  0.49296900  0.34128300  0.27785700  1
  C  554  1  0.49294100  0.34999300  0.31125450  1
  C  555  1  0.49294300  0.31851100  0.31401800  1
  C  556  1  0.49295900  0.29787300  0.29877800  1
  C  557  1  0.49295800  0.30986400  0.28058700  1
  C  558  1  0.49299700  0.41583600  0.25604100  1
  C  559  1  0.49291900  0.44505600  0.26442950  1
  C  560  1  0.49277500  0.44481700  0.28418300  1
  C  561  1  0.49289900  0.41839700  0.29503550  1
  C  574  1  0.49298700  0.35774600  0.25999600  1
  C  575  1  0.49299200  0.26658200  0.30101350  1
  C  576  1  0.49294100  0.47043500  0.25226050  1
  C  577  1  0.71905300  0.34636200  0.24217500  1
  C  578  1  0.26693500  0.34638200  0.24217600  1
  C  583  1  0.43966100  0.62139700  0.24773850  1
  C  584  1  0.46045800  0.63298700  0.23076300  1
  C  585  1  0.52563100  0.63298200  0.23076400  1
  C  586  1  0.54641700  0.62139200  0.24773950  1
  C  587  1  0.61084500  0.61823600  0.25131800  1
  C  588  1  0.65545000  0.62690100  0.23772750  1
  C  589  1  0.63298000  0.63943300  0.22078350  1
  C  590  1  0.56855100  0.64222700  0.21713950  1
  C  591  1  0.41754600  0.64223600  0.21713950  1
  C  592  1  0.35311300  0.63944400  0.22078300  1
  C  593  1  0.33063700  0.62689900  0.23772200  1
  C  594  1  0.37523600  0.61823300  0.25131400  1
  C  595  1  0.49301200  0.58238700  0.26667450  1
  C  596  1  0.49300300  0.58115900  0.28603150  1
  C  597  1  0.49301900  0.61049600  0.29297050  1
  C  598  1  0.49302700  0.63032600  0.27785550  1
  C  599  1  0.49302100  0.62160000  0.31125300  1
  C  600  1  0.49301800  0.65308200  0.31402100  1
  C  601  1  0.49301900  0.67372500  0.29878500  1
  C  602  1  0.49302500  0.66174500  0.28059050  1
  C  603  1  0.49299800  0.55577300  0.25603750  1
  C  604  1  0.49305800  0.52655100  0.26442650  1
  C  605  1  0.49318900  0.52679200  0.28418000  1
  C  606  1  0.49307000  0.55321100  0.29503250  1
  C  619  1  0.49303300  0.61386200  0.25999300  1
  C  620  1  0.49301200  0.70501400  0.30102900  1
  C  621  1  0.49302700  0.50117200  0.25225950  1
  C  622  1  0.26698500  0.62524300  0.24217350  1
  C  623  1  0.71910600  0.62523200  0.24217400  1
  C  628  1  0.54641900  0.62139500  0.72445400  1
  C  629  1  0.52562500  0.63298400  0.74142950  1
  C  630  1  0.46045300  0.63298700  0.74142950  1
  C  631  1  0.43966500  0.62139700  0.72445450  1
  C  632  1  0.37524100  0.61823100  0.72087750  1
  C  633  1  0.33063800  0.62690100  0.73446650  1
  C  634  1  0.35310300  0.63944400  0.75140850  1
  C  635  1  0.41753200  0.64222400  0.75505550  1
  C  636  1  0.56853700  0.64222700  0.75505600  1
  C  637  1  0.63296900  0.63944900  0.75140800  1
  C  638  1  0.65545500  0.62688300  0.73447350  1
  C  639  1  0.61084900  0.61823600  0.72087950  1
  C  640  1  0.49303300  0.58238700  0.70551850  1
  C  641  1  0.49302100  0.58115900  0.68616150  1
  C  642  1  0.49302300  0.61049600  0.67922250  1
  C  643  1  0.49303700  0.63032400  0.69433850  1
  C  644  1  0.49300700  0.62160400  0.66094100  1
  C  645  1  0.49300200  0.65308700  0.65817450  1
  C  646  1  0.49300500  0.67372700  0.67341150  1
  C  647  1  0.49302000  0.66174300  0.69160500  1
  C  648  1  0.49301400  0.55577100  0.71615550  1
  C  649  1  0.49299700  0.52655100  0.70776750  1
  C  650  1  0.49299500  0.52678900  0.68801350  1
  C  651  1  0.49300000  0.55321100  0.67716100  1
  C  664  1  0.49304200  0.61386200  0.71220050  1
  C  665  1  0.49299300  0.70501600  0.67117050  1
  C  666  1  0.49298500  0.50117200  0.71993550  1
  C  667  1  0.71910600  0.62524300  0.73002050  1
  C  668  1  0.26698800  0.62522900  0.73001900  1
  C  1345  1  0.27329800  0.08790300  0.24382300  1
  C  1346  1  0.27329400  0.17032800  0.20008200  1
  C  1347  1  0.27329300  0.18996900  0.26655500  1
  C  1348  1  0.27329200  0.20175500  0.19667100  1
  C  1349  1  0.27329100  0.21302600  0.17853700  1
  C  1350  1  0.27329100  0.19327600  0.16326700  1
  C  1351  1  0.27329300  0.16186000  0.16626700  1
  C  1352  1  0.27329300  0.15054200  0.18455600  1
  C  1353  1  0.27329900  0.06616900  0.22934400  1
  C  1354  1  0.27329700  0.03530900  0.23352500  1
  C  1355  1  0.27328900  0.02651650  0.25223400  1
  C  1356  1  0.27329200  0.04741500  0.26678850  1
  C  1357  1  0.27329700  0.07804450  0.26253800  1
  C  1358  1  0.27329400  0.18074200  0.28548700  1
  C  1359  1  0.27329200  0.20219000  0.29999150  1
  C  1360  1  0.27328700  0.23320200  0.29560950  1
  C  1361  1  0.27328700  0.24247600  0.27697700  1
  C  1362  1  0.27328800  0.22122600  0.26269000  1
  C  1374  1  0.27329600  0.16935000  0.25140850  1
  C  1376  1  0.27330000  0.11906300  0.24006900  1
  C  1378  1  0.27329600  0.15956700  0.21867200  1
  C  1384  1  0.27330100  0.08785900  0.03349150  1
  C  1385  1  0.27329200  0.17032600  0.07719100  1
  C  1386  1  0.27329100  0.18996500  0.01071800  1
  C  1387  1  0.27328900  0.20175400  0.08059950  1
  C  1388  1  0.27328900  0.21302600  0.09873350  1
  C  1389  1  0.27329100  0.19327700  0.11400400  1
  C  1390  1  0.27329500  0.16186000  0.11100600  1
  C  1391  1  0.27329700  0.15054200  0.09271750  1
  C  1392  1  0.27330400  0.06594150  0.04788800  1
  C  1393  1  0.27330600  0.03502000  0.04360200  1
  C  1394  1  0.27330300  0.02645500  0.02481150  1
  C  1395  1  0.27330000  0.04768400  0.01044300  1
  C  1396  1  0.27329900  0.07819100  0.01476800  1
  C  1397  1  0.27329100  0.18073800  0.99178500  1
  C  1398  1  0.27329200  0.20218500  0.97727950  1
  C  1399  1  0.27329200  0.23320000  0.98165900  1
  C  1400  1  0.27329100  0.24247100  0.00029245  1
  C  1401  1  0.27329000  0.22122300  0.01458050  1
  C  1413  1  0.27329200  0.16934600  0.02586850  1
  C  1415  1  0.27329900  0.11903800  0.03722700  1
  C  1417  1  0.27329300  0.15955600  0.05860350  1
  C  1423  1  0.27331300  0.88374500  0.03348950  1
  C  1424  1  0.27332200  0.80127900  0.07718900  1
  C  1425  1  0.27332400  0.78164100  0.01071750  1
  C  1426  1  0.27332500  0.76985100  0.08059800  1
  C  1427  1  0.27332600  0.75857900  0.09873200  1
  C  1428  1  0.27332400  0.77832700  0.11400200  1
  C  1429  1  0.27331900  0.80974400  0.11100400  1
  C  1430  1  0.27331800  0.82106400  0.09271600  1
  C  1431  1  0.27331000  0.90565600  0.04788950  1
  C  1432  1  0.27330800  0.93657500  0.04360750  1
  C  1433  1  0.27331200  0.94514400  0.02482000  1
  C  1434  1  0.27331400  0.92392900  0.01044450  1
  C  1435  1  0.27331600  0.89341700  0.01476750  1
  C  1436  1  0.27332400  0.79086600  0.99178450  1
  C  1437  1  0.27332500  0.76941800  0.97727950  1
  C  1438  1  0.27332700  0.73840500  0.98166000  1
  C  1439  1  0.27332500  0.72913300  0.00029345  1
  C  1440  1  0.27332300  0.75038200  0.01458150  1
  C  1452  1  0.27332200  0.80225900  0.02586700  1
  C  1454  1  0.27331500  0.85256700  0.03722600  1
  C  1456  1  0.27332100  0.81204900  0.05860300  1
  C  1462  1  0.27332100  0.88381200  0.24375600  1
  C  1463  1  0.27332200  0.80127900  0.20007500  1
  C  1464  1  0.27332100  0.78164800  0.26655100  1
  C  1465  1  0.27332500  0.76984900  0.19666700  1
  C  1466  1  0.27332500  0.75857600  0.17853400  1
  C  1467  1  0.27332400  0.77832500  0.16326300  1
  C  1468  1  0.27332200  0.80974200  0.16626000  1
  C  1469  1  0.27332200  0.82106200  0.18454800  1
  C  1470  1  0.27332500  0.90590900  0.22945700  1
  C  1471  1  0.27333300  0.93687100  0.23390100  1
  C  1472  1  0.27333100  0.94540650  0.25279650  1
  C  1473  1  0.27333600  0.92374600  0.26691900  1
  C  1474  1  0.27332400  0.89332700  0.26248300  1
  C  1475  1  0.27331900  0.79088800  0.28548200  1
  C  1476  1  0.27331700  0.76945200  0.29999550  1
  C  1477  1  0.27331300  0.73843400  0.29562750  1
  C  1478  1  0.27331400  0.72914700  0.27699700  1
  C  1479  1  0.27332100  0.75038400  0.26270100  1
  C  1491  1  0.27332200  0.80226400  0.25139400  1
  C  1493  1  0.27331400  0.85260300  0.24002000  1
  C  1495  1  0.27332100  0.81205800  0.21866000  1
  C  1501  1  0.77322300  0.08776900  0.74375950  1
  C  1502  1  0.77321900  0.17032000  0.70007950  1
  C  1503  1  0.77321700  0.18995600  0.76654850  1
  C  1504  1  0.77321600  0.20175000  0.69667250  1
  C  1505  1  0.77321600  0.21302400  0.67853950  1
  C  1506  1  0.77321500  0.19327800  0.66326800  1
  C  1507  1  0.77321700  0.16186100  0.66626450  1
  C  1508  1  0.77321800  0.15053900  0.68455150  1
  C  1509  1  0.77321900  0.06563000  0.72948450  1
  C  1510  1  0.77321200  0.03467350  0.73396300  1
  C  1511  1  0.77318100  0.02617850  0.75286100  1
  C  1512  1  0.77320900  0.04787750  0.76695750  1
  C  1513  1  0.77321900  0.07828300  0.76249000  1
  C  1514  1  0.77321800  0.18073550  0.78548250  1
  C  1515  1  0.77321600  0.20218550  0.79998850  1
  C  1516  1  0.77321100  0.23320000  0.79560850  1
  C  1517  1  0.77321100  0.24246900  0.77697450  1
  C  1518  1  0.77321300  0.22121700  0.76268650  1
  C  1530  1  0.77321900  0.16933100  0.75139600  1
  C  1532  1  0.77322500  0.11898500  0.74002150  1
  C  1534  1  0.77322000  0.15953250  0.71866250  1
  C  1540  1  0.77322500  0.08785800  0.53349650  1
  C  1541  1  0.77321900  0.17032900  0.57719350  1
  C  1542  1  0.77321500  0.18996300  0.51071700  1
  C  1543  1  0.77321400  0.20175700  0.58060200  1
  C  1544  1  0.77321300  0.21302800  0.59873600  1
  C  1545  1  0.77321500  0.19327900  0.61400650  1
  C  1546  1  0.77321900  0.16186200  0.61100750  1
  C  1547  1  0.77322000  0.15054400  0.59271900  1
  C  1548  1  0.77322900  0.06592400  0.54788500  1
  C  1549  1  0.77322900  0.03499800  0.54358750  1
  C  1550  1  0.77322700  0.02644100  0.52478850  1
  C  1551  1  0.77322300  0.04770500  0.51044000  1
  C  1552  1  0.77322300  0.07820400  0.51477350  1
  C  1553  1  0.77321500  0.18072500  0.49178600  1
  C  1554  1  0.77320700  0.20216300  0.47727550  1
  C  1555  1  0.77319100  0.23318000  0.48164600  1
  C  1556  1  0.77319300  0.24246500  0.50027750  1
  C  1557  1  0.77320600  0.22122400  0.51457150  1
  C  1569  1  0.77322100  0.16935000  0.52587050  1
  C  1571  1  0.77322500  0.11903900  0.53723150  1
  C  1573  1  0.77322000  0.15956000  0.55860600  1
  C  1579  1  0.77323700  0.88374000  0.53348700  1
  C  1580  1  0.77324600  0.80127900  0.57718900  1
  C  1581  1  0.77324700  0.78163900  0.51071700  1
  C  1582  1  0.77324800  0.76985100  0.58059900  1
  C  1583  1  0.77324900  0.75857900  0.59873250  1
  C  1584  1  0.77324700  0.77832900  0.61400350  1
  C  1585  1  0.77324300  0.80974400  0.61100400  1
  C  1586  1  0.77324100  0.82106400  0.59271600  1
  C  1587  1  0.77323300  0.90563800  0.54789450  1
  C  1588  1  0.77323300  0.93655300  0.54362250  1
  C  1589  1  0.77323500  0.94513300  0.52484200  1
  C  1590  1  0.77323900  0.92394700  0.51044950  1
  C  1591  1  0.77323900  0.89342900  0.51476500  1
  C  1592  1  0.77324600  0.79086600  0.49178450  1
  C  1593  1  0.77324800  0.76941800  0.47727950  1
  C  1594  1  0.77324800  0.73840500  0.48165950  1
  C  1595  1  0.77324900  0.72913100  0.50029350  1
  C  1596  1  0.77324700  0.75038200  0.51458050  1
  C  1608  1  0.77324600  0.80225900  0.52586700  1
  C  1610  1  0.77323900  0.85256400  0.53722400  1
  C  1612  1  0.77324500  0.81204900  0.55860250  1
  C  1618  1  0.77324100  0.88369300  0.74383650  1
  C  1619  1  0.77324600  0.80127700  0.70008150  1
  C  1620  1  0.77324500  0.78163500  0.76655550  1
  C  1621  1  0.77324800  0.76984900  0.69667050  1
  C  1622  1  0.77324900  0.75857900  0.67853650  1
  C  1623  1  0.77324700  0.77832700  0.66326550  1
  C  1624  1  0.77324700  0.80974400  0.66626600  1
  C  1625  1  0.77324700  0.82106200  0.68455500  1
  C  1626  1  0.77324500  0.90537700  0.72933050  1
  C  1627  1  0.77324700  0.93624900  0.73343550  1
  C  1628  1  0.77321300  0.94514500  0.75212150  1
  C  1629  1  0.77325000  0.92429350  0.76671500  1
  C  1630  1  0.77324500  0.89361550  0.76254050  1
  C  1631  1  0.77324600  0.79086600  0.78548700  1
  C  1632  1  0.77324800  0.76942300  0.79999300  1
  C  1633  1  0.77325300  0.73840900  0.79561550  1
  C  1634  1  0.77325600  0.72913100  0.77698350  1
  C  1635  1  0.77325100  0.75037500  0.76269350  1
  C  1647  1  0.77324300  0.80225000  0.75140850  1
  C  1649  1  0.77323900  0.85253500  0.74007600  1
  C  1651  1  0.77324300  0.81203300  0.71867250  1
  C  1657  1  0.21987300  0.35020800  0.37699250  1
  C  1658  1  0.24066300  0.33862000  0.39396850  1
  C  1659  1  0.30583500  0.33861800  0.39396800  1
  C  1660  1  0.32662700  0.35020800  0.37699250  1
  C  1661  1  0.39105200  0.35337100  0.37341600  1
  C  1662  1  0.43565800  0.34471900  0.38700800  1
  C  1663  1  0.41318300  0.33216300  0.40394550  1
  C  1664  1  0.34875300  0.32938400  0.40759500  1
  C  1665  1  0.19774940  0.32937800  0.40759450  1
  C  1666  1  0.13331640  0.33215600  0.40394650  1
  C  1667  1  0.11083540  0.34472100  0.38701250  1
  C  1668  1  0.15544540  0.35336600  0.37341750  1
  C  1669  1  0.27326100  0.38921500  0.35805850  1
  C  1670  1  0.27327500  0.39044300  0.33870050  1
  C  1671  1  0.27327300  0.36110800  0.33176100  1
  C  1672  1  0.27326300  0.34127900  0.34687650  1
  C  1673  1  0.27328700  0.35000500  0.31347900  1
  C  1674  1  0.27329000  0.31852500  0.31071050  1
  C  1675  1  0.27328900  0.29787900  0.32594700  1
  C  1676  1  0.27327700  0.30985900  0.34414050  1
  C  1677  1  0.27327800  0.41583100  0.36869500  1
  C  1678  1  0.27329500  0.44505200  0.36030500  1
  C  1679  1  0.27329500  0.44481300  0.34055250  1
  C  1680  1  0.27329200  0.41839100  0.32969950  1
  C  1693  1  0.27325200  0.35774000  0.36473850  1
  C  1694  1  0.27329400  0.26659100  0.32370250  1
  C  1695  1  0.27330600  0.47043000  0.37247300  1
  C  1696  1  0.04718340  0.34636200  0.38255850  1
  C  1697  1  0.49930800  0.34638000  0.38255850  1
  C  1702  1  0.32662200  0.35020800  0.90027800  1
  C  1703  1  0.30583400  0.33862100  0.88330200  1
  C  1704  1  0.24066100  0.33862400  0.88330250  1
  C  1705  1  0.21987000  0.35021300  0.90027850  1
  C  1706  1  0.15544040  0.35337100  0.90385700  1
  C  1707  1  0.11083740  0.34470500  0.89026600  1
  C  1708  1  0.13331440  0.33216500  0.87332450  1
  C  1709  1  0.19774340  0.32938000  0.86967800  1
  C  1710  1  0.34875100  0.32938400  0.86967450  1
  C  1711  1  0.41318300  0.33216000  0.87332300  1
  C  1712  1  0.43565400  0.34469600  0.89026650  1
  C  1713  1  0.39104800  0.35336400  0.90385550  1
  C  1714  1  0.27327100  0.38923150  0.91919800  1
  C  1715  1  0.27328000  0.39045150  0.93856300  1
  C  1716  1  0.27326600  0.36111150  0.94550850  1
  C  1717  1  0.27325300  0.34128200  0.93039400  1
  C  1718  1  0.27326900  0.35000500  0.96379050  1
  C  1719  1  0.27327100  0.31852200  0.96655950  1
  C  1720  1  0.27326900  0.29787900  0.95132250  1
  C  1721  1  0.27325800  0.30986100  0.93312850  1
  C  1722  1  0.27329000  0.41583000  0.90853200  1
  C  1723  1  0.27323100  0.44504150  0.91695050  1
  C  1724  1  0.27310100  0.44481250  0.93671250  1
  C  1725  1  0.27321500  0.41839500  0.94756700  1
  C  1738  1  0.27324900  0.35774650  0.91253150  1
  C  1739  1  0.27327500  0.26659100  0.95356600  1
  C  1740  1  0.27326500  0.47043600  0.90479650  1
  C  1741  1  0.49930400  0.34635700  0.89471300  1
  C  1742  1  0.04718140  0.34637300  0.89471350  1
  C  1747  1  0.21992100  0.62139800  0.90027800  1
  C  1748  1  0.24071800  0.63298550  0.88330250  1
  C  1749  1  0.30589000  0.63298400  0.88330250  1
  C  1750  1  0.32667700  0.62139100  0.90027800  1
  C  1751  1  0.39110300  0.61822700  0.90385300  1
  C  1752  1  0.43570900  0.62687600  0.89025750  1
  C  1753  1  0.41323600  0.63944200  0.87332350  1
  C  1754  1  0.34880600  0.64222700  0.86967700  1
  C  1755  1  0.19780440  0.64223300  0.86967850  1
  C  1756  1  0.13337340  0.63944900  0.87332450  1
  C  1757  1  0.11088840  0.62688500  0.89025850  1
  C  1758  1  0.15549540  0.61823900  0.90385400  1
  C  1759  1  0.27328900  0.58240150  0.91923400  1
  C  1760  1  0.27329300  0.58116350  0.93858200  1
  C  1761  1  0.27331300  0.61049950  0.94551150  1
  C  1762  1  0.27330800  0.63032600  0.93039500  1
  C  1763  1  0.27333700  0.62160200  0.96379250  1
  C  1764  1  0.27334400  0.65308200  0.96656050  1
  C  1765  1  0.27333700  0.67372500  0.95132350  1
  C  1766  1  0.27332400  0.66174500  0.93312950  1
  C  1767  1  0.27329300  0.55576950  0.90862500  1
  C  1768  1  0.27337300  0.52653600  0.91698000  1
  C  1769  1  0.27351600  0.52678450  0.93672550  1
  C  1770  1  0.27339200  0.55320800  0.94757750  1
  C  1783  1  0.27329900  0.61386350  0.91253350  1
  C  1784  1  0.27333900  0.70501400  0.95356750  1
  C  1785  1  0.27335400  0.50117400  0.90479800  1
  C  1786  1  0.04723740  0.62524300  0.89471150  1
  C  1787  1  0.49935600  0.62523200  0.89471250  1
  C  1792  1  0.32668100  0.62139000  0.37699050  1
  C  1793  1  0.30588300  0.63298000  0.39396550  1
  C  1794  1  0.24071100  0.63297500  0.39396650  1
  C  1795  1  0.21992400  0.62138600  0.37699100  1
  C  1796  1  0.15549740  0.61822900  0.37341400  1
  C  1797  1  0.11088640  0.62688300  0.38700650  1
  C  1798  1  0.13336340  0.63942600  0.40394700  1
  C  1799  1  0.19779240  0.64221300  0.40759300  1
  C  1800  1  0.34879200  0.64222700  0.40759050  1
  C  1801  1  0.41322600  0.63945300  0.40394350  1
  C  1802  1  0.43570400  0.62689700  0.38700650  1
  C  1803  1  0.39110700  0.61823300  0.37341300  1
  C  1804  1  0.27331100  0.58238200  0.35805300  1
  C  1805  1  0.27331200  0.58115700  0.33869600  1
  C  1806  1  0.27330900  0.61049900  0.33175650  1
  C  1807  1  0.27330300  0.63032100  0.34687450  1
  C  1808  1  0.27331300  0.62161500  0.31347700  1
  C  1809  1  0.27332100  0.65309800  0.31071500  1
  C  1810  1  0.27332300  0.67373400  0.32595600  1
  C  1811  1  0.27331000  0.66174100  0.34414700  1
  C  1812  1  0.27331300  0.55576900  0.36869000  1
  C  1813  1  0.27331500  0.52654600  0.36030200  1
  C  1814  1  0.27332000  0.52678700  0.34054850  1
  C  1815  1  0.27331800  0.55320700  0.32969550  1
  C  1828  1  0.27330500  0.61385600  0.36473650  1
  C  1829  1  0.27334900  0.70502700  0.32372350  1
  C  1830  1  0.27331300  0.50116900  0.37247150  1
  C  1831  1  0.49935700  0.62524300  0.38255550  1
  C  1832  1  0.04723540  0.62523400  0.38255650  1
  C  1837  1  0.71986700  0.35020900  0.87699250  1
  C  1838  1  0.74065500  0.33861800  0.89396800  1
  C  1839  1  0.80582900  0.33862200  0.89396850  1
  C  1840  1  0.82661800  0.35021000  0.87699200  1
  C  1841  1  0.89104700  0.35337000  0.87341500  1
  C  1842  1  0.93564900  0.34470500  0.88700550  1
  C  1843  1  0.91317500  0.33217800  0.90395050  1
  C  1844  1  0.84874300  0.32938400  0.90759500  1
  C  1845  1  0.69773700  0.32937300  0.90759200  1
  C  1846  1  0.63330500  0.33216500  0.90394750  1
  C  1847  1  0.61083300  0.34470100  0.88700450  1
  C  1848  1  0.65543900  0.35336900  0.87341550  1
  C  1849  1  0.77323700  0.38921800  0.85805850  1
  C  1850  1  0.77323300  0.39044600  0.83870150  1
  C  1851  1  0.77323200  0.36110800  0.83176150  1
  C  1852  1  0.77324100  0.34128100  0.84687650  1
  C  1853  1  0.77322100  0.35000500  0.81347900  1
  C  1854  1  0.77321700  0.31852500  0.81071050  1
  C  1855  1  0.77322100  0.29788050  0.82594650  1
  C  1856  1  0.77323200  0.30986100  0.84414050  1
  C  1857  1  0.77323500  0.41583300  0.86869500  1
  C  1858  1  0.77322900  0.44505400  0.86030650  1
  C  1859  1  0.77321900  0.44481500  0.84055250  1
  C  1860  1  0.77322300  0.41839300  0.82969950  1
  C  1873  1  0.77324200  0.35774200  0.86473850  1
  C  1874  1  0.77321300  0.26659100  0.82370200  1
  C  1875  1  0.77322700  0.47043300  0.87247400  1
  C  1876  1  0.54718300  0.34636400  0.88255700  1
  C  1877  1  0.99930500  0.34637100  0.88255750  1
  C  1882  1  0.82661300  0.35021000  0.40027950  1
  C  1883  1  0.80582200  0.33862200  0.38330450  1
  C  1884  1  0.74064900  0.33862400  0.38330400  1
  C  1885  1  0.71985800  0.35021700  0.40027900  1
  C  1886  1  0.65543000  0.35338200  0.40385450  1
  C  1887  1  0.61082900  0.34473000  0.39026000  1
  C  1888  1  0.63330900  0.33216500  0.37332550  1
  C  1889  1  0.69773800  0.32938000  0.36967950  1
  C  1890  1  0.84873800  0.32937300  0.36968100  1
  C  1891  1  0.91316900  0.33215600  0.37332600  1
  C  1892  1  0.93564900  0.34472100  0.39026000  1
  C  1893  1  0.89104000  0.35336900  0.40385550  1
  C  1894  1  0.77324200  0.38922000  0.41921650  1
  C  1895  1  0.77323700  0.39044800  0.43857350  1
  C  1896  1  0.77321400  0.36110800  0.44551250  1
  C  1897  1  0.77321700  0.34128300  0.43039500  1
  C  1898  1  0.77318900  0.34999300  0.46379250  1
  C  1899  1  0.77319100  0.31851100  0.46655600  1
  C  1900  1  0.77320700  0.29787300  0.45131600  1
  C  1901  1  0.77320600  0.30986400  0.43312500  1
  C  1902  1  0.77324500  0.41583600  0.40857900  1
  C  1903  1  0.77316700  0.44505600  0.41696750  1
  C  1904  1  0.77302300  0.44481700  0.43672100  1
  C  1905  1  0.77314700  0.41839700  0.44757350  1
  C  1918  1  0.77323500  0.35774600  0.41253400  1
  C  1919  1  0.77324000  0.26658200  0.45355150  1
  C  1920  1  0.77318900  0.47043500  0.40479850  1
  C  1921  1  0.99930100  0.34636200  0.39471300  1
  C  1922  1  0.54718300  0.34638200  0.39471400  1
  C  1927  1  0.71990900  0.62139700  0.40027650  1
  C  1928  1  0.74070600  0.63298700  0.38330100  1
  C  1929  1  0.80587900  0.63298200  0.38330200  1
  C  1930  1  0.82666500  0.62139200  0.40027750  1
  C  1931  1  0.89109300  0.61823600  0.40385600  1
  C  1932  1  0.93569800  0.62690100  0.39026550  1
  C  1933  1  0.91322800  0.63943300  0.37332150  1
  C  1934  1  0.84879900  0.64222700  0.36967750  1
  C  1935  1  0.69779400  0.64223600  0.36967750  1
  C  1936  1  0.63336100  0.63944400  0.37332100  1
  C  1937  1  0.61088500  0.62689900  0.39026000  1
  C  1938  1  0.65548400  0.61823300  0.40385200  1
  C  1939  1  0.77326000  0.58238700  0.41921250  1
  C  1940  1  0.77325100  0.58115900  0.43856950  1
  C  1941  1  0.77326700  0.61049600  0.44550850  1
  C  1942  1  0.77327500  0.63032600  0.43039350  1
  C  1943  1  0.77326900  0.62160000  0.46379100  1
  C  1944  1  0.77326600  0.65308200  0.46655900  1
  C  1945  1  0.77326700  0.67372500  0.45132300  1
  C  1946  1  0.77327300  0.66174500  0.43312850  1
  C  1947  1  0.77324600  0.55577300  0.40857550  1
  C  1948  1  0.77330600  0.52655100  0.41696450  1
  C  1949  1  0.77343700  0.52679200  0.43671800  1
  C  1950  1  0.77331800  0.55321100  0.44757050  1
  C  1963  1  0.77328100  0.61386200  0.41253100  1
  C  1964  1  0.77326000  0.70501400  0.45356700  1
  C  1965  1  0.77327500  0.50117200  0.40479750  1
  C  1966  1  0.54723300  0.62524300  0.39471150  1
  C  1967  1  0.99935400  0.62523200  0.39471200  1
  C  1972  1  0.82666700  0.62139500  0.87699200  1
  C  1973  1  0.80587300  0.63298400  0.89396750  1
  C  1974  1  0.74070100  0.63298700  0.89396750  1
  C  1975  1  0.71991300  0.62139700  0.87699250  1
  C  1976  1  0.65548900  0.61823100  0.87341550  1
  C  1977  1  0.61088600  0.62690100  0.88700450  1
  C  1978  1  0.63335100  0.63944400  0.90394650  1
  C  1979  1  0.69778000  0.64222400  0.90759350  1
  C  1980  1  0.84878500  0.64222700  0.90759400  1
  C  1981  1  0.91321700  0.63944900  0.90394600  1
  C  1982  1  0.93570300  0.62688300  0.88701150  1
  C  1983  1  0.89109700  0.61823600  0.87341750  1
  C  1984  1  0.77328100  0.58238700  0.85805650  1
  C  1985  1  0.77326900  0.58115900  0.83869950  1
  C  1986  1  0.77327100  0.61049600  0.83176050  1
  C  1987  1  0.77328500  0.63032400  0.84687650  1
  C  1988  1  0.77325500  0.62160400  0.81347900  1
  C  1989  1  0.77325000  0.65308700  0.81071250  1
  C  1990  1  0.77325300  0.67372700  0.82594950  1
  C  1991  1  0.77326800  0.66174300  0.84414300  1
  C  1992  1  0.77326200  0.55577100  0.86869350  1
  C  1993  1  0.77324500  0.52655100  0.86030550  1
  C  1994  1  0.77324300  0.52678900  0.84055150  1
  C  1995  1  0.77324800  0.55321100  0.82969900  1
  C  2008  1  0.77329000  0.61386200  0.86473850  1
  C  2009  1  0.77324100  0.70501600  0.82370850  1
  C  2010  1  0.77323300  0.50117200  0.87247350  1
  C  2011  1  0.99935400  0.62524300  0.88255850  1
  C  2012  1  0.54723600  0.62522900  0.88255700  1
  H  19  1  0.99304500  0.14722700  0.00279900  1
  H  20  1  0.99304700  0.12766700  0.03382700  1
  H  21  1  0.99304100  0.23592400  0.02408600  1
  H  22  1  0.99305000  0.09284000  0.12088550  1
  H  23  1  0.99305000  0.07245400  0.06314900  1
  H  24  1  0.99304600  0.01963250  0.07055400  1
  H  25  1  0.99303900  0.04063600  0.12783850  1
  H  26  1  0.99304800  0.15835800  0.13636800  1
  H  27  1  0.99303700  0.26489900  0.12099800  1
  H  28  1  0.99303900  0.22919200  0.09683300  1
  H  29  1  0.99304400  0.19524700  0.16098800  1
  H  36  1  0.99304300  0.21701800  0.05477400  1
  H  58  1  0.99305000  0.14722800  0.96939750  1
  H  59  1  0.99305100  0.12766600  0.93837150  1
  H  60  1  0.99303900  0.23592400  0.94810800  1
  H  61  1  0.99304900  0.09302800  0.85136500  1
  H  62  1  0.99305700  0.07216800  0.90901850  1
  H  63  1  0.99306100  0.01920550  0.90139850  1
  H  64  1  0.99305200  0.04132150  0.84421250  1
  H  65  1  0.99304200  0.15835300  0.83582950  1
  H  66  1  0.99304100  0.26489600  0.85119450  1
  H  67  1  0.99304200  0.22918900  0.87536050  1
  H  68  1  0.99304200  0.19524100  0.81120750  1
  H  75  1  0.99304100  0.21701600  0.91742000  1
  H  97  1  0.99306900  0.82437800  0.96939600  1
  H  98  1  0.99306700  0.84393900  0.93837000  1
  H  99  1  0.99308000  0.73568300  0.94810600  1
  H  100  1  0.99306900  0.87858300  0.85136400  1
  H  101  1  0.99306100  0.89942750  0.90901900  1
  H  102  1  0.99305800  0.95238800  0.90140600  1
  H  103  1  0.99306900  0.93030600  0.84421800  1
  H  104  1  0.99307400  0.81325000  0.83582850  1
  H  105  1  0.99307900  0.70671000  0.85119650  1
  H  106  1  0.99307500  0.74241700  0.87536150  1
  H  107  1  0.99307700  0.77636200  0.81120750  1
  H  114  1  0.99307800  0.75459100  0.91741850  1
  H  136  1  0.99307300  0.82437400  0.00279200  1
  H  137  1  0.99307200  0.84393700  0.03381700  1
  H  138  1  0.99307600  0.73568100  0.02408300  1
  H  139  1  0.99306800  0.87842800  0.12077850  1
  H  140  1  0.99306800  0.89976400  0.06323300  1
  H  141  1  0.99307200  0.95274400  0.07106700  1
  H  142  1  0.99307900  0.92967500  0.12816300  1
  H  143  1  0.99307400  0.81327500  0.13635400  1
  H  144  1  0.99306400  0.70672100  0.12102600  1
  H  145  1  0.99307400  0.74241100  0.09684700  1
  H  146  1  0.99307100  0.77641000  0.16098950  1
  H  153  1  0.99307500  0.75458800  0.05477100  1
  H  175  1  0.49297000  0.14723000  0.50279550  1
  H  176  1  0.49297100  0.12766300  0.53382000  1
  H  177  1  0.49296600  0.23592200  0.52408950  1
  H  178  1  0.49297700  0.09320050  0.62077500  1
  H  179  1  0.49297600  0.07174800  0.56325650  1
  H  180  1  0.49297100  0.01878150  0.57114050  1
  H  181  1  0.49296400  0.04200050  0.62820800  1
  H  182  1  0.49297400  0.15835100  0.63636300  1
  H  183  1  0.49296100  0.26489200  0.62099550  1
  H  184  1  0.49296400  0.22918150  0.59683050  1
  H  185  1  0.49297100  0.19524200  0.66098550  1
  H  192  1  0.49296700  0.21701000  0.55477700  1
  H  214  1  0.49297200  0.14722900  0.46939950  1
  H  215  1  0.49297400  0.12766800  0.43837250  1
  H  216  1  0.49296300  0.23592400  0.44811050  1
  H  217  1  0.49297200  0.09304500  0.35137250  1
  H  218  1  0.49298300  0.07214400  0.40901600  1
  H  219  1  0.49298500  0.01917600  0.40137850  1
  H  220  1  0.49297300  0.04138000  0.34420050  1
  H  221  1  0.49297400  0.15833800  0.33583550  1
  H  222  1  0.49293800  0.26489000  0.35117450  1
  H  223  1  0.49296200  0.22919800  0.37535050  1
  H  224  1  0.49296200  0.19520900  0.31120450  1
  H  231  1  0.49296500  0.21701900  0.41742350  1
  H  253  1  0.49299300  0.82437800  0.46939600  1
  H  254  1  0.49299200  0.84393900  0.43837000  1
  H  255  1  0.49300500  0.73568300  0.44810750  1
  H  256  1  0.49299400  0.87859700  0.35135950  1
  H  257  1  0.49298300  0.89940400  0.40902300  1
  H  258  1  0.49298100  0.95235800  0.40142650  1
  H  259  1  0.49299200  0.93036100  0.34423200  1
  H  260  1  0.49299900  0.81325000  0.33582800  1
  H  261  1  0.49300300  0.70670800  0.35119600  1
  H  262  1  0.49299900  0.74241500  0.37536050  1
  H  263  1  0.49300200  0.77636000  0.31120650  1
  H  270  1  0.49300300  0.75458800  0.41741950  1
  H  292  1  0.49299800  0.82437800  0.50279800  1
  H  293  1  0.49299700  0.84393700  0.53382700  1
  H  294  1  0.49300100  0.73568200  0.52408500  1
  H  295  1  0.49299400  0.87884100  0.62090150  1
  H  296  1  0.49299500  0.89905800  0.56314400  1
  H  297  1  0.49299800  0.95188200  0.57045000  1
  H  298  1  0.49300400  0.93111750  0.62776500  1
  H  299  1  0.49299500  0.81325200  0.63636550  1
  H  300  1  0.49300900  0.70670800  0.62100650  1
  H  301  1  0.49300200  0.74240800  0.59683750  1
  H  302  1  0.49300000  0.77637100  0.66098950  1
  H  309  1  0.49299900  0.75458600  0.55477250  1
  H  337  1  0.99304800  0.46357900  0.18066350  1
  H  338  1  0.99305100  0.41962500  0.16298700  1
  H  339  1  0.99304600  0.36439300  0.14985550  1
  H  340  1  0.99305200  0.31089300  0.14478500  1
  H  341  1  0.99302700  0.29598200  0.20295150  1
  H  342  1  0.99303000  0.41335500  0.23028450  1
  H  343  1  0.12462500  0.36181500  0.20830600  1
  H  344  1  0.16307600  0.32430600  0.26127500  1
  H  345  1  0.05344000  0.32042200  0.26733350  1
  H  346  1  0.86137300  0.36180400  0.20830650  1
  H  347  1  0.93256700  0.32042200  0.26733450  1
  H  348  1  0.82292800  0.32430600  0.26127850  1
  H  354  1  0.99305900  0.46313000  0.23310550  1
  H  355  1  0.99305500  0.25259900  0.18193100  1
  H  356  1  0.75647500  0.34690000  0.21659800  1
  H  357  1  0.22952700  0.34691800  0.21659750  1
  H  382  1  0.99232300  0.46358000  0.79152550  1
  H  383  1  0.99284700  0.41963000  0.80920450  1
  H  384  1  0.99302900  0.36439100  0.82233950  1
  H  385  1  0.99303100  0.31089100  0.82740750  1
  H  386  1  0.99300900  0.29598500  0.76924150  1
  H  387  1  0.99305900  0.41335400  0.74185750  1
  H  388  1  0.86136600  0.36181300  0.76389050  1
  H  389  1  0.82292600  0.32431700  0.71091600  1
  H  390  1  0.93256700  0.32044000  0.70485650  1
  H  391  1  0.12462300  0.36180600  0.76388950  1
  H  392  1  0.05343900  0.32042400  0.70486000  1
  H  393  1  0.16307300  0.32429200  0.71091950  1
  H  399  1  0.99300100  0.46314750  0.73908550  1
  H  400  1  0.99301900  0.25260100  0.79026000  1
  H  401  1  0.22952700  0.34689800  0.75559700  1
  H  402  1  0.75646100  0.34690500  0.75559750  1
  H  427  1  0.99382100  0.50801750  0.79153400  1
  H  428  1  0.99328000  0.55197000  0.80921400  1
  H  429  1  0.99309400  0.60721500  0.82234100  1
  H  430  1  0.99310400  0.66071450  0.82740850  1
  H  431  1  0.99307500  0.67562200  0.76924150  1
  H  432  1  0.99302600  0.55824800  0.74196800  1
  H  433  1  0.12468000  0.60978900  0.76388800  1
  H  434  1  0.16313100  0.64729800  0.71091750  1
  H  435  1  0.05349300  0.65118300  0.70486050  1
  H  436  1  0.86142000  0.60980000  0.76388800  1
  H  437  1  0.93262600  0.65117800  0.70485900  1
  H  438  1  0.82298500  0.64729600  0.71091550  1
  H  444  1  0.99313400  0.50848850  0.73909200  1
  H  445  1  0.99309400  0.71900500  0.79026250  1
  H  446  1  0.75652400  0.62470200  0.75559700  1
  H  447  1  0.22957100  0.62470000  0.75559700  1
  H  472  1  0.99309200  0.50801900  0.18065950  1
  H  473  1  0.99307400  0.55197200  0.16298250  1
  H  474  1  0.99307000  0.60723400  0.14984950  1
  H  475  1  0.99308500  0.66074000  0.14479200  1
  H  476  1  0.99306500  0.67561100  0.20296200  1
  H  477  1  0.99306100  0.55824500  0.23027950  1
  H  478  1  0.86142700  0.60979100  0.20830300  1
  H  479  1  0.82297400  0.64730100  0.26127150  1
  H  480  1  0.93260900  0.65118000  0.26733000  1
  H  481  1  0.12469100  0.60979300  0.20830300  1
  H  482  1  0.05347100  0.65117800  0.26733200  1
  H  483  1  0.16311300  0.64730500  0.26127500  1
  H  489  1  0.99307000  0.50847200  0.23310350  1
  H  490  1  0.99316400  0.71900500  0.18195900  1
  H  491  1  0.22958100  0.62470400  0.21659550  1
  H  492  1  0.75651900  0.62470300  0.21659650  1
  H  517  1  0.49294800  0.46358100  0.68066400  1
  H  518  1  0.49296800  0.41962900  0.66298750  1
  H  519  1  0.49296700  0.36439300  0.64985450  1
  H  520  1  0.49296000  0.31089300  0.64478600  1
  H  521  1  0.49298500  0.29598200  0.70295150  1
  H  522  1  0.49298700  0.41335700  0.73028500  1
  H  523  1  0.62462400  0.36181100  0.70830500  1
  H  524  1  0.66306500  0.32430800  0.76127750  1
  H  525  1  0.55342500  0.32043500  0.76733700  1
  H  526  1  0.36136900  0.36180900  0.70830450  1
  H  527  1  0.43255500  0.32043100  0.76733700  1
  H  528  1  0.32291700  0.32429900  0.76127600  1
  H  534  1  0.49296900  0.46313300  0.73310550  1
  H  535  1  0.49296700  0.25259900  0.68193100  1
  H  536  1  0.25646500  0.34689300  0.71659700  1
  H  537  1  0.72952900  0.34690500  0.71659750  1
  H  562  1  0.49223400  0.46358600  0.29153250  1
  H  563  1  0.49276000  0.41963200  0.30921050  1
  H  564  1  0.49293900  0.36437700  0.32234350  1
  H  565  1  0.49294600  0.31087100  0.32740350  1
  H  566  1  0.49296100  0.29599100  0.26923450  1
  H  567  1  0.49301500  0.41335700  0.24191350  1
  H  568  1  0.36135500  0.36181800  0.26388950  1
  H  569  1  0.32292100  0.32430600  0.21092050  1
  H  570  1  0.43256100  0.32042200  0.20486350  1
  H  571  1  0.62461700  0.36180600  0.26388950  1
  H  572  1  0.55342100  0.32042800  0.20486100  1
  H  573  1  0.66306100  0.32430800  0.21091700  1
  H  579  1  0.49291100  0.46313300  0.23909000  1
  H  580  1  0.49308300  0.25260100  0.29024150  1
  H  581  1  0.72951300  0.34690200  0.25559700  1
  H  582  1  0.25646800  0.34691100  0.25559850  1
  H  607  1  0.49372000  0.50802300  0.29153000  1
  H  608  1  0.49319900  0.55197700  0.30920750  1
  H  609  1  0.49301500  0.60721400  0.32233950  1
  H  610  1  0.49301500  0.66071300  0.32740800  1
  H  611  1  0.49302800  0.67562200  0.26924100  1
  H  612  1  0.49298100  0.55824700  0.24191050  1
  H  613  1  0.62466600  0.60979300  0.26388950  1
  H  614  1  0.66312000  0.64729200  0.21091550  1
  H  615  1  0.55348500  0.65116900  0.20485700  1
  H  616  1  0.36140700  0.60980200  0.26388900  1
  H  617  1  0.43261800  0.65118000  0.20485750  1
  H  618  1  0.32297700  0.64731000  0.21091700  1
  H  624  1  0.49304500  0.50847200  0.23908850  1
  H  625  1  0.49301500  0.71900500  0.29026100  1
  H  626  1  0.25651300  0.62470700  0.25559550  1
  H  627  1  0.72957400  0.62469800  0.25559650  1
  H  652  1  0.49299200  0.50802300  0.68066300  1
  H  653  1  0.49299300  0.55197400  0.66298650  1
  H  654  1  0.49299800  0.60721800  0.64985400  1
  H  655  1  0.49299200  0.66072000  0.64478750  1
  H  656  1  0.49302100  0.67562000  0.70295550  1
  H  657  1  0.49301300  0.55824700  0.73028350  1
  H  658  1  0.36142100  0.60979100  0.70830550  1
  H  659  1  0.32295900  0.64729600  0.76127700  1
  H  660  1  0.43259900  0.65117100  0.76733700  1
  H  661  1  0.62467800  0.60979800  0.70830650  1
  H  662  1  0.55346500  0.65118000  0.76733400  1
  H  663  1  0.66310600  0.64729800  0.76127800  1
  H  669  1  0.49298000  0.50847200  0.73310500  1
  H  670  1  0.49297100  0.71900500  0.68194000  1
  H  671  1  0.72957100  0.62470400  0.71659750  1
  H  672  1  0.25651800  0.62468600  0.71659700  1
  H  1363  1  0.27329300  0.14722700  0.15533700  1
  H  1364  1  0.27329500  0.12766700  0.18636500  1
  H  1365  1  0.27328900  0.23592400  0.17662400  1
  H  1366  1  0.27329800  0.09284000  0.27342350  1
  H  1367  1  0.27329800  0.07245400  0.21568700  1
  H  1368  1  0.27329400  0.01963250  0.22309200  1
  H  1369  1  0.27328700  0.04063600  0.28037650  1
  H  1370  1  0.27329600  0.15835800  0.28890600  1
  H  1371  1  0.27328500  0.26489900  0.27353600  1
  H  1372  1  0.27328700  0.22919200  0.24937100  1
  H  1373  1  0.27329200  0.19524700  0.31352600  1
  H  1380  1  0.27329100  0.21701800  0.20731200  1
  H  1402  1  0.27329800  0.14722800  0.12193550  1
  H  1403  1  0.27329900  0.12766600  0.09090950  1
  H  1404  1  0.27328700  0.23592400  0.10064600  1
  H  1405  1  0.27329700  0.09302800  0.00390295  1
  H  1406  1  0.27330500  0.07216800  0.06155650  1
  H  1407  1  0.27330900  0.01920550  0.05393650  1
  H  1408  1  0.27330000  0.04132150  0.99675050  1
  H  1409  1  0.27329000  0.15835300  0.98836750  1
  H  1410  1  0.27328900  0.26489600  0.00373245  1
  H  1411  1  0.27329000  0.22918900  0.02789850  1
  H  1412  1  0.27329000  0.19524100  0.96374550  1
  H  1419  1  0.27328900  0.21701600  0.06995800  1
  H  1441  1  0.27331700  0.82437800  0.12193400  1
  H  1442  1  0.27331500  0.84393900  0.09090800  1
  H  1443  1  0.27332800  0.73568300  0.10064400  1
  H  1444  1  0.27331700  0.87858300  0.00390195  1
  H  1445  1  0.27330900  0.89942750  0.06155700  1
  H  1446  1  0.27330600  0.95238800  0.05394400  1
  H  1447  1  0.27331700  0.93030600  0.99675600  1
  H  1448  1  0.27332200  0.81325000  0.98836650  1
  H  1449  1  0.27332700  0.70671000  0.00373445  1
  H  1450  1  0.27332300  0.74241700  0.02789950  1
  H  1451  1  0.27332500  0.77636200  0.96374550  1
  H  1458  1  0.27332600  0.75459100  0.06995650  1
  H  1480  1  0.27332100  0.82437400  0.15533000  1
  H  1481  1  0.27332000  0.84393700  0.18635500  1
  H  1482  1  0.27332400  0.73568100  0.17662100  1
  H  1483  1  0.27331600  0.87842800  0.27331650  1
  H  1484  1  0.27331600  0.89976400  0.21577100  1
  H  1485  1  0.27332000  0.95274400  0.22360500  1
  H  1486  1  0.27332700  0.92967500  0.28070100  1
  H  1487  1  0.27332200  0.81327500  0.28889200  1
  H  1488  1  0.27331200  0.70672100  0.27356400  1
  H  1489  1  0.27332200  0.74241100  0.24938500  1
  H  1490  1  0.27331900  0.77641000  0.31352750  1
  H  1497  1  0.27332300  0.75458800  0.20730900  1
  H  1519  1  0.77321800  0.14723000  0.65533350  1
  H  1520  1  0.77321900  0.12766300  0.68635800  1
  H  1521  1  0.77321400  0.23592200  0.67662750  1
  H  1522  1  0.77322500  0.09320050  0.77331300  1
  H  1523  1  0.77322400  0.07174800  0.71579450  1
  H  1524  1  0.77321900  0.01878150  0.72367850  1
  H  1525  1  0.77321200  0.04200050  0.78074600  1
  H  1526  1  0.77322200  0.15835100  0.78890100  1
  H  1527  1  0.77320900  0.26489200  0.77353350  1
  H  1528  1  0.77321200  0.22918150  0.74936850  1
  H  1529  1  0.77321900  0.19524200  0.81352350  1
  H  1536  1  0.77321500  0.21701000  0.70731500  1
  H  1558  1  0.77322000  0.14722900  0.62193750  1
  H  1559  1  0.77322200  0.12766800  0.59091050  1
  H  1560  1  0.77321100  0.23592400  0.60064850  1
  H  1561  1  0.77322000  0.09304500  0.50391050  1
  H  1562  1  0.77323100  0.07214400  0.56155400  1
  H  1563  1  0.77323300  0.01917600  0.55391650  1
  H  1564  1  0.77322100  0.04138000  0.49673850  1
  H  1565  1  0.77322200  0.15833800  0.48837350  1
  H  1566  1  0.77318600  0.26489000  0.50371250  1
  H  1567  1  0.77321000  0.22919800  0.52788850  1
  H  1568  1  0.77321000  0.19520900  0.46374250  1
  H  1575  1  0.77321300  0.21701900  0.56996150  1
  H  1597  1  0.77324100  0.82437800  0.62193400  1
  H  1598  1  0.77324000  0.84393900  0.59090800  1
  H  1599  1  0.77325300  0.73568300  0.60064550  1
  H  1600  1  0.77324200  0.87859700  0.50389750  1
  H  1601  1  0.77323100  0.89940400  0.56156100  1
  H  1602  1  0.77322900  0.95235800  0.55396450  1
  H  1603  1  0.77324000  0.93036100  0.49677000  1
  H  1604  1  0.77324700  0.81325000  0.48836600  1
  H  1605  1  0.77325100  0.70670800  0.50373400  1
  H  1606  1  0.77324700  0.74241500  0.52789850  1
  H  1607  1  0.77325000  0.77636000  0.46374450  1
  H  1614  1  0.77325100  0.75458800  0.56995750  1
  H  1636  1  0.77324600  0.82437800  0.65533600  1
  H  1637  1  0.77324500  0.84393700  0.68636500  1
  H  1638  1  0.77324900  0.73568200  0.67662300  1
  H  1639  1  0.77324200  0.87884100  0.77343950  1
  H  1640  1  0.77324300  0.89905800  0.71568200  1
  H  1641  1  0.77324600  0.95188200  0.72298800  1
  H  1642  1  0.77325200  0.93111750  0.78030300  1
  H  1643  1  0.77324300  0.81325200  0.78890350  1
  H  1644  1  0.77325700  0.70670800  0.77354450  1
  H  1645  1  0.77325000  0.74240800  0.74937550  1
  H  1646  1  0.77324800  0.77637100  0.81352750  1
  H  1653  1  0.77324700  0.75458600  0.70731050  1
  H  1681  1  0.27329600  0.46357900  0.33320150  1
  H  1682  1  0.27329900  0.41962500  0.31552500  1
  H  1683  1  0.27329400  0.36439300  0.30239350  1
  H  1684  1  0.27330000  0.31089300  0.29732300  1
  H  1685  1  0.27327500  0.29598200  0.35548950  1
  H  1686  1  0.27327800  0.41335500  0.38282250  1
  H  1687  1  0.40487300  0.36181500  0.36084400  1
  H  1688  1  0.44332400  0.32430600  0.41381300  1
  H  1689  1  0.33368800  0.32042200  0.41987150  1
  H  1690  1  0.14162140  0.36180400  0.36084450  1
  H  1691  1  0.21281500  0.32042200  0.41987250  1
  H  1692  1  0.10317640  0.32430600  0.41381650  1
  H  1698  1  0.27330700  0.46313000  0.38564350  1
  H  1699  1  0.27330300  0.25259900  0.33446900  1
  H  1700  1  0.03672340  0.34690000  0.36913600  1
  H  1701  1  0.50977500  0.34691800  0.36913550  1
  H  1726  1  0.27257100  0.46358000  0.94406350  1
  H  1727  1  0.27309500  0.41963000  0.96174250  1
  H  1728  1  0.27327700  0.36439100  0.97487750  1
  H  1729  1  0.27327900  0.31089100  0.97994550  1
  H  1730  1  0.27325700  0.29598500  0.92177950  1
  H  1731  1  0.27330700  0.41335400  0.89439550  1
  H  1732  1  0.14161440  0.36181300  0.91642850  1
  H  1733  1  0.10317440  0.32431700  0.86345400  1
  H  1734  1  0.21281500  0.32044000  0.85739450  1
  H  1735  1  0.40487100  0.36180600  0.91642750  1
  H  1736  1  0.33368700  0.32042400  0.85739800  1
  H  1737  1  0.44332100  0.32429200  0.86345750  1
  H  1743  1  0.27324900  0.46314750  0.89162350  1
  H  1744  1  0.27326700  0.25260100  0.94279800  1
  H  1745  1  0.50977500  0.34689800  0.90813500  1
  H  1746  1  0.03670940  0.34690500  0.90813550  1
  H  1771  1  0.27406900  0.50801750  0.94407200  1
  H  1772  1  0.27352800  0.55197000  0.96175200  1
  H  1773  1  0.27334200  0.60721500  0.97487900  1
  H  1774  1  0.27335200  0.66071450  0.97994650  1
  H  1775  1  0.27332300  0.67562200  0.92177950  1
  H  1776  1  0.27327400  0.55824800  0.89450600  1
  H  1777  1  0.40492800  0.60978900  0.91642600  1
  H  1778  1  0.44337900  0.64729800  0.86345550  1
  H  1779  1  0.33374100  0.65118300  0.85739850  1
  H  1780  1  0.14166840  0.60980000  0.91642600  1
  H  1781  1  0.21287400  0.65117800  0.85739700  1
  H  1782  1  0.10323340  0.64729600  0.86345350  1
  H  1788  1  0.27338200  0.50848850  0.89163000  1
  H  1789  1  0.27334200  0.71900500  0.94280050  1
  H  1790  1  0.03677240  0.62470200  0.90813500  1
  H  1791  1  0.50981900  0.62470000  0.90813500  1
  H  1816  1  0.27334000  0.50801900  0.33319750  1
  H  1817  1  0.27332200  0.55197200  0.31552050  1
  H  1818  1  0.27331800  0.60723400  0.30238750  1
  H  1819  1  0.27333300  0.66074000  0.29733000  1
  H  1820  1  0.27331300  0.67561100  0.35550000  1
  H  1821  1  0.27330900  0.55824500  0.38281750  1
  H  1822  1  0.14167540  0.60979100  0.36084100  1
  H  1823  1  0.10322240  0.64730100  0.41380950  1
  H  1824  1  0.21285700  0.65118000  0.41986800  1
  H  1825  1  0.40493900  0.60979300  0.36084100  1
  H  1826  1  0.33371900  0.65117800  0.41987000  1
  H  1827  1  0.44336100  0.64730500  0.41381300  1
  H  1833  1  0.27331800  0.50847200  0.38564150  1
  H  1834  1  0.27341200  0.71900500  0.33449700  1
  H  1835  1  0.50982900  0.62470400  0.36913350  1
  H  1836  1  0.03676740  0.62470300  0.36913450  1
  H  1861  1  0.77319600  0.46358100  0.83320200  1
  H  1862  1  0.77321600  0.41962900  0.81552550  1
  H  1863  1  0.77321500  0.36439300  0.80239250  1
  H  1864  1  0.77320800  0.31089300  0.79732400  1
  H  1865  1  0.77323300  0.29598200  0.85548950  1
  H  1866  1  0.77323500  0.41335700  0.88282300  1
  H  1867  1  0.90487200  0.36181100  0.86084300  1
  H  1868  1  0.94331300  0.32430800  0.91381550  1
  H  1869  1  0.83367300  0.32043500  0.91987500  1
  H  1870  1  0.64161700  0.36180900  0.86084250  1
  H  1871  1  0.71280300  0.32043100  0.91987500  1
  H  1872  1  0.60316500  0.32429900  0.91381400  1
  H  1878  1  0.77321700  0.46313300  0.88564350  1
  H  1879  1  0.77321500  0.25259900  0.83446900  1
  H  1880  1  0.53671300  0.34689300  0.86913500  1
  H  1881  1  0.00977738  0.34690500  0.86913550  1
  H  1906  1  0.77248200  0.46358600  0.44407050  1
  H  1907  1  0.77300800  0.41963200  0.46174850  1
  H  1908  1  0.77318700  0.36437700  0.47488150  1
  H  1909  1  0.77319400  0.31087100  0.47994150  1
  H  1910  1  0.77320900  0.29599100  0.42177250  1
  H  1911  1  0.77326300  0.41335700  0.39445150  1
  H  1912  1  0.64160300  0.36181800  0.41642750  1
  H  1913  1  0.60316900  0.32430600  0.36345850  1
  H  1914  1  0.71280900  0.32042200  0.35740150  1
  H  1915  1  0.90486500  0.36180600  0.41642750  1
  H  1916  1  0.83366900  0.32042800  0.35739900  1
  H  1917  1  0.94330900  0.32430800  0.36345500  1
  H  1923  1  0.77315900  0.46313300  0.39162800  1
  H  1924  1  0.77333100  0.25260100  0.44277950  1
  H  1925  1  0.00976138  0.34690200  0.40813500  1
  H  1926  1  0.53671600  0.34691100  0.40813650  1
  H  1951  1  0.77396800  0.50802300  0.44406800  1
  H  1952  1  0.77344700  0.55197700  0.46174550  1
  H  1953  1  0.77326300  0.60721400  0.47487750  1
  H  1954  1  0.77326300  0.66071300  0.47994600  1
  H  1955  1  0.77327600  0.67562200  0.42177900  1
  H  1956  1  0.77322900  0.55824700  0.39444850  1
  H  1957  1  0.90491400  0.60979300  0.41642750  1
  H  1958  1  0.94336800  0.64729200  0.36345350  1
  H  1959  1  0.83373300  0.65116900  0.35739500  1
  H  1960  1  0.64165500  0.60980200  0.41642700  1
  H  1961  1  0.71286600  0.65118000  0.35739550  1
  H  1962  1  0.60322500  0.64731000  0.36345500  1
  H  1968  1  0.77329300  0.50847200  0.39162650  1
  H  1969  1  0.77326300  0.71900500  0.44279900  1
  H  1970  1  0.53676100  0.62470700  0.40813350  1
  H  1971  1  0.00982238  0.62469800  0.40813450  1
  H  1996  1  0.77324000  0.50802300  0.83320100  1
  H  1997  1  0.77324100  0.55197400  0.81552450  1
  H  1998  1  0.77324600  0.60721800  0.80239200  1
  H  1999  1  0.77324000  0.66072000  0.79732550  1
  H  2000  1  0.77326900  0.67562000  0.85549350  1
  H  2001  1  0.77326100  0.55824700  0.88282150  1
  H  2002  1  0.64166900  0.60979100  0.86084350  1
  H  2003  1  0.60320700  0.64729600  0.91381500  1
  H  2004  1  0.71284700  0.65117100  0.91987500  1
  H  2005  1  0.90492600  0.60979800  0.86084450  1
  H  2006  1  0.83371300  0.65118000  0.91987200  1
  H  2007  1  0.94335400  0.64729800  0.91381600  1
  H  2013  1  0.77322800  0.50847200  0.88564300  1
  H  2014  1  0.77321900  0.71900500  0.83447800  1
  H  2015  1  0.00981938  0.62470400  0.86913550  1
  H  2016  1  0.53676600  0.62468600  0.86913500  1
  N  31  1  0.99305000  0.13928200  0.10168600  1
  N  33  1  0.99305000  0.12966400  0.06989250  1
  N  35  1  0.99304600  0.17872000  0.08089100  1
  N  37  1  0.99304200  0.25571500  0.15479500  1
  N  38  1  0.99303900  0.99859900  0.10397150  1
  N  39  1  0.99304400  0.20678500  0.99455750  1
  N  70  1  0.99304700  0.13927500  0.87052950  1
  N  72  1  0.99305000  0.12964400  0.90231850  1
  N  74  1  0.99304300  0.17871200  0.89130800  1
  N  76  1  0.99303700  0.25571000  0.81739750  1
  N  77  1  0.99305700  0.99936100  0.86621850  1
  N  78  1  0.99304400  0.20678600  0.97763800  1
  N  109  1  0.99307100  0.83233200  0.87052850  1
  N  111  1  0.99307100  0.84196100  0.90231750  1
  N  113  1  0.99307500  0.79289300  0.89130800  1
  N  115  1  0.99308300  0.71589200  0.81739900  1
  N  116  1  0.99306200  0.97226000  0.86627850  1
  N  117  1  0.99307700  0.76482000  0.97763500  1
  N  148  1  0.99306900  0.83234100  0.10164000  1
  N  150  1  0.99306700  0.84198200  0.06985900  1
  N  152  1  0.99307500  0.79289800  0.08087900  1
  N  154  1  0.99306700  0.71593000  0.15482200  1
  N  155  1  0.99303700  0.97208300  0.10752850  1
  N  156  1  0.99307700  0.76481300  0.99455550  1
  N  187  1  0.49297500  0.13925400  0.60164150  1
  N  189  1  0.49297600  0.12960700  0.56986150  1
  N  191  1  0.49297000  0.17869400  0.58088200  1
  N  193  1  0.49296700  0.25571300  0.65479350  1
  N  194  1  0.49300900  0.99952700  0.60758800  1
  N  195  1  0.49296500  0.20678800  0.49455950  1
  N  226  1  0.49297500  0.13927800  0.37053500  1
  N  228  1  0.49297400  0.12964700  0.40232250  1
  N  230  1  0.49297000  0.17871800  0.39131050  1
  N  232  1  0.49294300  0.25568600  0.31737800  1
  N  233  1  0.49298400  0.99940000  0.36607150  1
  N  234  1  0.49296500  0.20678850  0.47763950  1
  N  265  1  0.49299500  0.83232900  0.37052650  1
  N  267  1  0.49299200  0.84195900  0.40231700  1
  N  269  1  0.49299800  0.79289300  0.39130750  1
  N  271  1  0.49300700  0.71589200  0.31739850  1
  N  272  1  0.49298700  0.97230500  0.36642900  1
  N  273  1  0.49300000  0.76482000  0.47763650  1
  N  304  1  0.49299300  0.83232000  0.60169100  1
  N  306  1  0.49299200  0.84193400  0.56989650  1
  N  308  1  0.49299600  0.79288000  0.58089200  1
  N  310  1  0.49300700  0.71590100  0.65480350  1
  N  311  1  0.49300600  0.97303950  0.60395600  1
  N  312  1  0.49300000  0.76481800  0.49455650  1
  N  1375  1  0.27329800  0.13928200  0.25422400  1
  N  1377  1  0.27329800  0.12966400  0.22243050  1
  N  1379  1  0.27329400  0.17872000  0.23342900  1
  N  1381  1  0.27329000  0.25571500  0.30733300  1
  N  1382  1  0.27328700  0.99859900  0.25650950  1
  N  1383  1  0.27329200  0.20678500  0.14709550  1
  N  1414  1  0.27329500  0.13927500  0.02306750  1
  N  1416  1  0.27329800  0.12964400  0.05485650  1
  N  1418  1  0.27329100  0.17871200  0.04384600  1
  N  1420  1  0.27328500  0.25571000  0.96993550  1
  N  1421  1  0.27330500  0.99936100  0.01875650  1
  N  1422  1  0.27329200  0.20678600  0.13017600  1
  N  1453  1  0.27331900  0.83233200  0.02306650  1
  N  1455  1  0.27331900  0.84196100  0.05485550  1
  N  1457  1  0.27332300  0.79289300  0.04384600  1
  N  1459  1  0.27333100  0.71589200  0.96993700  1
  N  1460  1  0.27331000  0.97226000  0.01881650  1
  N  1461  1  0.27332500  0.76482000  0.13017300  1
  N  1492  1  0.27331700  0.83234100  0.25417800  1
  N  1494  1  0.27331500  0.84198200  0.22239700  1
  N  1496  1  0.27332300  0.79289800  0.23341700  1
  N  1498  1  0.27331500  0.71593000  0.30736000  1
  N  1499  1  0.27328500  0.97208300  0.26006650  1
  N  1500  1  0.27332500  0.76481300  0.14709350  1
  N  1531  1  0.77322300  0.13925400  0.75417950  1
  N  1533  1  0.77322400  0.12960700  0.72239950  1
  N  1535  1  0.77321800  0.17869400  0.73342000  1
  N  1537  1  0.77321500  0.25571300  0.80733150  1
  N  1538  1  0.77325700  0.99952700  0.76012600  1
  N  1539  1  0.77321300  0.20678800  0.64709750  1
  N  1570  1  0.77322300  0.13927800  0.52307300  1
  N  1572  1  0.77322200  0.12964700  0.55486050  1
  N  1574  1  0.77321800  0.17871800  0.54384850  1
  N  1576  1  0.77319100  0.25568600  0.46991600  1
  N  1577  1  0.77323200  0.99940000  0.51860950  1
  N  1578  1  0.77321300  0.20678850  0.63017750  1
  N  1609  1  0.77324300  0.83232900  0.52306450  1
  N  1611  1  0.77324000  0.84195900  0.55485500  1
  N  1613  1  0.77324600  0.79289300  0.54384550  1
  N  1615  1  0.77325500  0.71589200  0.46993650  1
  N  1616  1  0.77323500  0.97230500  0.51896700  1
  N  1617  1  0.77324800  0.76482000  0.63017450  1
  N  1648  1  0.77324100  0.83232000  0.75422900  1
  N  1650  1  0.77324000  0.84193400  0.72243450  1
  N  1652  1  0.77324400  0.79288000  0.73343000  1
  N  1654  1  0.77325500  0.71590100  0.80734150  1
  N  1655  1  0.77325400  0.97303950  0.75649400  1
  N  1656  1  0.77324800  0.76481800  0.64709450  1
