# generated using pymatgen
data_H29C40(N2O)2
_symmetry_space_group_name_H-M   'P 1'
_cell_length_a   50.54730000
_cell_length_b   50.54830000
_cell_length_c   50.54890000
_cell_angle_alpha   90.00000000
_cell_angle_beta   90.00000000
_cell_angle_gamma   90.00000000
_symmetry_Int_Tables_number   1
_chemical_formula_structural   H29C40(N2O)2
_chemical_formula_sum   'H348 C480 N48 O24'
_cell_volume   129156.48768793
_cell_formula_units_Z   12
loop_
 _symmetry_equiv_pos_site_id
 _symmetry_equiv_pos_as_xyz
  1  'x, y, z'
loop_
 _atom_site_type_symbol
 _atom_site_label
 _atom_site_symmetry_multiplicity
 _atom_site_fract_x
 _atom_site_fract_y
 _atom_site_fract_z
 _atom_site_occupancy
  H  3  1  0.16568000  0.11256800  0.15447400  1
  H  16  1  0.23846400  0.08512800  0.12440100  1
  H  17  1  0.27150600  0.05768500  0.10499900  1
  H  18  1  0.27854500  0.11143100  0.04132200  1
  H  19  1  0.24585100  0.13895400  0.06093600  1
  H  20  1  0.22279100  0.15014000  0.10599300  1
  H  21  1  0.19158600  0.10257000  0.11163600  1
  H  24  1  0.31913900  0.09130600  0.03922300  1
  H  26  1  0.17585200  0.16575700  0.09129900  1
  H  29  1  0.34501000  0.03011200  0.05991400  1
  H  30  1  0.63016600  0.00672600  0.03313100  1
  H  31  1  0.01411400  0.32989400  0.05616900  1
  H  42  1  0.11259500  0.17584600  0.14441100  1
  H  43  1  0.08189300  0.24551800  0.11741400  1
  H  44  1  0.06234900  0.27825300  0.08988000  1
  H  45  1  0.12661700  0.27193800  0.03675100  1
  H  46  1  0.14595500  0.23885500  0.06420100  1
  H  47  1  0.12706700  0.22273700  0.12891800  1
  H  48  1  0.13315400  0.19174800  0.08126600  1
  H  51  1  0.06038000  0.31904100  0.07004100  1
  H  56  1  0.08122200  0.34510200  0.00891600  1
  H  57  1  0.98499800  0.35745200  0.02770700  1
  H  58  1  0.97794300  0.41630500  0.01536400  1
  H  59  1  0.97745300  0.46349100  0.01112500  1
  H  60  1  0.01959400  0.64534300  0.02706300  1
  H  61  1  0.02187200  0.58840600  0.02024200  1
  H  62  1  0.01686900  0.54102300  0.02259300  1
  H  67  1  0.92684100  0.66933800  0.00386100  1
  H  69  1  0.99383300  0.67783300  0.05292000  1
  H  72  1  0.95900500  0.71083300  0.05089600  1
  H  83  1  0.87846400  0.82085100  0.15475900  1
  H  84  1  0.92826100  0.76825700  0.11186100  1
  H  85  1  0.94367300  0.72914200  0.09066300  1
  H  86  1  0.87536600  0.72826600  0.04250200  1
  H  87  1  0.85991100  0.76741500  0.06375800  1
  H  88  1  0.89842800  0.80851000  0.10575000  1
  H  89  1  0.84531100  0.78736200  0.10695400  1
  H  92  1  0.37231500  0.99860300  0.03348900  1
  H  93  1  0.41028100  0.96399500  0.00466800  1
  H  94  1  0.45762100  0.95958900  0.00418200  1
  H  97  1  0.65725800  0.97439100  0.05885300  1
  H  99  1  0.82372700  0.83427300  0.09339800  1
  H  100  1  0.68213900  0.91331900  0.03723400  1
  H  112  1  0.83078000  0.88914600  0.15568100  1
  H  113  1  0.76332500  0.91872700  0.12216300  1
  H  114  1  0.73097500  0.94671000  0.10243300  1
  H  115  1  0.72203100  0.89199600  0.03981200  1
  H  116  1  0.75404000  0.86390400  0.05980800  1
  H  117  1  0.77624100  0.85307900  0.10595900  1
  H  118  1  0.80982800  0.89926500  0.10949600  1
  H  126  1  0.07750500  0.01417100  0.30867300  1
  H  128  1  0.09128200  0.06050400  0.29776300  1
  H  137  1  0.05777400  0.12639400  0.25030000  1
  H  138  1  0.08522700  0.14577000  0.21724500  1
  H  139  1  0.11127500  0.06248100  0.25706400  1
  H  140  1  0.13880900  0.08206400  0.22435900  1
  H  141  1  0.15012900  0.12717400  0.20141700  1
  H  142  1  0.10253600  0.13303800  0.17029000  1
  H  146  1  0.03006100  0.08120300  0.32362700  1
  H  150  1  0.97857500  0.92818600  0.31119800  1
  H  152  1  0.93240800  0.96171600  0.27050400  1
  H  161  1  0.93648300  0.87688000  0.25516300  1
  H  162  1  0.91516900  0.86163100  0.21594300  1
  H  163  1  0.89298900  0.94816000  0.25098100  1
  H  164  1  0.87190600  0.93300900  0.21170000  1
  H  165  1  0.87853200  0.90121300  0.17207500  1
  H  166  1  0.86926700  0.85037900  0.19657200  1
  H  169  1  0.93112000  0.99646500  0.30412900  1
  H  173  1  0.95807700  0.02126800  0.33639300  1
  H  174  1  0.99857000  0.05479300  0.35095900  1
  H  175  1  0.96405100  0.02611400  0.38894000  1
  H  178  1  0.95960800  0.02566100  0.43627900  1
  H  180  1  0.04907300  0.98506200  0.33626400  1
  H  182  1  0.00769300  0.94985600  0.34407300  1
  H  184  1  0.03663400  0.97793000  0.39500000  1
  H  185  1  0.03239200  0.97744900  0.44218600  1
  H  188  1  0.01238200  0.96757600  0.48533000  1
  H  193  1  0.97134600  0.99034800  0.47495600  1
  H  194  1  0.04830400  0.01958700  0.62403300  1
  H  195  1  0.04151400  0.02181200  0.56711400  1
  H  198  1  0.04387600  0.01682700  0.51972600  1
  H  199  1  0.00654400  0.05441300  0.60868200  1
  H  206  1  0.97421400  0.08016500  0.63575300  1
  H  208  1  0.91325400  0.05845200  0.66088700  1
  H  209  1  0.92802600  0.01213600  0.65011300  1
  H  218  1  0.07419700  0.99382800  0.65650500  1
  H  220  1  0.02518400  0.92679900  0.64797500  1
  H  223  1  0.96742500  0.97552600  0.56816700  1
  H  224  1  0.96981200  0.97046800  0.52085200  1
  H  226  1  0.95731300  0.98366500  0.62279100  1
  H  227  1  0.99723800  0.94938700  0.61483000  1
  H  229  1  0.78739700  0.12823700  0.82401200  1
  H  230  1  0.83429200  0.11472500  0.80240100  1
  H  242  1  0.94653900  0.12391200  0.70943000  1
  H  243  1  0.91856500  0.14362000  0.74180400  1
  H  244  1  0.89206900  0.06102500  0.70084800  1
  H  245  1  0.86398700  0.08099800  0.73287800  1
  H  246  1  0.85303100  0.12720600  0.75494000  1
  H  247  1  0.89927700  0.13092800  0.78842700  1
  H  250  1  0.88912800  0.17704400  0.80943000  1
  H  252  1  0.11471400  0.82375100  0.81293000  1
  H  253  1  0.12735800  0.77623200  0.83177100  1
  H  255  1  0.07224300  0.95897400  0.68946900  1
  H  265  1  0.06382200  0.87537500  0.70692900  1
  H  266  1  0.08508300  0.85993200  0.74607800  1
  H  267  1  0.11205600  0.94363000  0.70772100  1
  H  268  1  0.13326200  0.92822900  0.74683700  1
  H  269  1  0.12712400  0.89843800  0.78711700  1
  H  270  1  0.12828500  0.84530200  0.76602300  1
  H  273  1  0.17611200  0.87844300  0.79949700  1
  H  274  1  0.21791300  0.86923400  0.82902700  1
  H  275  1  0.32995600  0.07750000  0.98994400  1
  H  277  1  0.35751500  0.04904600  0.96373800  1
  H  279  1  0.41627000  0.03673400  0.95671900  1
  H  280  1  0.46346100  0.03253300  0.95621100  1
  H  284  1  0.36544800  0.00764800  0.92854000  1
  H  286  1  0.50664200  0.01261400  0.94628200  1
  H  293  1  0.64532200  0.04842600  0.99534300  1
  H  294  1  0.58840500  0.04155100  0.99773300  1
  H  295  1  0.54102200  0.04393100  0.99272600  1
  H  300  1  0.66939900  0.02511700  0.90556300  1
  H  302  1  0.67784200  0.07425200  0.97251000  1
  H  305  1  0.71086900  0.07221100  0.93770600  1
  H  314  1  0.76749500  0.08500500  0.83864500  1
  H  315  1  0.72834800  0.06374100  0.85410000  1
  H  316  1  0.72914700  0.11198700  0.92234500  1
  H  317  1  0.76826100  0.13319100  0.90693600  1
  H  318  1  0.80854000  0.12705900  0.87712900  1
  H  322  1  0.82087300  0.17605700  0.85716800  1
  H  324  1  0.90122900  0.19342800  0.85717800  1
  H  326  1  0.92818200  0.33255300  0.95726900  1
  H  328  1  0.96170900  0.29179800  0.91111600  1
  H  337  1  0.93298800  0.23309000  0.85053700  1
  H  338  1  0.94813600  0.27235500  0.87165300  1
  H  339  1  0.87690700  0.27643100  0.91523700  1
  H  340  1  0.86166000  0.23722500  0.89389300  1
  H  341  1  0.85036600  0.21788900  0.84797300  1
  H  344  1  0.99649400  0.32538000  0.90986400  1
  H  347  1  0.05480600  0.37238600  0.97738800  1
  H  349  1  0.02130700  0.35765000  0.93682200  1
  H  350  1  0.02607900  0.41025700  0.94275000  1
  H  353  1  0.02561500  0.45759600  0.93830900  1
  H  359  1  0.94985700  0.36542900  0.98344000  1
  H  365  1  0.99029200  0.49627200  0.95008000  1
  H  370  1  0.08015300  0.65725500  0.95303400  1
  H  371  1  0.05442700  0.63016200  0.98244100  1
  H  374  1  0.96758500  0.50665800  0.98822300  1
  H  376  1  0.97552400  0.58950400  0.94619500  1
  H  377  1  0.97044700  0.54218800  0.94857100  1
  H  385  1  0.94943300  0.63617600  0.97593200  1
  H  386  1  0.98372800  0.64394600  0.93596900  1
  H  387  1  0.05855700  0.68213400  0.89197800  1
  H  388  1  0.01217400  0.67128700  0.90667100  1
  H  399  1  0.08125300  0.75392600  0.84247900  1
  H  400  1  0.06122800  0.72193300  0.87055700  1
  H  401  1  0.12362500  0.73113400  0.92548600  1
  H  402  1  0.14338000  0.76347400  0.89751300  1
  H  403  1  0.13075000  0.80988700  0.87792000  1
  H  406  1  0.17699100  0.83078800  0.86781100  1
  H  410  1  0.33259300  0.97852000  0.90684100  1
  H  412  1  0.29181800  0.93240900  0.94036500  1
  H  421  1  0.23731800  0.91512900  0.84027900  1
  H  422  1  0.27653700  0.93644300  0.85553600  1
  H  423  1  0.27233100  0.89296400  0.92681900  1
  H  424  1  0.23305300  0.87187900  0.91166200  1
  H  425  1  0.19343500  0.87852400  0.87986500  1
  H  428  1  0.32538200  0.93114300  0.97515900  1
  H  438  1  0.35762500  0.95810700  0.99706400  1
  H  440  1  0.49628000  0.97147300  0.96888000  1
  H  443  1  0.58948500  0.96761900  0.95412000  1
  H  444  1  0.54217300  0.97003300  0.94903400  1
  H  445  1  0.63620400  0.99722400  0.92815100  1
  H  449  1  0.64389600  0.95729600  0.96244600  1
  H  450  1  0.67123700  0.92800400  0.98795600  1
  H  453  1  0.16568000  0.11256800  0.56991300  1
  H  466  1  0.23846400  0.08512800  0.53984000  1
  H  467  1  0.27150600  0.05768500  0.52043800  1
  H  468  1  0.27854500  0.11143100  0.45676100  1
  H  469  1  0.24585100  0.13895400  0.47637500  1
  H  470  1  0.22279100  0.15014000  0.52143200  1
  H  471  1  0.19158600  0.10257000  0.52707500  1
  H  474  1  0.31913900  0.09130600  0.45466200  1
  H  476  1  0.17585200  0.16575700  0.50673800  1
  H  479  1  0.34501000  0.03011200  0.47535300  1
  H  480  1  0.63016600  0.00672600  0.44857000  1
  H  481  1  0.01411400  0.32989400  0.47160800  1
  H  492  1  0.11259500  0.17584600  0.55985000  1
  H  493  1  0.08189300  0.24551800  0.53285300  1
  H  494  1  0.06234900  0.27825300  0.50531900  1
  H  495  1  0.12661700  0.27193800  0.45219000  1
  H  496  1  0.14595500  0.23885500  0.47964000  1
  H  497  1  0.12706700  0.22273700  0.54435700  1
  H  498  1  0.13315400  0.19174800  0.49670500  1
  H  501  1  0.06038000  0.31904100  0.48548000  1
  H  506  1  0.08122200  0.34510200  0.42435500  1
  H  507  1  0.98499800  0.35745200  0.44314600  1
  H  508  1  0.97794300  0.41630500  0.43080300  1
  H  509  1  0.97745300  0.46349100  0.42656400  1
  H  510  1  0.01959400  0.64534300  0.44250200  1
  H  511  1  0.02187200  0.58840600  0.43568100  1
  H  512  1  0.01686900  0.54102300  0.43803200  1
  H  517  1  0.92684100  0.66933800  0.41930000  1
  H  519  1  0.99383300  0.67783300  0.46835900  1
  H  522  1  0.95900500  0.71083300  0.46633500  1
  H  533  1  0.87846400  0.82085100  0.57019800  1
  H  534  1  0.92826100  0.76825700  0.52730000  1
  H  535  1  0.94367300  0.72914200  0.50610200  1
  H  536  1  0.87536600  0.72826600  0.45794100  1
  H  537  1  0.85991100  0.76741500  0.47919700  1
  H  538  1  0.89842800  0.80851000  0.52118900  1
  H  539  1  0.84531100  0.78736200  0.52239300  1
  H  542  1  0.37231500  0.99860300  0.44892800  1
  H  543  1  0.41028100  0.96399500  0.42010700  1
  H  544  1  0.45762100  0.95958900  0.41962100  1
  H  547  1  0.65725800  0.97439100  0.47429200  1
  H  549  1  0.82372700  0.83427300  0.50883700  1
  H  550  1  0.68213900  0.91331900  0.45267300  1
  H  562  1  0.83078000  0.88914600  0.57112000  1
  H  563  1  0.76332500  0.91872700  0.53760200  1
  H  564  1  0.73097500  0.94671000  0.51787200  1
  H  565  1  0.72203100  0.89199600  0.45525100  1
  H  566  1  0.75404000  0.86390400  0.47524700  1
  H  567  1  0.77624100  0.85307900  0.52139800  1
  H  568  1  0.80982800  0.89926500  0.52493500  1
  H  576  1  0.07750500  0.01417100  0.72411200  1
  H  578  1  0.09128200  0.06050400  0.71320200  1
  H  587  1  0.05777400  0.12639400  0.66573900  1
  H  588  1  0.08522700  0.14577000  0.63268400  1
  H  589  1  0.11127500  0.06248100  0.67250300  1
  H  590  1  0.13880900  0.08206400  0.63979800  1
  H  591  1  0.15012900  0.12717400  0.61685600  1
  H  592  1  0.10253600  0.13303800  0.58572900  1
  H  596  1  0.03006100  0.08120300  0.73906600  1
  H  600  1  0.97857500  0.92818600  0.72663700  1
  H  602  1  0.93240800  0.96171600  0.68594300  1
  H  611  1  0.93648300  0.87688000  0.67060200  1
  H  612  1  0.91516900  0.86163100  0.63138200  1
  H  613  1  0.89298900  0.94816000  0.66642000  1
  H  614  1  0.87190600  0.93300900  0.62713900  1
  H  615  1  0.87853200  0.90121300  0.58751400  1
  H  616  1  0.86926700  0.85037900  0.61201100  1
  H  619  1  0.93112000  0.99646500  0.71956800  1
  H  623  1  0.95807700  0.02126800  0.75183200  1
  H  624  1  0.99857000  0.05479300  0.76639800  1
  H  625  1  0.96405100  0.02611400  0.80437900  1
  H  628  1  0.95960800  0.02566100  0.85171800  1
  H  630  1  0.04907300  0.98506200  0.75170300  1
  H  632  1  0.00769300  0.94985600  0.75951200  1
  H  634  1  0.03663400  0.97793000  0.81043900  1
  H  635  1  0.03239200  0.97744900  0.85762500  1
  H  638  1  0.01238200  0.96757600  0.90076900  1
  H  643  1  0.97134600  0.99034800  0.89039500  1
  H  644  1  0.04830400  0.01958700  0.03947230  1
  H  645  1  0.04151400  0.02181200  0.98255300  1
  H  648  1  0.04387600  0.01682700  0.93516500  1
  H  649  1  0.00654400  0.05441300  0.02412130  1
  H  656  1  0.97421400  0.08016500  0.05119230  1
  H  658  1  0.91325400  0.05845200  0.07632630  1
  H  659  1  0.92802600  0.01213600  0.06555230  1
  H  668  1  0.07419700  0.99382800  0.07194430  1
  H  670  1  0.02518400  0.92679900  0.06341430  1
  H  673  1  0.96742500  0.97552600  0.98360600  1
  H  674  1  0.96981200  0.97046800  0.93629100  1
  H  676  1  0.95731300  0.98366500  0.03823030  1
  H  677  1  0.99723800  0.94938700  0.03026930  1
  H  679  1  0.78739700  0.12823700  0.23945100  1
  H  680  1  0.83429200  0.11472500  0.21784000  1
  H  692  1  0.94653900  0.12391200  0.12486900  1
  H  693  1  0.91856500  0.14362000  0.15724300  1
  H  694  1  0.89206900  0.06102500  0.11628700  1
  H  695  1  0.86398700  0.08099800  0.14831700  1
  H  696  1  0.85303100  0.12720600  0.17037900  1
  H  697  1  0.89927700  0.13092800  0.20386600  1
  H  700  1  0.88912800  0.17704400  0.22486900  1
  H  702  1  0.11471400  0.82375100  0.22836900  1
  H  703  1  0.12735800  0.77623200  0.24721000  1
  H  705  1  0.07224300  0.95897400  0.10490800  1
  H  715  1  0.06382200  0.87537500  0.12236800  1
  H  716  1  0.08508300  0.85993200  0.16151700  1
  H  717  1  0.11205600  0.94363000  0.12316000  1
  H  718  1  0.13326200  0.92822900  0.16227600  1
  H  719  1  0.12712400  0.89843800  0.20255600  1
  H  720  1  0.12828500  0.84530200  0.18146200  1
  H  723  1  0.17611200  0.87844300  0.21493600  1
  H  724  1  0.21791300  0.86923400  0.24446600  1
  H  725  1  0.32995600  0.07750000  0.40538300  1
  H  727  1  0.35751500  0.04904600  0.37917700  1
  H  729  1  0.41627000  0.03673400  0.37215800  1
  H  730  1  0.46346100  0.03253300  0.37165000  1
  H  734  1  0.36544800  0.00764800  0.34397900  1
  H  736  1  0.50664200  0.01261400  0.36172100  1
  H  743  1  0.64532200  0.04842600  0.41078200  1
  H  744  1  0.58840500  0.04155100  0.41317200  1
  H  745  1  0.54102200  0.04393100  0.40816500  1
  H  750  1  0.66939900  0.02511700  0.32100200  1
  H  752  1  0.67784200  0.07425200  0.38794900  1
  H  755  1  0.71086900  0.07221100  0.35314500  1
  H  764  1  0.76749500  0.08500500  0.25408400  1
  H  765  1  0.72834800  0.06374100  0.26953900  1
  H  766  1  0.72914700  0.11198700  0.33778400  1
  H  767  1  0.76826100  0.13319100  0.32237500  1
  H  768  1  0.80854000  0.12705900  0.29256800  1
  H  772  1  0.82087300  0.17605700  0.27260700  1
  H  774  1  0.90122900  0.19342800  0.27261700  1
  H  776  1  0.92818200  0.33255300  0.37270800  1
  H  778  1  0.96170900  0.29179800  0.32655500  1
  H  787  1  0.93298800  0.23309000  0.26597600  1
  H  788  1  0.94813600  0.27235500  0.28709200  1
  H  789  1  0.87690700  0.27643100  0.33067600  1
  H  790  1  0.86166000  0.23722500  0.30933200  1
  H  791  1  0.85036600  0.21788900  0.26341200  1
  H  794  1  0.99649400  0.32538000  0.32530300  1
  H  797  1  0.05480600  0.37238600  0.39282700  1
  H  799  1  0.02130700  0.35765000  0.35226100  1
  H  800  1  0.02607900  0.41025700  0.35818900  1
  H  803  1  0.02561500  0.45759600  0.35374800  1
  H  809  1  0.94985700  0.36542900  0.39887900  1
  H  815  1  0.99029200  0.49627200  0.36551900  1
  H  820  1  0.08015300  0.65725500  0.36847300  1
  H  821  1  0.05442700  0.63016200  0.39788000  1
  H  824  1  0.96758500  0.50665800  0.40366200  1
  H  826  1  0.97552400  0.58950400  0.36163400  1
  H  827  1  0.97044700  0.54218800  0.36401000  1
  H  835  1  0.94943300  0.63617600  0.39137100  1
  H  836  1  0.98372800  0.64394600  0.35140800  1
  H  837  1  0.05855700  0.68213400  0.30741700  1
  H  838  1  0.01217400  0.67128700  0.32211000  1
  H  849  1  0.08125300  0.75392600  0.25791800  1
  H  850  1  0.06122800  0.72193300  0.28599600  1
  H  851  1  0.12362500  0.73113400  0.34092500  1
  H  852  1  0.14338000  0.76347400  0.31295200  1
  H  853  1  0.13075000  0.80988700  0.29335900  1
  H  856  1  0.17699100  0.83078800  0.28325000  1
  H  860  1  0.33259300  0.97852000  0.32228000  1
  H  862  1  0.29181800  0.93240900  0.35580400  1
  H  871  1  0.23731800  0.91512900  0.25571800  1
  H  872  1  0.27653700  0.93644300  0.27097500  1
  H  873  1  0.27233100  0.89296400  0.34225800  1
  H  874  1  0.23305300  0.87187900  0.32710100  1
  H  875  1  0.19343500  0.87852400  0.29530400  1
  H  878  1  0.32538200  0.93114300  0.39059800  1
  H  888  1  0.35762500  0.95810700  0.41250300  1
  H  890  1  0.49628000  0.97147300  0.38431900  1
  H  893  1  0.58948500  0.96761900  0.36955900  1
  H  894  1  0.54217300  0.97003300  0.36447300  1
  H  895  1  0.63620400  0.99722400  0.34359000  1
  H  899  1  0.64389600  0.95729600  0.37788500  1
  H  900  1  0.67123700  0.92800400  0.40339500  1
  C  1  1  0.13779600  0.14376200  0.15360400  1
  C  2  1  0.16034900  0.12963700  0.14488800  1
  C  4  1  0.16624700  0.16040700  0.10835000  1
  C  5  1  0.12965500  0.16625100  0.13906800  1
  C  7  1  0.17492000  0.13781300  0.12243600  1
  C  8  1  0.19527400  0.12188100  0.11288700  1
  C  9  1  0.21915700  0.13080400  0.10517600  1
  C  10  1  0.23877800  0.11467900  0.09449700  1
  C  11  1  0.24684800  0.09094000  0.10690200  1
  C  12  1  0.25131700  0.12200100  0.07060600  1
  C  13  1  0.27090300  0.10581100  0.05917700  1
  C  14  1  0.27885000  0.08181100  0.07129300  1
  C  15  1  0.26637200  0.07475300  0.09538500  1
  C  22  1  0.29778800  0.06440000  0.05945300  1
  C  25  1  0.33425900  0.05621900  0.02879200  1
  C  27  1  0.34739100  0.03429000  0.04027100  1
  C  28  1  0.36379600  0.01777200  0.02495100  1
  C  33  1  0.14377700  0.17496400  0.11651100  1
  C  34  1  0.13426300  0.19535500  0.10060100  1
  C  35  1  0.12639700  0.21917100  0.10956500  1
  C  36  1  0.11574800  0.23880700  0.09344300  1
  C  37  1  0.09169800  0.25114400  0.10059200  1
  C  38  1  0.12834300  0.24709200  0.06987900  1
  C  39  1  0.11686500  0.26663600  0.05369000  1
  C  40  1  0.09262200  0.27891700  0.06057500  1
  C  41  1  0.08030400  0.27074300  0.08439500  1
  C  49  1  0.08084000  0.29788500  0.04316500  1
  C  52  1  0.05007100  0.33426400  0.03495500  1
  C  53  1  0.02306100  0.33908600  0.04050300  1
  C  54  1  0.00767400  0.35526600  0.02389000  1
  C  55  1  0.06156900  0.34744800  0.01306700  1
  C  63  1  0.01201300  0.57873200  0.00545800  1
  C  64  1  0.00919600  0.55102300  0.00676000  1
  C  65  1  0.99731300  0.64947800  0.02284000  1
  C  66  1  0.94512100  0.66344300  0.01011600  1
  C  68  1  0.98387100  0.66865400  0.03787000  1
  C  70  1  0.95755300  0.67617300  0.03180000  1
  C  73  1  0.85233400  0.82416600  0.12222300  1
  C  74  1  0.86414700  0.83242000  0.14622000  1
  C  75  1  0.85957300  0.80053300  0.11017300  1
  C  76  1  0.88442700  0.79506900  0.10231500  1
  C  77  1  0.89235200  0.77157100  0.09022800  1
  C  78  1  0.91683400  0.76001000  0.09729500  1
  C  79  1  0.87742400  0.75934100  0.06993800  1
  C  80  1  0.88658000  0.73621700  0.05737700  1
  C  81  1  0.91123000  0.72480200  0.06419100  1
  C  82  1  0.92606900  0.73703200  0.08455400  1
  C  90  1  0.92046100  0.70173500  0.05071300  1
  C  95  1  0.65463400  0.97056100  0.03916800  1
  C  96  1  0.63836100  0.98756200  0.02426100  1
  C  98  1  0.66741400  0.94869300  0.02719600  1
  C  102  1  0.82412700  0.86391400  0.12297700  1
  C  103  1  0.83226800  0.84001400  0.11088200  1
  C  104  1  0.80516500  0.88023500  0.11151900  1
  C  105  1  0.78095600  0.87209500  0.10397400  1
  C  106  1  0.76206200  0.88868700  0.09277100  1
  C  107  1  0.75474700  0.91286700  0.10477300  1
  C  108  1  0.74918100  0.88124600  0.06910700  1
  C  109  1  0.72999000  0.89776700  0.05747800  1
  C  110  1  0.72278000  0.92220100  0.06919100  1
  C  111  1  0.73561200  0.92936500  0.09306800  1
  C  119  1  0.70417200  0.93988700  0.05724300  1
  C  121  1  0.83660800  0.87190500  0.14670700  1
  C  122  1  0.85671200  0.85641700  0.15852700  1
  C  123  1  0.04521300  0.00772500  0.33402500  1
  C  124  1  0.06182300  0.02311300  0.31784100  1
  C  125  1  0.05620300  0.05009000  0.31292900  1
  C  129  1  0.08178300  0.09257700  0.25750700  1
  C  130  1  0.07479400  0.11672700  0.24510500  1
  C  131  1  0.09098300  0.12822500  0.22557400  1
  C  132  1  0.11465800  0.11574600  0.21742700  1
  C  133  1  0.12191600  0.09179900  0.22989600  1
  C  134  1  0.10571600  0.08038100  0.24947900  1
  C  135  1  0.13078800  0.12640500  0.19780000  1
  C  136  1  0.12185600  0.13422200  0.17395600  1
  C  143  1  0.06436800  0.08075500  0.27645100  1
  C  145  1  0.03426000  0.06156800  0.32603900  1
  C  147  1  0.97286900  0.94653600  0.31743500  1
  C  148  1  0.95131100  0.95965200  0.30520700  1
  C  149  1  0.94605300  0.98605500  0.31299600  1
  C  153  1  0.91718100  0.91421700  0.25699300  1
  C  154  1  0.92261700  0.88882100  0.24648400  1
  C  155  1  0.91004500  0.87978000  0.22332600  1
  C  156  1  0.89117100  0.89567400  0.21011900  1
  C  157  1  0.88544000  0.92091100  0.22071900  1
  C  158  1  0.89814900  0.92997000  0.24378200  1
  C  159  1  0.87935500  0.88783000  0.18650900  1
  C  160  1  0.86852300  0.86387300  0.18225600  1
  C  167  1  0.93075200  0.92326500  0.28008500  1
  C  170  1  0.96171100  0.99891800  0.33207300  1
  C  171  1  0.02288600  0.01909200  0.34630400  1
  C  172  1  0.01775200  0.04625800  0.34246200  1
  C  176  1  0.97795700  0.01653900  0.40007800  1
  C  177  1  0.97544900  0.01630500  0.42783300  1
  C  179  1  0.99924800  0.00344200  0.38766200  1
  C  183  1  0.02107000  0.98759000  0.40360700  1
  C  186  1  0.01847400  0.98731500  0.43136100  1
  C  189  1  0.98852800  0.95934200  0.33659700  1
  C  190  1  0.98321000  0.98570900  0.34398200  1
  C  191  1  0.99390300  0.99989100  0.44399000  1
  C  196  1  0.02673400  0.01195300  0.55743100  1
  C  197  1  0.02804100  0.00915000  0.52972300  1
  C  200  1  0.98291100  0.01828800  0.61302400  1
  C  201  1  0.96071400  0.00639900  0.62507200  1
  C  202  1  0.94358600  0.02141400  0.64107400  1
  C  203  1  0.94862000  0.04848500  0.64609700  1
  C  204  1  0.97042800  0.06046000  0.63321500  1
  C  205  1  0.98741800  0.04553700  0.61694300  1
  C  210  1  0.02250600  0.98474900  0.61578000  1
  C  211  1  0.00562000  0.99782200  0.57188200  1
  C  212  1  0.00824000  0.99225500  0.51587300  1
  C  213  1  0.01648000  0.95840200  0.62270400  1
  C  214  1  0.03145700  0.94506600  0.64206300  1
  C  215  1  0.05309300  0.95753800  0.65483700  1
  C  216  1  0.05914100  0.98386500  0.64733600  1
  C  217  1  0.04411800  0.99729600  0.62814600  1
  C  222  1  0.98268000  0.98413200  0.55803800  1
  C  225  1  0.98400900  0.98130700  0.53034600  1
  C  228  1  0.82419200  0.14352800  0.83103100  1
  C  232  1  0.92215000  0.09053700  0.70141600  1
  C  233  1  0.92924600  0.11448700  0.71414600  1
  C  234  1  0.91275500  0.12618000  0.73329400  1
  C  235  1  0.88864700  0.11409700  0.74071600  1
  C  236  1  0.88126400  0.09036600  0.72792500  1
  C  237  1  0.89778900  0.07874000  0.70873400  1
  C  238  1  0.87206200  0.12528900  0.75962100  1
  C  239  1  0.88022900  0.13288500  0.78380300  1
  C  240  1  0.86391400  0.14432600  0.80278100  1
  C  241  1  0.84003700  0.13220200  0.81095100  1
  C  248  1  0.93982300  0.07861200  0.68278000  1
  C  249  1  0.87190200  0.16805100  0.81527600  1
  C  251  1  0.13219700  0.83228900  0.81867700  1
  C  256  1  0.08554900  0.91121200  0.70342000  1
  C  257  1  0.07871700  0.88657600  0.71485600  1
  C  258  1  0.09128300  0.87742600  0.73798200  1
  C  259  1  0.11160400  0.89233700  0.75018200  1
  C  260  1  0.11868000  0.91680800  0.73860400  1
  C  261  1  0.10592900  0.92604300  0.71563200  1
  C  262  1  0.12368000  0.88442700  0.77369000  1
  C  263  1  0.13151400  0.85957200  0.77918000  1
  C  264  1  0.14355100  0.85234500  0.80282300  1
  C  271  1  0.07207700  0.92043800  0.68035100  1
  C  272  1  0.16755700  0.86414200  0.81107400  1
  C  276  1  0.33911800  0.06180700  0.99887200  1
  C  278  1  0.35529500  0.04519800  0.98347900  1
  C  281  1  0.36759000  0.02288100  0.99484900  1
  C  282  1  0.45264700  0.01857200  0.96602900  1
  C  283  1  0.42489300  0.02115300  0.96633600  1
  C  287  1  0.63710600  0.02255300  0.96347700  1
  C  288  1  0.59318700  0.00573000  0.97654900  1
  C  289  1  0.57872900  0.02680700  0.98781400  1
  C  290  1  0.55102100  0.02811400  0.98501600  1
  C  291  1  0.53717600  0.00837100  0.97095700  1
  C  292  1  0.64948500  0.04417300  0.97600100  1
  C  297  1  0.64410000  0.01645500  0.93716600  1
  C  298  1  0.66349500  0.03138800  0.92383400  1
  C  301  1  0.66869400  0.05916900  0.96256900  1
  C  303  1  0.67623400  0.05306600  0.93626800  1
  C  306  1  0.80056700  0.13146500  0.83827100  1
  C  307  1  0.79510300  0.12361300  0.86312900  1
  C  308  1  0.77160600  0.11152500  0.87105000  1
  C  309  1  0.75940800  0.09119700  0.85614700  1
  C  310  1  0.76003300  0.11860300  0.89552100  1
  C  311  1  0.73705800  0.10585500  0.90476000  1
  C  312  1  0.72484800  0.08546800  0.88993600  1
  C  313  1  0.73629300  0.07862200  0.86530900  1
  C  319  1  0.70177400  0.07200300  0.89916300  1
  C  321  1  0.83244000  0.16752600  0.84284500  1
  C  323  1  0.85642200  0.17985300  0.83539500  1
  C  325  1  0.95967900  0.32648600  0.93004600  1
  C  329  1  0.86387200  0.20358400  0.84720900  1
  C  330  1  0.88783800  0.20785300  0.85801700  1
  C  331  1  0.89567200  0.23146400  0.86983500  1
  C  332  1  0.92089800  0.24208700  0.86409000  1
  C  333  1  0.87979000  0.24463900  0.88873900  1
  C  334  1  0.88882300  0.26779500  0.90132300  1
  C  335  1  0.91421100  0.27831800  0.89588100  1
  C  336  1  0.92995500  0.26514000  0.87681800  1
  C  342  1  0.92326400  0.30139500  0.90947600  1
  C  345  1  0.98608000  0.33427200  0.92477800  1
  C  346  1  0.04626000  0.36386800  0.99362600  1
  C  348  1  0.01906400  0.36760100  0.99868200  1
  C  351  1  0.01650300  0.42139100  0.95665800  1
  C  352  1  0.01625500  0.44914500  0.95414500  1
  C  354  1  0.00343100  0.40897100  0.97796200  1
  C  356  1  0.98759800  0.42491400  0.99687200  1
  C  357  1  0.94654700  0.33875900  0.95156800  1
  C  358  1  0.95932900  0.35797400  0.96718400  1
  C  360  1  0.98731700  0.45266800  0.99428100  1
  C  361  1  0.98572200  0.36529200  0.96189800  1
  C  362  1  0.99986200  0.46530200  0.97261700  1
  C  363  1  0.99894200  0.35336300  0.94042000  1
  C  366  1  0.01833100  0.63433000  0.96164500  1
  C  367  1  0.00645000  0.64629300  0.93939900  1
  C  368  1  0.06046300  0.65464700  0.94921400  1
  C  369  1  0.04555400  0.63837400  0.96621300  1
  C  372  1  0.02144000  0.66234100  0.92229100  1
  C  373  1  0.04849100  0.66743900  0.92735200  1
  C  375  1  0.98412800  0.57936700  0.96144300  1
  C  378  1  0.98129300  0.55167400  0.96276900  1
  C  380  1  0.98478100  0.63709600  0.99830300  1
  C  381  1  0.99786100  0.59319500  0.98144000  1
  C  382  1  0.99227900  0.53718500  0.98404100  1
  C  384  1  0.95845500  0.64406500  0.99223500  1
  C  390  1  0.14428900  0.82414400  0.84257600  1
  C  391  1  0.13280900  0.80520000  0.85889900  1
  C  392  1  0.12532200  0.78097000  0.85077600  1
  C  393  1  0.11410500  0.76207900  0.86736400  1
  C  394  1  0.09051000  0.74911100  0.85985300  1
  C  395  1  0.12603400  0.75483800  0.89160400  1
  C  396  1  0.11431100  0.73571200  0.90809700  1
  C  397  1  0.09048900  0.72281200  0.90087400  1
  C  398  1  0.07886400  0.72992600  0.87637100  1
  C  404  1  0.07852200  0.70420400  0.91855200  1
  C  407  1  0.16802000  0.83662200  0.85057000  1
  C  408  1  0.17985700  0.85671100  0.83507700  1
  C  409  1  0.32653200  0.95129600  0.93832900  1
  C  413  1  0.20359900  0.86849800  0.84252700  1
  C  414  1  0.20786900  0.87932900  0.86648200  1
  C  415  1  0.23149200  0.89112600  0.87431800  1
  C  416  1  0.24470500  0.90999300  0.85842400  1
  C  417  1  0.24208000  0.88540500  0.89956300  1
  C  418  1  0.26514400  0.89811100  0.90862300  1
  C  419  1  0.27835900  0.91713900  0.89287000  1
  C  420  1  0.26786200  0.92256900  0.86746900  1
  C  426  1  0.30144600  0.93071600  0.90192900  1
  C  429  1  0.33428700  0.94605200  0.96474500  1
  C  430  1  0.33877800  0.97285000  0.92522300  1
  C  431  1  0.35794800  0.98849600  0.93803000  1
  C  432  1  0.36528800  0.98318800  0.96441300  1
  C  433  1  0.40896500  0.99926800  0.97919000  1
  C  434  1  0.42140300  0.97794000  0.99220800  1
  C  435  1  0.44915900  0.97545100  0.99195000  1
  C  436  1  0.46529900  0.99396400  0.97852200  1
  C  437  1  0.35337200  0.96169400  0.97761600  1
  C  441  1  0.66227900  0.94361000  0.99723200  1
  C  442  1  0.64623200  0.96072300  0.98224500  1
  C  446  1  0.63429700  0.98298900  0.99411900  1
  C  447  1  0.55166300  0.98419700  0.95991600  1
  C  448  1  0.57935200  0.98284400  0.96277100  1
  C  451  1  0.13779600  0.14376200  0.56904300  1
  C  452  1  0.16034900  0.12963700  0.56032700  1
  C  454  1  0.16624700  0.16040700  0.52378900  1
  C  455  1  0.12965500  0.16625100  0.55450700  1
  C  457  1  0.17492000  0.13781300  0.53787500  1
  C  458  1  0.19527400  0.12188100  0.52832600  1
  C  459  1  0.21915700  0.13080400  0.52061500  1
  C  460  1  0.23877800  0.11467900  0.50993600  1
  C  461  1  0.24684800  0.09094000  0.52234100  1
  C  462  1  0.25131700  0.12200100  0.48604500  1
  C  463  1  0.27090300  0.10581100  0.47461600  1
  C  464  1  0.27885000  0.08181100  0.48673200  1
  C  465  1  0.26637200  0.07475300  0.51082400  1
  C  472  1  0.29778800  0.06440000  0.47489200  1
  C  475  1  0.33425900  0.05621900  0.44423100  1
  C  477  1  0.34739100  0.03429000  0.45571000  1
  C  478  1  0.36379600  0.01777200  0.44039000  1
  C  483  1  0.14377700  0.17496400  0.53195000  1
  C  484  1  0.13426300  0.19535500  0.51604000  1
  C  485  1  0.12639700  0.21917100  0.52500400  1
  C  486  1  0.11574800  0.23880700  0.50888200  1
  C  487  1  0.09169800  0.25114400  0.51603100  1
  C  488  1  0.12834300  0.24709200  0.48531800  1
  C  489  1  0.11686500  0.26663600  0.46912900  1
  C  490  1  0.09262200  0.27891700  0.47601400  1
  C  491  1  0.08030400  0.27074300  0.49983400  1
  C  499  1  0.08084000  0.29788500  0.45860400  1
  C  502  1  0.05007100  0.33426400  0.45039400  1
  C  503  1  0.02306100  0.33908600  0.45594200  1
  C  504  1  0.00767400  0.35526600  0.43932900  1
  C  505  1  0.06156900  0.34744800  0.42850600  1
  C  513  1  0.01201300  0.57873200  0.42089700  1
  C  514  1  0.00919600  0.55102300  0.42219900  1
  C  515  1  0.99731300  0.64947800  0.43827900  1
  C  516  1  0.94512100  0.66344300  0.42555500  1
  C  518  1  0.98387100  0.66865400  0.45330900  1
  C  520  1  0.95755300  0.67617300  0.44723900  1
  C  523  1  0.85233400  0.82416600  0.53766200  1
  C  524  1  0.86414700  0.83242000  0.56165900  1
  C  525  1  0.85957300  0.80053300  0.52561200  1
  C  526  1  0.88442700  0.79506900  0.51775400  1
  C  527  1  0.89235200  0.77157100  0.50566700  1
  C  528  1  0.91683400  0.76001000  0.51273400  1
  C  529  1  0.87742400  0.75934100  0.48537700  1
  C  530  1  0.88658000  0.73621700  0.47281600  1
  C  531  1  0.91123000  0.72480200  0.47963000  1
  C  532  1  0.92606900  0.73703200  0.49999300  1
  C  540  1  0.92046100  0.70173500  0.46615200  1
  C  545  1  0.65463400  0.97056100  0.45460700  1
  C  546  1  0.63836100  0.98756200  0.43970000  1
  C  548  1  0.66741400  0.94869300  0.44263500  1
  C  552  1  0.82412700  0.86391400  0.53841600  1
  C  553  1  0.83226800  0.84001400  0.52632100  1
  C  554  1  0.80516500  0.88023500  0.52695800  1
  C  555  1  0.78095600  0.87209500  0.51941300  1
  C  556  1  0.76206200  0.88868700  0.50821000  1
  C  557  1  0.75474700  0.91286700  0.52021200  1
  C  558  1  0.74918100  0.88124600  0.48454600  1
  C  559  1  0.72999000  0.89776700  0.47291700  1
  C  560  1  0.72278000  0.92220100  0.48463000  1
  C  561  1  0.73561200  0.92936500  0.50850700  1
  C  569  1  0.70417200  0.93988700  0.47268200  1
  C  571  1  0.83660800  0.87190500  0.56214600  1
  C  572  1  0.85671200  0.85641700  0.57396600  1
  C  573  1  0.04521300  0.00772500  0.74946400  1
  C  574  1  0.06182300  0.02311300  0.73328000  1
  C  575  1  0.05620300  0.05009000  0.72836800  1
  C  579  1  0.08178300  0.09257700  0.67294600  1
  C  580  1  0.07479400  0.11672700  0.66054400  1
  C  581  1  0.09098300  0.12822500  0.64101300  1
  C  582  1  0.11465800  0.11574600  0.63286600  1
  C  583  1  0.12191600  0.09179900  0.64533500  1
  C  584  1  0.10571600  0.08038100  0.66491800  1
  C  585  1  0.13078800  0.12640500  0.61323900  1
  C  586  1  0.12185600  0.13422200  0.58939500  1
  C  593  1  0.06436800  0.08075500  0.69189000  1
  C  595  1  0.03426000  0.06156800  0.74147800  1
  C  597  1  0.97286900  0.94653600  0.73287400  1
  C  598  1  0.95131100  0.95965200  0.72064600  1
  C  599  1  0.94605300  0.98605500  0.72843500  1
  C  603  1  0.91718100  0.91421700  0.67243200  1
  C  604  1  0.92261700  0.88882100  0.66192300  1
  C  605  1  0.91004500  0.87978000  0.63876500  1
  C  606  1  0.89117100  0.89567400  0.62555800  1
  C  607  1  0.88544000  0.92091100  0.63615800  1
  C  608  1  0.89814900  0.92997000  0.65922100  1
  C  609  1  0.87935500  0.88783000  0.60194800  1
  C  610  1  0.86852300  0.86387300  0.59769500  1
  C  617  1  0.93075200  0.92326500  0.69552400  1
  C  620  1  0.96171100  0.99891800  0.74751200  1
  C  621  1  0.02288600  0.01909200  0.76174300  1
  C  622  1  0.01775200  0.04625800  0.75790100  1
  C  626  1  0.97795700  0.01653900  0.81551700  1
  C  627  1  0.97544900  0.01630500  0.84327200  1
  C  629  1  0.99924800  0.00344200  0.80310100  1
  C  633  1  0.02107000  0.98759000  0.81904600  1
  C  636  1  0.01847400  0.98731500  0.84680000  1
  C  639  1  0.98852800  0.95934200  0.75203600  1
  C  640  1  0.98321000  0.98570900  0.75942100  1
  C  641  1  0.99390300  0.99989100  0.85942900  1
  C  646  1  0.02673400  0.01195300  0.97287000  1
  C  647  1  0.02804100  0.00915000  0.94516200  1
  C  650  1  0.98291100  0.01828800  0.02846330  1
  C  651  1  0.96071400  0.00639900  0.04051130  1
  C  652  1  0.94358600  0.02141400  0.05651330  1
  C  653  1  0.94862000  0.04848500  0.06153630  1
  C  654  1  0.97042800  0.06046000  0.04865430  1
  C  655  1  0.98741800  0.04553700  0.03238230  1
  C  660  1  0.02250600  0.98474900  0.03121930  1
  C  661  1  0.00562000  0.99782200  0.98732100  1
  C  662  1  0.00824000  0.99225500  0.93131200  1
  C  663  1  0.01648000  0.95840200  0.03814330  1
  C  664  1  0.03145700  0.94506600  0.05750230  1
  C  665  1  0.05309300  0.95753800  0.07027630  1
  C  666  1  0.05914100  0.98386500  0.06277530  1
  C  667  1  0.04411800  0.99729600  0.04358530  1
  C  672  1  0.98268000  0.98413200  0.97347700  1
  C  675  1  0.98400900  0.98130700  0.94578500  1
  C  678  1  0.82419200  0.14352800  0.24647000  1
  C  682  1  0.92215000  0.09053700  0.11685500  1
  C  683  1  0.92924600  0.11448700  0.12958500  1
  C  684  1  0.91275500  0.12618000  0.14873300  1
  C  685  1  0.88864700  0.11409700  0.15615500  1
  C  686  1  0.88126400  0.09036600  0.14336400  1
  C  687  1  0.89778900  0.07874000  0.12417300  1
  C  688  1  0.87206200  0.12528900  0.17506000  1
  C  689  1  0.88022900  0.13288500  0.19924200  1
  C  690  1  0.86391400  0.14432600  0.21822000  1
  C  691  1  0.84003700  0.13220200  0.22639000  1
  C  698  1  0.93982300  0.07861200  0.09821930  1
  C  699  1  0.87190200  0.16805100  0.23071500  1
  C  701  1  0.13219700  0.83228900  0.23411600  1
  C  706  1  0.08554900  0.91121200  0.11885900  1
  C  707  1  0.07871700  0.88657600  0.13029500  1
  C  708  1  0.09128300  0.87742600  0.15342100  1
  C  709  1  0.11160400  0.89233700  0.16562100  1
  C  710  1  0.11868000  0.91680800  0.15404300  1
  C  711  1  0.10592900  0.92604300  0.13107100  1
  C  712  1  0.12368000  0.88442700  0.18912900  1
  C  713  1  0.13151400  0.85957200  0.19461900  1
  C  714  1  0.14355100  0.85234500  0.21826200  1
  C  721  1  0.07207700  0.92043800  0.09579030  1
  C  722  1  0.16755700  0.86414200  0.22651300  1
  C  726  1  0.33911800  0.06180700  0.41431100  1
  C  728  1  0.35529500  0.04519800  0.39891800  1
  C  731  1  0.36759000  0.02288100  0.41028800  1
  C  732  1  0.45264700  0.01857200  0.38146800  1
  C  733  1  0.42489300  0.02115300  0.38177500  1
  C  737  1  0.63710600  0.02255300  0.37891600  1
  C  738  1  0.59318700  0.00573000  0.39198800  1
  C  739  1  0.57872900  0.02680700  0.40325300  1
  C  740  1  0.55102100  0.02811400  0.40045500  1
  C  741  1  0.53717600  0.00837100  0.38639600  1
  C  742  1  0.64948500  0.04417300  0.39144000  1
  C  747  1  0.64410000  0.01645500  0.35260500  1
  C  748  1  0.66349500  0.03138800  0.33927300  1
  C  751  1  0.66869400  0.05916900  0.37800800  1
  C  753  1  0.67623400  0.05306600  0.35170700  1
  C  756  1  0.80056700  0.13146500  0.25371000  1
  C  757  1  0.79510300  0.12361300  0.27856800  1
  C  758  1  0.77160600  0.11152500  0.28648900  1
  C  759  1  0.75940800  0.09119700  0.27158600  1
  C  760  1  0.76003300  0.11860300  0.31096000  1
  C  761  1  0.73705800  0.10585500  0.32019900  1
  C  762  1  0.72484800  0.08546800  0.30537500  1
  C  763  1  0.73629300  0.07862200  0.28074800  1
  C  769  1  0.70177400  0.07200300  0.31460200  1
  C  771  1  0.83244000  0.16752600  0.25828400  1
  C  773  1  0.85642200  0.17985300  0.25083400  1
  C  775  1  0.95967900  0.32648600  0.34548500  1
  C  779  1  0.86387200  0.20358400  0.26264800  1
  C  780  1  0.88783800  0.20785300  0.27345600  1
  C  781  1  0.89567200  0.23146400  0.28527400  1
  C  782  1  0.92089800  0.24208700  0.27952900  1
  C  783  1  0.87979000  0.24463900  0.30417800  1
  C  784  1  0.88882300  0.26779500  0.31676200  1
  C  785  1  0.91421100  0.27831800  0.31132000  1
  C  786  1  0.92995500  0.26514000  0.29225700  1
  C  792  1  0.92326400  0.30139500  0.32491500  1
  C  795  1  0.98608000  0.33427200  0.34021700  1
  C  796  1  0.04626000  0.36386800  0.40906500  1
  C  798  1  0.01906400  0.36760100  0.41412100  1
  C  801  1  0.01650300  0.42139100  0.37209700  1
  C  802  1  0.01625500  0.44914500  0.36958400  1
  C  804  1  0.00343100  0.40897100  0.39340100  1
  C  806  1  0.98759800  0.42491400  0.41231100  1
  C  807  1  0.94654700  0.33875900  0.36700700  1
  C  808  1  0.95932900  0.35797400  0.38262300  1
  C  810  1  0.98731700  0.45266800  0.40972000  1
  C  811  1  0.98572200  0.36529200  0.37733700  1
  C  812  1  0.99986200  0.46530200  0.38805600  1
  C  813  1  0.99894200  0.35336300  0.35585900  1
  C  816  1  0.01833100  0.63433000  0.37708400  1
  C  817  1  0.00645000  0.64629300  0.35483800  1
  C  818  1  0.06046300  0.65464700  0.36465300  1
  C  819  1  0.04555400  0.63837400  0.38165200  1
  C  822  1  0.02144000  0.66234100  0.33773000  1
  C  823  1  0.04849100  0.66743900  0.34279100  1
  C  825  1  0.98412800  0.57936700  0.37688200  1
  C  828  1  0.98129300  0.55167400  0.37820800  1
  C  830  1  0.98478100  0.63709600  0.41374200  1
  C  831  1  0.99786100  0.59319500  0.39687900  1
  C  832  1  0.99227900  0.53718500  0.39948000  1
  C  834  1  0.95845500  0.64406500  0.40767400  1
  C  840  1  0.14428900  0.82414400  0.25801500  1
  C  841  1  0.13280900  0.80520000  0.27433800  1
  C  842  1  0.12532200  0.78097000  0.26621500  1
  C  843  1  0.11410500  0.76207900  0.28280300  1
  C  844  1  0.09051000  0.74911100  0.27529200  1
  C  845  1  0.12603400  0.75483800  0.30704300  1
  C  846  1  0.11431100  0.73571200  0.32353600  1
  C  847  1  0.09048900  0.72281200  0.31631300  1
  C  848  1  0.07886400  0.72992600  0.29181000  1
  C  854  1  0.07852200  0.70420400  0.33399100  1
  C  857  1  0.16802000  0.83662200  0.26600900  1
  C  858  1  0.17985700  0.85671100  0.25051600  1
  C  859  1  0.32653200  0.95129600  0.35376800  1
  C  863  1  0.20359900  0.86849800  0.25796600  1
  C  864  1  0.20786900  0.87932900  0.28192100  1
  C  865  1  0.23149200  0.89112600  0.28975700  1
  C  866  1  0.24470500  0.90999300  0.27386300  1
  C  867  1  0.24208000  0.88540500  0.31500200  1
  C  868  1  0.26514400  0.89811100  0.32406200  1
  C  869  1  0.27835900  0.91713900  0.30830900  1
  C  870  1  0.26786200  0.92256900  0.28290800  1
  C  876  1  0.30144600  0.93071600  0.31736800  1
  C  879  1  0.33428700  0.94605200  0.38018400  1
  C  880  1  0.33877800  0.97285000  0.34066200  1
  C  881  1  0.35794800  0.98849600  0.35346900  1
  C  882  1  0.36528800  0.98318800  0.37985200  1
  C  883  1  0.40896500  0.99926800  0.39462900  1
  C  884  1  0.42140300  0.97794000  0.40764700  1
  C  885  1  0.44915900  0.97545100  0.40738900  1
  C  886  1  0.46529900  0.99396400  0.39396100  1
  C  887  1  0.35337200  0.96169400  0.39305500  1
  C  891  1  0.66227900  0.94361000  0.41267100  1
  C  892  1  0.64623200  0.96072300  0.39768400  1
  C  896  1  0.63429700  0.98298900  0.40955800  1
  C  897  1  0.55166300  0.98419700  0.37535500  1
  C  898  1  0.57935200  0.98284400  0.37821000  1
  N  6  1  0.31753200  0.07245500  0.04283700  1
  N  32  1  0.06411100  0.31754200  0.05120400  1
  N  71  1  0.94654300  0.69723200  0.04525600  1
  N  101  1  0.68411400  0.93212800  0.04086600  1
  N  127  1  0.07242800  0.06411500  0.29617300  1
  N  151  1  0.93737400  0.94913200  0.28424600  1
  N  181  1  0.00461400  0.99970700  0.35975100  1
  N  187  1  0.01160800  0.98768300  0.48841000  1
  N  192  1  0.98926000  0.99951900  0.47186000  1
  N  207  1  0.93205200  0.06218900  0.66276400  1
  N  221  1  0.00497300  0.99971300  0.59982900  1
  N  254  1  0.06658100  0.94651600  0.67587400  1
  N  285  1  0.38104900  0.00460600  0.97840300  1
  N  296  1  0.50971500  0.01175300  0.96638500  1
  N  299  1  0.62113100  0.00507800  0.97848000  1
  N  304  1  0.69728000  0.06653800  0.92524700  1
  N  327  1  0.94913500  0.30553900  0.91609900  1
  N  355  1  0.99970300  0.38105700  0.98039500  1
  N  364  1  0.99949000  0.49317200  0.96798000  1
  N  379  1  0.99978200  0.62114300  0.98080700  1
  N  383  1  0.98769100  0.50972400  0.98742000  1
  N  389  1  0.06217000  0.68412800  0.91078700  1
  N  411  1  0.30557700  0.93735900  0.92779500  1
  N  439  1  0.49317200  0.98934500  0.97813000  1
  N  456  1  0.31753200  0.07245500  0.45827600  1
  N  482  1  0.06411100  0.31754200  0.46664300  1
  N  521  1  0.94654300  0.69723200  0.46069500  1
  N  551  1  0.68411400  0.93212800  0.45630500  1
  N  577  1  0.07242800  0.06411500  0.71161200  1
  N  601  1  0.93737400  0.94913200  0.69968500  1
  N  631  1  0.00461400  0.99970700  0.77519000  1
  N  637  1  0.01160800  0.98768300  0.90384900  1
  N  642  1  0.98926000  0.99951900  0.88729900  1
  N  657  1  0.93205200  0.06218900  0.07820330  1
  N  671  1  0.00497300  0.99971300  0.01526830  1
  N  704  1  0.06658100  0.94651600  0.09131330  1
  N  735  1  0.38104900  0.00460600  0.39384200  1
  N  746  1  0.50971500  0.01175300  0.38182400  1
  N  749  1  0.62113100  0.00507800  0.39391900  1
  N  754  1  0.69728000  0.06653800  0.34068600  1
  N  777  1  0.94913500  0.30553900  0.33153800  1
  N  805  1  0.99970300  0.38105700  0.39583400  1
  N  814  1  0.99949000  0.49317200  0.38341900  1
  N  829  1  0.99978200  0.62114300  0.39624600  1
  N  833  1  0.98769100  0.50972400  0.40285900  1
  N  839  1  0.06217000  0.68412800  0.32622600  1
  N  861  1  0.30557700  0.93735900  0.34323400  1
  N  889  1  0.49317200  0.98934500  0.39356900  1
  O  23  1  0.29399800  0.03813700  0.06331400  1
  O  50  1  0.08485100  0.29416800  0.01691500  1
  O  91  1  0.90207800  0.68326300  0.04449600  1
  O  120  1  0.70841000  0.96610200  0.06098100  1
  O  144  1  0.03811000  0.08465300  0.27266700  1
  O  168  1  0.93607800  0.90497600  0.29893200  1
  O  219  1  0.06579500  0.90204600  0.66191200  1
  O  231  1  0.96603800  0.08246100  0.68692500  1
  O  320  1  0.68334200  0.06570200  0.88077100  1
  O  343  1  0.90497800  0.32024000  0.91481300  1
  O  405  1  0.08221700  0.70845500  0.94477200  1
  O  427  1  0.32030800  0.93603100  0.88365100  1
  O  473  1  0.29399800  0.03813700  0.47875300  1
  O  500  1  0.08485100  0.29416800  0.43235400  1
  O  541  1  0.90207800  0.68326300  0.45993500  1
  O  570  1  0.70841000  0.96610200  0.47642000  1
  O  594  1  0.03811000  0.08465300  0.68810600  1
  O  618  1  0.93607800  0.90497600  0.71437100  1
  O  669  1  0.06579500  0.90204600  0.07735130  1
  O  681  1  0.96603800  0.08246100  0.10236400  1
  O  770  1  0.68334200  0.06570200  0.29621000  1
  O  793  1  0.90497800  0.32024000  0.33025200  1
  O  855  1  0.08221700  0.70845500  0.36021100  1
  O  877  1  0.32030800  0.93603100  0.29909000  1
