# generated using pymatgen
data_H25C32N6O
_symmetry_space_group_name_H-M   'P 1'
_cell_length_a   53.87190000
_cell_length_b   61.78070000
_cell_length_c   61.77780000
_cell_angle_alpha   89.97280000
_cell_angle_beta   90.06670000
_cell_angle_gamma   90.03340000
_symmetry_Int_Tables_number   1
_chemical_formula_structural   H25C32N6O
_chemical_formula_sum   'H1600 C2048 N384 O64'
_cell_volume   205611.37581436
_cell_formula_units_Z   64
loop_
 _symmetry_equiv_pos_site_id
 _symmetry_equiv_pos_as_xyz
  1  'x, y, z'
loop_
 _atom_site_type_symbol
 _atom_site_label
 _atom_site_symmetry_multiplicity
 _atom_site_fract_x
 _atom_site_fract_y
 _atom_site_fract_z
 _atom_site_occupancy
  H  49  1  0.88436900  0.04319200  0.89946200  1
  H  50  1  0.91220800  0.02373200  0.92228200  1
  H  51  1  0.93802200  0.09240900  0.89154000  1
  H  52  1  0.96590800  0.07273800  0.91458900  1
  H  53  1  0.97188900  0.02100900  0.89439400  1
  H  54  1  0.00433400  0.99126900  0.89375900  1
  H  55  1  0.98970500  0.00606900  0.95684900  1
  H  56  1  0.99079000  0.00647100  0.99505200  1
  H  57  1  0.92341800  0.06514400  0.95648700  1
  H  58  1  0.92424600  0.06521400  0.99746500  1
  H  59  1  0.91942900  0.02102000  0.03828300  1
  H  60  1  0.89269400  0.04004600  0.06240200  1
  H  61  1  0.96456700  0.07642100  0.03242800  1
  H  62  1  0.93767900  0.09571300  0.05657300  1
  H  63  1  0.97510100  0.02057200  0.05812600  1
  H  64  1  0.00702600  0.99037300  0.05754900  1
  H  65  1  0.05166000  0.94364300  0.95456700  1
  H  66  1  0.05248200  0.94376900  0.99554500  1
  H  67  1  0.06769400  0.98041500  0.03351800  1
  H  68  1  0.08773600  0.95700700  0.05915900  1
  H  69  1  0.00426600  0.94045300  0.03455900  1
  H  70  1  0.02409600  0.91707700  0.06005700  1
  H  71  1  0.99990200  0.94525900  0.91076700  1
  H  72  1  0.01875600  0.92216400  0.88459600  1
  H  73  1  0.08775300  0.95280900  0.89530800  1
  H  74  1  0.06860200  0.97614100  0.92137800  1
  H  79  1  0.05741400  0.91204400  0.08688400  1
  H  80  1  0.87795800  0.07485200  0.07566400  1
  H  81  1  0.87298000  0.07662200  0.88199700  1
  H  82  1  0.05406700  0.91335400  0.86170300  1
  H  131  1  0.38394500  0.97247900  0.55263800  1
  H  132  1  0.41176100  0.99197000  0.52986600  1
  H  133  1  0.43772800  0.92345900  0.56084300  1
  H  134  1  0.46558900  0.94316800  0.53783400  1
  H  135  1  0.47158800  0.99480100  0.55794200  1
  H  136  1  0.50403700  0.02457100  0.55862000  1
  H  137  1  0.48926900  0.00986400  0.49550800  1
  H  138  1  0.49054200  0.00945400  0.45731300  1
  H  139  1  0.42302100  0.95072100  0.49570300  1
  H  140  1  0.42386900  0.95073400  0.45472500  1
  H  141  1  0.41905800  0.99496300  0.41406800  1
  H  142  1  0.39228700  0.97591000  0.38991300  1
  H  143  1  0.46431500  0.93965000  0.41983300  1
  H  144  1  0.43739800  0.92033500  0.39566200  1
  H  145  1  0.47478500  0.99539100  0.39421600  1
  H  146  1  0.50679400  0.02555600  0.39483800  1
  H  147  1  0.55144300  0.07220800  0.49796100  1
  H  148  1  0.55236700  0.07210000  0.45698000  1
  H  149  1  0.56744500  0.03542800  0.41888200  1
  H  150  1  0.58753000  0.05881300  0.39326800  1
  H  151  1  0.50421400  0.07556100  0.41789900  1
  H  152  1  0.52408500  0.09891300  0.39242700  1
  H  153  1  0.49956200  0.07069600  0.54144600  1
  H  154  1  0.51843100  0.09377300  0.56768900  1
  H  155  1  0.58731100  0.06288900  0.55737800  1
  H  156  1  0.56814700  0.03958400  0.53123600  1
  H  161  1  0.55734000  0.10390600  0.36560000  1
  H  162  1  0.37764500  0.94114400  0.37647800  1
  H  163  1  0.37262400  0.93906600  0.57016800  1
  H  164  1  0.55372000  0.10242000  0.59079200  1
  H  213  1  0.63960400  0.17899100  0.67623900  1
  H  214  1  0.65956800  0.20559500  0.69851800  1
  H  215  1  0.70796400  0.16607900  0.64556600  1
  H  216  1  0.72763900  0.19299900  0.66742100  1
  H  217  1  0.72354600  0.17664600  0.71281400  1
  H  218  1  0.75584100  0.17652100  0.74256300  1
  H  219  1  0.73923500  0.23937700  0.72834200  1
  H  220  1  0.74035200  0.27751600  0.72760100  1
  H  221  1  0.67544800  0.23830600  0.66698800  1
  H  222  1  0.67498000  0.27922100  0.66766800  1
  H  223  1  0.66708000  0.31889600  0.71356700  1
  H  224  1  0.63976100  0.34270400  0.69473500  1
  H  225  1  0.71311200  0.31540700  0.65857800  1
  H  226  1  0.68560400  0.33921100  0.63944900  1
  H  227  1  0.72220200  0.34032900  0.71456300  1
  H  228  1  0.75443400  0.34018700  0.74456300  1
  H  229  1  0.80207500  0.23776300  0.79036500  1
  H  230  1  0.80232300  0.27875800  0.79021300  1
  H  231  1  0.81562300  0.31815700  0.75319700  1
  H  232  1  0.83515900  0.34411200  0.77658500  1
  H  233  1  0.75359800  0.31607500  0.79466400  1
  H  234  1  0.77292400  0.34184900  0.81802300  1
  H  235  1  0.75085300  0.19223100  0.78822700  1
  H  236  1  0.77032000  0.16503800  0.80988400  1
  H  237  1  0.83900400  0.17863700  0.78002100  1
  H  238  1  0.81928800  0.20553300  0.75801400  1
  H  243  1  0.80501900  0.36945300  0.82317700  1
  H  244  1  0.62528500  0.35707100  0.66054400  1
  H  245  1  0.67136400  0.13993300  0.64407800  1
  H  246  1  0.80665400  0.13940600  0.81241300  1
  H  295  1  0.13971300  0.83652800  0.77635500  1
  H  296  1  0.15959900  0.80996200  0.75404000  1
  H  297  1  0.20822800  0.84963400  0.80682900  1
  H  298  1  0.22782400  0.82276100  0.78494000  1
  H  299  1  0.22357500  0.83900800  0.73956400  1
  H  300  1  0.25578700  0.83914900  0.70980700  1
  H  301  1  0.23927900  0.77628600  0.72409400  1
  H  302  1  0.24037600  0.73813400  0.72475300  1
  H  303  1  0.17565000  0.77727600  0.78543300  1
  H  304  1  0.17516400  0.73636400  0.78470100  1
  H  305  1  0.16707600  0.69672500  0.73880200  1
  H  306  1  0.13977300  0.67294200  0.75765500  1
  H  307  1  0.21327100  0.70024100  0.79377800  1
  H  308  1  0.18577600  0.67645500  0.81292800  1
  H  309  1  0.22224100  0.67531400  0.73778700  1
  H  310  1  0.25443700  0.67547300  0.70782500  1
  H  311  1  0.30188700  0.77796000  0.66200500  1
  H  312  1  0.30217500  0.73697100  0.66214800  1
  H  313  1  0.31574800  0.69765300  0.69912400  1
  H  314  1  0.33528900  0.67176700  0.67572100  1
  H  315  1  0.25354100  0.69945900  0.65774600  1
  H  316  1  0.27286800  0.67375500  0.63437600  1
  H  317  1  0.25069200  0.82341100  0.66415700  1
  H  318  1  0.27008400  0.85059500  0.64245700  1
  H  319  1  0.33886900  0.83710400  0.67229500  1
  H  320  1  0.31922600  0.81021500  0.69434700  1
  H  325  1  0.30504800  0.64631500  0.62911700  1
  H  326  1  0.12533800  0.65865500  0.79187400  1
  H  327  1  0.17166900  0.87565100  0.80852700  1
  H  328  1  0.30638300  0.87624600  0.63982700  1
  H  377  1  0.34343600  0.83753000  0.27631200  1
  H  378  1  0.32342500  0.81066700  0.25442900  1
  H  379  1  0.27514200  0.85097800  0.30685900  1
  H  380  1  0.25540500  0.82377400  0.28539100  1
  H  381  1  0.25968900  0.83981200  0.23999500  1
  H  382  1  0.22748100  0.83995800  0.21018100  1
  H  383  1  0.24371800  0.77708700  0.22466800  1
  H  384  1  0.24284300  0.73896600  0.22517700  1
  H  385  1  0.30736900  0.77811300  0.28612300  1
  H  386  1  0.30768800  0.73717500  0.28553400  1
  H  387  1  0.31557000  0.69714200  0.24003200  1
  H  388  1  0.34225500  0.67295200  0.25908800  1
  H  389  1  0.26892700  0.70115300  0.29458900  1
  H  390  1  0.29578600  0.67695100  0.31393400  1
  H  391  1  0.26004900  0.67610100  0.23891000  1
  H  392  1  0.22793400  0.67628200  0.20882000  1
  H  393  1  0.18157200  0.77874700  0.16214100  1
  H  394  1  0.18122500  0.73777700  0.16232500  1
  H  395  1  0.16609600  0.70044400  0.19882500  1
  H  396  1  0.14598200  0.67485000  0.17543100  1
  H  397  1  0.22990500  0.69853400  0.15946000  1
  H  398  1  0.21000800  0.67306500  0.13610100  1
  H  399  1  0.23247400  0.82428800  0.16471900  1
  H  400  1  0.21303500  0.85131200  0.14282400  1
  H  401  1  0.14414600  0.83750700  0.17224100  1
  H  402  1  0.16384300  0.81079300  0.19452400  1
  H  407  1  0.17635000  0.64668800  0.13076300  1
  H  408  1  0.35620700  0.65872000  0.29365900  1
  H  409  1  0.31177900  0.87711200  0.30793000  1
  H  410  1  0.17634300  0.87698100  0.14049700  1
  H  459  1  0.84371000  0.17832900  0.17610800  1
  H  460  1  0.82371600  0.20509500  0.19805700  1
  H  461  1  0.77531800  0.16468600  0.14566700  1
  H  462  1  0.75559800  0.19179000  0.16719800  1
  H  463  1  0.75982800  0.17584500  0.21253900  1
  H  464  1  0.72761800  0.17569900  0.24228900  1
  H  465  1  0.74398500  0.23856500  0.22789000  1
  H  466  1  0.74304700  0.27670800  0.22737200  1
  H  467  1  0.80754700  0.23759900  0.16650100  1
  H  468  1  0.80784400  0.27853100  0.16709700  1
  H  469  1  0.81582100  0.31858800  0.21254100  1
  H  470  1  0.84248800  0.34275000  0.19343800  1
  H  471  1  0.76902000  0.31449300  0.15799700  1
  H  472  1  0.79585400  0.33866500  0.13861100  1
  H  473  1  0.76026400  0.33957100  0.21363500  1
  H  474  1  0.72815800  0.33938800  0.24367300  1
  H  475  1  0.68175200  0.23687800  0.29024700  1
  H  476  1  0.68139700  0.27784700  0.29007300  1
  H  477  1  0.66628900  0.31522600  0.25363700  1
  H  478  1  0.64618400  0.34077100  0.27703000  1
  H  479  1  0.73010600  0.31714900  0.29310600  1
  H  480  1  0.71021900  0.34256500  0.31646300  1
  H  481  1  0.73261900  0.19132600  0.28778500  1
  H  482  1  0.71310600  0.16435300  0.30967400  1
  H  483  1  0.64425200  0.17821300  0.28012400  1
  H  484  1  0.66402100  0.20487800  0.25784700  1
  H  489  1  0.67658200  0.36890400  0.32181500  1
  H  490  1  0.85637100  0.35691400  0.15883200  1
  H  491  1  0.81195900  0.13871800  0.14435200  1
  H  492  1  0.67633900  0.13873600  0.31197300  1
  H  541  1  0.38961200  0.55736400  0.39637000  1
  H  542  1  0.40947600  0.53527000  0.42314300  1
  H  543  1  0.45807600  0.58783200  0.38317000  1
  H  544  1  0.47767500  0.56614600  0.41029000  1
  H  545  1  0.47341800  0.52080900  0.39419700  1
  H  546  1  0.50580800  0.49119300  0.39418000  1
  H  547  1  0.48920400  0.50557300  0.45698500  1
  H  548  1  0.48909600  0.50558900  0.49514600  1
  H  549  1  0.42590200  0.56722000  0.45562600  1
  H  550  1  0.42562300  0.56690100  0.49659400  1
  H  551  1  0.41724800  0.52580200  0.54028200  1
  H  552  1  0.39725100  0.54749900  0.56738900  1
  H  553  1  0.46999400  0.57523600  0.53034400  1
  H  554  1  0.45000900  0.59696200  0.55731000  1
  H  555  1  0.47361700  0.52093900  0.55795500  1
  H  556  1  0.50550400  0.49069100  0.55791200  1
  H  557  1  0.55188200  0.44355300  0.45569600  1
  H  558  1  0.55193600  0.44377000  0.49666200  1
  H  559  1  0.56454200  0.48169000  0.53690000  1
  H  560  1  0.58558700  0.45712800  0.56066100  1
  H  561  1  0.50453700  0.43817600  0.53215500  1
  H  562  1  0.52536000  0.41363900  0.55578600  1
  H  563  1  0.50096000  0.44578700  0.40969600  1
  H  564  1  0.52056900  0.42405400  0.38270500  1
  H  565  1  0.58934900  0.45353300  0.39693900  1
  H  566  1  0.56947600  0.47566100  0.42363500  1
  H  571  1  0.56359200  0.40203600  0.57277500  1
  H  572  1  0.42205600  0.58758900  0.59505600  1
  H  573  1  0.42141000  0.58912800  0.35698600  1
  H  574  1  0.55729900  0.42177400  0.35723500  1
  H  623  1  0.88961000  0.45804300  0.05584300  1
  H  624  1  0.90940700  0.48014700  0.02906300  1
  H  625  1  0.95814800  0.42778500  0.06919200  1
  H  626  1  0.97768000  0.44948000  0.04207200  1
  H  627  1  0.97333500  0.49479600  0.05812900  1
  H  628  1  0.00569000  0.52447300  0.05820000  1
  H  629  1  0.98913900  0.51004700  0.99536500  1
  H  630  1  0.98912900  0.51010800  0.95721500  1
  H  631  1  0.92584400  0.44835400  0.99654500  1
  H  632  1  0.92560700  0.44874900  0.95557500  1
  H  633  1  0.91725400  0.48997600  0.91205400  1
  H  634  1  0.89721700  0.46835700  0.88485100  1
  H  635  1  0.97001300  0.44054800  0.92187300  1
  H  636  1  0.94998100  0.41889300  0.89480900  1
  H  637  1  0.97359900  0.49480600  0.89437800  1
  H  638  1  0.00550400  0.52506800  0.89447500  1
  H  639  1  0.05177500  0.57218400  0.99684700  1
  H  640  1  0.05192500  0.57200400  0.95587800  1
  H  641  1  0.06451100  0.53402500  0.91547900  1
  H  642  1  0.08555900  0.55857400  0.89172900  1
  H  643  1  0.00470000  0.57764400  0.92033600  1
  H  644  1  0.02552600  0.60217200  0.89672000  1
  H  645  1  0.00079800  0.56992800  0.04254500  1
  H  646  1  0.02037800  0.59165000  0.06962700  1
  H  647  1  0.08911500  0.56203800  0.05574500  1
  H  648  1  0.06927200  0.53992600  0.02896600  1
  H  653  1  0.06367500  0.61370800  0.87961900  1
  H  654  1  0.92181900  0.42851000  0.85702400  1
  H  655  1  0.92156200  0.42636200  0.09530200  1
  H  656  1  0.05709300  0.59377300  0.09530500  1
  H  665  1  0.93231800  0.12906500  0.14211200  1
  H  666  1  0.93933400  0.15563500  0.15056700  1
  H  667  1  0.93414000  0.15024900  0.12288000  1
  H  669  1  0.89583500  0.12743300  0.16898700  1
  H  670  1  0.87403600  0.14865300  0.17026100  1
  H  671  1  0.90503500  0.15355700  0.17754000  1
  H  673  1  0.89936300  0.17965300  0.12136300  1
  H  674  1  0.90869600  0.18509300  0.14826900  1
  H  675  1  0.87724700  0.18095500  0.14239900  1
  H  677  1  0.85075900  0.10314200  0.08592300  1
  H  688  1  0.43201800  0.88687400  0.31037300  1
  H  689  1  0.43905200  0.86031200  0.30194000  1
  H  690  1  0.43389300  0.86570600  0.32962000  1
  H  692  1  0.39551500  0.88841900  0.28346200  1
  H  693  1  0.37370600  0.86718400  0.28219700  1
  H  694  1  0.40468900  0.86229500  0.27493500  1
  H  696  1  0.39914400  0.83623600  0.33112400  1
  H  697  1  0.40846100  0.83079700  0.30423400  1
  H  698  1  0.37701200  0.83487600  0.31005700  1
  H  700  1  0.35049000  0.91266300  0.36648100  1
  H  711  1  0.67870000  0.42318400  0.60564700  1
  H  712  1  0.68491700  0.43207800  0.57906700  1
  H  713  1  0.67968000  0.40433400  0.58409800  1
  H  715  1  0.64218400  0.45016100  0.60866500  1
  H  716  1  0.62011900  0.45215200  0.58764800  1
  H  717  1  0.65113100  0.45921500  0.58265200  1
  H  719  1  0.64404600  0.40364900  0.55544100  1
  H  720  1  0.65314300  0.43067800  0.55031500  1
  H  721  1  0.62185600  0.42467300  0.55517900  1
  H  723  1  0.59731400  0.36814600  0.63364800  1
  H  734  1  0.17870400  0.59247700  0.84680600  1
  H  735  1  0.18496500  0.58359500  0.87339300  1
  H  736  1  0.17978600  0.61134200  0.86834300  1
  H  738  1  0.14211200  0.56553200  0.84380200  1
  H  739  1  0.12009400  0.56357500  0.86481800  1
  H  740  1  0.15110100  0.55648700  0.86982200  1
  H  742  1  0.14422000  0.61207800  0.89699300  1
  H  743  1  0.15327000  0.58504700  0.90214100  1
  H  744  1  0.12198400  0.59106900  0.89727000  1
  H  746  1  0.09739800  0.64757100  0.81875200  1
  H  757  1  0.55760000  0.12526200  0.31312800  1
  H  758  1  0.54928200  0.15114300  0.30350100  1
  H  759  1  0.55392100  0.14701300  0.33147800  1
  H  761  1  0.59509400  0.12438300  0.28715300  1
  H  762  1  0.61544600  0.14667800  0.28547600  1
  H  763  1  0.58439500  0.14963500  0.27739000  1
  H  765  1  0.58674900  0.17803000  0.33261700  1
  H  766  1  0.57818800  0.18206900  0.30526800  1
  H  767  1  0.60959400  0.17956100  0.31219900  1
  H  769  1  0.63868900  0.10508700  0.37208000  1
  H  780  1  0.05768100  0.89062800  0.13926000  1
  H  781  1  0.04928400  0.86475800  0.14887200  1
  H  782  1  0.05388700  0.86889000  0.12089900  1
  H  784  1  0.09522100  0.89143100  0.16526000  1
  H  785  1  0.11550000  0.86910500  0.16693900  1
  H  786  1  0.08445400  0.86619300  0.17500600  1
  H  788  1  0.08659500  0.83781400  0.11977200  1
  H  789  1  0.07807200  0.83378100  0.14711300  1
  H  790  1  0.10947500  0.83623500  0.14020000  1
  H  792  1  0.13873500  0.91066500  0.08035400  1
  H  803  1  0.80224000  0.42059700  0.84708600  1
  H  804  1  0.79447700  0.42820500  0.87374600  1
  H  805  1  0.80112600  0.40087800  0.86786100  1
  H  807  1  0.83781900  0.44892000  0.84643900  1
  H  808  1  0.85863700  0.45071100  0.86844200  1
  H  809  1  0.82710300  0.45654000  0.87239500  1
  H  811  1  0.83566300  0.40012400  0.89759800  1
  H  812  1  0.82498400  0.42652600  0.90351100  1
  H  813  1  0.85674300  0.42195800  0.89949800  1
  H  815  1  0.88665100  0.36817400  0.82077900  1
  H  826  1  0.30228400  0.59505600  0.60521600  1
  H  827  1  0.29446200  0.58742200  0.57855800  1
  H  828  1  0.30109300  0.61476600  0.58443400  1
  H  830  1  0.33790400  0.56680500  0.60587600  1
  H  831  1  0.35866100  0.56504200  0.58387200  1
  H  832  1  0.32712300  0.55915300  0.57992400  1
  H  834  1  0.33554900  0.61557600  0.55469900  1
  H  835  1  0.32488800  0.58914800  0.54879600  1
  H  836  1  0.35665000  0.59378200  0.55280600  1
  H  838  1  0.38668500  0.64762000  0.63154500  1
  H  849  1  0.05343100  0.89026700  0.81043800  1
  H  850  1  0.04457100  0.86450200  0.80086600  1
  H  851  1  0.04946800  0.86855700  0.82881900  1
  H  853  1  0.09082500  0.89066300  0.78428300  1
  H  854  1  0.11068700  0.86805600  0.78251100  1
  H  855  1  0.07952200  0.86558600  0.77458300  1
  H  857  1  0.08176500  0.83710900  0.82980800  1
  H  858  1  0.07290300  0.83320200  0.80251400  1
  H  859  1  0.10441100  0.83530400  0.80924100  1
  H  861  1  0.13524500  0.90914300  0.86912800  1
  H  872  1  0.55317400  0.12549100  0.64197500  1
  H  873  1  0.54438500  0.15125200  0.65156400  1
  H  874  1  0.54923700  0.14722100  0.62361100  1
  H  876  1  0.59058200  0.12504100  0.66817000  1
  H  877  1  0.61052900  0.14761000  0.66997100  1
  H  878  1  0.57938700  0.15013100  0.67788300  1
  H  880  1  0.58160900  0.17865000  0.62268900  1
  H  881  1  0.57277800  0.18253500  0.64997200  1
  H  882  1  0.60427500  0.18042000  0.64328900  1
  H  884  1  0.63488100  0.10661600  0.58334700  1
  H  895  1  0.30119700  0.59220200  0.34737200  1
  H  896  1  0.29414100  0.58363600  0.37389700  1
  H  897  1  0.29952000  0.61132400  0.36864400  1
  H  899  1  0.33746800  0.56512800  0.34565100  1
  H  900  1  0.35931400  0.56363000  0.36685300  1
  H  901  1  0.32828300  0.55648300  0.37174400  1
  H  903  1  0.33433600  0.61247600  0.39809400  1
  H  904  1  0.32479700  0.58560200  0.40339700  1
  H  905  1  0.35628900  0.59129000  0.39932500  1
  H  907  1  0.38315800  0.64811900  0.32187100  1
  H  918  1  0.80136000  0.42344200  0.10510600  1
  H  919  1  0.79421100  0.43198000  0.07858000  1
  H  920  1  0.79953700  0.40429400  0.08386000  1
  H  922  1  0.83772200  0.45047700  0.10674200  1
  H  923  1  0.85946500  0.45193000  0.08549900  1
  H  924  1  0.82842900  0.45909800  0.08065600  1
  H  926  1  0.83421300  0.40306400  0.05436700  1
  H  927  1  0.82473700  0.42994500  0.04904000  1
  H  928  1  0.85622800  0.42421400  0.05308100  1
  H  930  1  0.88326800  0.36747300  0.13058100  1
  H  941  1  0.42561600  0.89079600  0.64281400  1
  H  942  1  0.43362400  0.86482300  0.65239300  1
  H  943  1  0.43001400  0.86924700  0.62434700  1
  H  945  1  0.38725100  0.89136600  0.66773400  1
  H  946  1  0.36682600  0.86908500  0.66861300  1
  H  947  1  0.39756200  0.86600200  0.67751700  1
  H  949  1  0.39736200  0.83820600  0.62196200  1
  H  950  1  0.40486700  0.83388900  0.64950100  1
  H  951  1  0.37374800  0.83640600  0.64166900  1
  H  953  1  0.34658200  0.91100000  0.58163100  1
  H  964  1  0.92583000  0.12504000  0.80950000  1
  H  965  1  0.93381800  0.15102400  0.79993000  1
  H  966  1  0.93027500  0.14658700  0.82797600  1
  H  968  1  0.88740700  0.12444400  0.78457200  1
  H  969  1  0.86697900  0.14670300  0.78370000  1
  H  970  1  0.89769100  0.14982300  0.77480000  1
  H  972  1  0.89763100  0.17759700  0.83036600  1
  H  973  1  0.90507300  0.18193000  0.80283100  1
  H  974  1  0.87397100  0.17938100  0.81065300  1
  H  976  1  0.84693300  0.10474200  0.87066000  1
  H  987  1  0.17581000  0.59446600  0.10911100  1
  H  988  1  0.18414100  0.58492400  0.08321900  1
  H  989  1  0.17966700  0.61289800  0.08743100  1
  H  991  1  0.13814700  0.56861200  0.10980600  1
  H  992  1  0.11785200  0.56709500  0.08744600  1
  H  993  1  0.14886300  0.55892200  0.08455200  1
  H  995  1  0.14693400  0.61427600  0.05633200  1
  H  996  1  0.15533200  0.58691900  0.05222100  1
  H  997  1  0.12396500  0.59394300  0.05467100  1
  H  999  1  0.09505200  0.65360500  0.12926100  1
  H  1010  1  0.67604200  0.42126300  0.34347200  1
  H  1011  1  0.68441700  0.43078900  0.36938000  1
  H  1012  1  0.67994400  0.40281600  0.36513600  1
  H  1014  1  0.63834000  0.44706700  0.34278000  1
  H  1015  1  0.61812700  0.44855300  0.36515900  1
  H  1016  1  0.64914900  0.45674700  0.36803400  1
  H  1018  1  0.64727400  0.40136500  0.39621200  1
  H  1019  1  0.65565500  0.42873200  0.40035600  1
  H  1020  1  0.62428800  0.42165700  0.39787600  1
  H  1022  1  0.59526700  0.36206600  0.32319200  1
  H  1073  1  0.66161800  0.04319200  0.89946200  1
  H  1074  1  0.68945700  0.02373200  0.92228200  1
  H  1075  1  0.71527100  0.09240900  0.89154000  1
  H  1076  1  0.74315700  0.07273800  0.91458900  1
  H  1077  1  0.74913800  0.02100900  0.89439400  1
  H  1078  1  0.78158300  0.99126900  0.89375900  1
  H  1079  1  0.76695400  0.00606900  0.95684900  1
  H  1080  1  0.76803900  0.00647100  0.99505200  1
  H  1081  1  0.70066700  0.06514400  0.95648700  1
  H  1082  1  0.70149500  0.06521400  0.99746500  1
  H  1083  1  0.69667800  0.02102000  0.03828300  1
  H  1084  1  0.66994300  0.04004600  0.06240200  1
  H  1085  1  0.74181600  0.07642100  0.03242800  1
  H  1086  1  0.71492800  0.09571300  0.05657300  1
  H  1087  1  0.75235000  0.02057200  0.05812600  1
  H  1088  1  0.78427500  0.99037300  0.05754900  1
  H  1089  1  0.82890900  0.94364300  0.95456700  1
  H  1090  1  0.82973100  0.94376900  0.99554500  1
  H  1091  1  0.84494300  0.98041500  0.03351800  1
  H  1092  1  0.86498500  0.95700700  0.05915900  1
  H  1093  1  0.78151500  0.94045300  0.03455900  1
  H  1094  1  0.80134500  0.91707700  0.06005700  1
  H  1095  1  0.77715100  0.94525900  0.91076700  1
  H  1096  1  0.79600500  0.92216400  0.88459600  1
  H  1097  1  0.86500200  0.95280900  0.89530800  1
  H  1098  1  0.84585100  0.97614100  0.92137800  1
  H  1103  1  0.83466300  0.91204400  0.08688400  1
  H  1104  1  0.65520700  0.07485200  0.07566400  1
  H  1105  1  0.65022900  0.07662200  0.88199700  1
  H  1106  1  0.83131600  0.91335400  0.86170300  1
  H  1155  1  0.16119400  0.97247900  0.55263800  1
  H  1156  1  0.18901000  0.99197000  0.52986600  1
  H  1157  1  0.21497700  0.92345900  0.56084300  1
  H  1158  1  0.24283800  0.94316800  0.53783400  1
  H  1159  1  0.24883700  0.99480100  0.55794200  1
  H  1160  1  0.28128600  0.02457100  0.55862000  1
  H  1161  1  0.26651800  0.00986400  0.49550800  1
  H  1162  1  0.26779100  0.00945400  0.45731300  1
  H  1163  1  0.20027000  0.95072100  0.49570300  1
  H  1164  1  0.20111800  0.95073400  0.45472500  1
  H  1165  1  0.19630700  0.99496300  0.41406800  1
  H  1166  1  0.16953600  0.97591000  0.38991300  1
  H  1167  1  0.24156400  0.93965000  0.41983300  1
  H  1168  1  0.21464700  0.92033500  0.39566200  1
  H  1169  1  0.25203400  0.99539100  0.39421600  1
  H  1170  1  0.28404300  0.02555600  0.39483800  1
  H  1171  1  0.32869200  0.07220800  0.49796100  1
  H  1172  1  0.32961600  0.07210000  0.45698000  1
  H  1173  1  0.34469400  0.03542800  0.41888200  1
  H  1174  1  0.36477900  0.05881300  0.39326800  1
  H  1175  1  0.28146300  0.07556100  0.41789900  1
  H  1176  1  0.30133400  0.09891300  0.39242700  1
  H  1177  1  0.27681100  0.07069600  0.54144600  1
  H  1178  1  0.29568000  0.09377300  0.56768900  1
  H  1179  1  0.36456000  0.06288900  0.55737800  1
  H  1180  1  0.34539600  0.03958400  0.53123600  1
  H  1185  1  0.33458900  0.10390600  0.36560000  1
  H  1186  1  0.15489400  0.94114400  0.37647800  1
  H  1187  1  0.14987300  0.93906600  0.57016800  1
  H  1188  1  0.33096900  0.10242000  0.59079200  1
  H  1237  1  0.41685300  0.17899100  0.67623900  1
  H  1238  1  0.43681700  0.20559500  0.69851800  1
  H  1239  1  0.48521300  0.16607900  0.64556600  1
  H  1240  1  0.50488800  0.19299900  0.66742100  1
  H  1241  1  0.50079500  0.17664600  0.71281400  1
  H  1242  1  0.53309000  0.17652100  0.74256300  1
  H  1243  1  0.51648400  0.23937700  0.72834200  1
  H  1244  1  0.51760100  0.27751600  0.72760100  1
  H  1245  1  0.45269700  0.23830600  0.66698800  1
  H  1246  1  0.45222900  0.27922100  0.66766800  1
  H  1247  1  0.44432900  0.31889600  0.71356700  1
  H  1248  1  0.41701000  0.34270400  0.69473500  1
  H  1249  1  0.49036100  0.31540700  0.65857800  1
  H  1250  1  0.46285300  0.33921100  0.63944900  1
  H  1251  1  0.49945100  0.34032900  0.71456300  1
  H  1252  1  0.53168300  0.34018700  0.74456300  1
  H  1253  1  0.57932400  0.23776300  0.79036500  1
  H  1254  1  0.57957200  0.27875800  0.79021300  1
  H  1255  1  0.59287200  0.31815700  0.75319700  1
  H  1256  1  0.61240800  0.34411200  0.77658500  1
  H  1257  1  0.53084700  0.31607500  0.79466400  1
  H  1258  1  0.55017300  0.34184900  0.81802300  1
  H  1259  1  0.52810200  0.19223100  0.78822700  1
  H  1260  1  0.54756900  0.16503800  0.80988400  1
  H  1261  1  0.61625300  0.17863700  0.78002100  1
  H  1262  1  0.59653700  0.20553300  0.75801400  1
  H  1267  1  0.58226800  0.36945300  0.82317700  1
  H  1268  1  0.40253400  0.35707100  0.66054400  1
  H  1269  1  0.44861300  0.13993300  0.64407800  1
  H  1270  1  0.58390300  0.13940600  0.81241300  1
  H  1319  1  0.91696240  0.83652800  0.77635500  1
  H  1320  1  0.93684840  0.80996200  0.75404000  1
  H  1321  1  0.98547740  0.84963400  0.80682900  1
  H  1322  1  0.00507300  0.82276100  0.78494000  1
  H  1323  1  0.00082400  0.83900800  0.73956400  1
  H  1324  1  0.03303600  0.83914900  0.70980700  1
  H  1325  1  0.01652800  0.77628600  0.72409400  1
  H  1326  1  0.01762500  0.73813400  0.72475300  1
  H  1327  1  0.95289940  0.77727600  0.78543300  1
  H  1328  1  0.95241340  0.73636400  0.78470100  1
  H  1329  1  0.94432540  0.69672500  0.73880200  1
  H  1330  1  0.91702240  0.67294200  0.75765500  1
  H  1331  1  0.99052036  0.70024100  0.79377800  1
  H  1332  1  0.96302540  0.67645500  0.81292800  1
  H  1333  1  0.99949036  0.67531400  0.73778700  1
  H  1334  1  0.03168600  0.67547300  0.70782500  1
  H  1335  1  0.07913600  0.77796000  0.66200500  1
  H  1336  1  0.07942400  0.73697100  0.66214800  1
  H  1337  1  0.09299700  0.69765300  0.69912400  1
  H  1338  1  0.11253800  0.67176700  0.67572100  1
  H  1339  1  0.03079000  0.69945900  0.65774600  1
  H  1340  1  0.05011700  0.67375500  0.63437600  1
  H  1341  1  0.02794100  0.82341100  0.66415700  1
  H  1342  1  0.04733300  0.85059500  0.64245700  1
  H  1343  1  0.11611800  0.83710400  0.67229500  1
  H  1344  1  0.09647500  0.81021500  0.69434700  1
  H  1349  1  0.08229700  0.64631500  0.62911700  1
  H  1350  1  0.90258740  0.65865500  0.79187400  1
  H  1351  1  0.94891840  0.87565100  0.80852700  1
  H  1352  1  0.08363200  0.87624600  0.63982700  1
  H  1401  1  0.12068500  0.83753000  0.27631200  1
  H  1402  1  0.10067400  0.81066700  0.25442900  1
  H  1403  1  0.05239100  0.85097800  0.30685900  1
  H  1404  1  0.03265400  0.82377400  0.28539100  1
  H  1405  1  0.03693800  0.83981200  0.23999500  1
  H  1406  1  0.00473000  0.83995800  0.21018100  1
  H  1407  1  0.02096700  0.77708700  0.22466800  1
  H  1408  1  0.02009200  0.73896600  0.22517700  1
  H  1409  1  0.08461800  0.77811300  0.28612300  1
  H  1410  1  0.08493700  0.73717500  0.28553400  1
  H  1411  1  0.09281900  0.69714200  0.24003200  1
  H  1412  1  0.11950400  0.67295200  0.25908800  1
  H  1413  1  0.04617600  0.70115300  0.29458900  1
  H  1414  1  0.07303500  0.67695100  0.31393400  1
  H  1415  1  0.03729800  0.67610100  0.23891000  1
  H  1416  1  0.00518300  0.67628200  0.20882000  1
  H  1417  1  0.95882140  0.77874700  0.16214100  1
  H  1418  1  0.95847440  0.73777700  0.16232500  1
  H  1419  1  0.94334540  0.70044400  0.19882500  1
  H  1420  1  0.92323140  0.67485000  0.17543100  1
  H  1421  1  0.00715400  0.69853400  0.15946000  1
  H  1422  1  0.98725740  0.67306500  0.13610100  1
  H  1423  1  0.00972300  0.82428800  0.16471900  1
  H  1424  1  0.99028436  0.85131200  0.14282400  1
  H  1425  1  0.92139540  0.83750700  0.17224100  1
  H  1426  1  0.94109240  0.81079300  0.19452400  1
  H  1431  1  0.95359940  0.64668800  0.13076300  1
  H  1432  1  0.13345600  0.65872000  0.29365900  1
  H  1433  1  0.08902800  0.87711200  0.30793000  1
  H  1434  1  0.95359240  0.87698100  0.14049700  1
  H  1483  1  0.62095900  0.17832900  0.17610800  1
  H  1484  1  0.60096500  0.20509500  0.19805700  1
  H  1485  1  0.55256700  0.16468600  0.14566700  1
  H  1486  1  0.53284700  0.19179000  0.16719800  1
  H  1487  1  0.53707700  0.17584500  0.21253900  1
  H  1488  1  0.50486700  0.17569900  0.24228900  1
  H  1489  1  0.52123400  0.23856500  0.22789000  1
  H  1490  1  0.52029600  0.27670800  0.22737200  1
  H  1491  1  0.58479600  0.23759900  0.16650100  1
  H  1492  1  0.58509300  0.27853100  0.16709700  1
  H  1493  1  0.59307000  0.31858800  0.21254100  1
  H  1494  1  0.61973700  0.34275000  0.19343800  1
  H  1495  1  0.54626900  0.31449300  0.15799700  1
  H  1496  1  0.57310300  0.33866500  0.13861100  1
  H  1497  1  0.53751300  0.33957100  0.21363500  1
  H  1498  1  0.50540700  0.33938800  0.24367300  1
  H  1499  1  0.45900100  0.23687800  0.29024700  1
  H  1500  1  0.45864600  0.27784700  0.29007300  1
  H  1501  1  0.44353800  0.31522600  0.25363700  1
  H  1502  1  0.42343300  0.34077100  0.27703000  1
  H  1503  1  0.50735500  0.31714900  0.29310600  1
  H  1504  1  0.48746800  0.34256500  0.31646300  1
  H  1505  1  0.50986800  0.19132600  0.28778500  1
  H  1506  1  0.49035500  0.16435300  0.30967400  1
  H  1507  1  0.42150100  0.17821300  0.28012400  1
  H  1508  1  0.44127000  0.20487800  0.25784700  1
  H  1513  1  0.45383100  0.36890400  0.32181500  1
  H  1514  1  0.63362000  0.35691400  0.15883200  1
  H  1515  1  0.58920800  0.13871800  0.14435200  1
  H  1516  1  0.45358800  0.13873600  0.31197300  1
  H  1565  1  0.16686100  0.55736400  0.39637000  1
  H  1566  1  0.18672500  0.53527000  0.42314300  1
  H  1567  1  0.23532500  0.58783200  0.38317000  1
  H  1568  1  0.25492400  0.56614600  0.41029000  1
  H  1569  1  0.25066700  0.52080900  0.39419700  1
  H  1570  1  0.28305700  0.49119300  0.39418000  1
  H  1571  1  0.26645300  0.50557300  0.45698500  1
  H  1572  1  0.26634500  0.50558900  0.49514600  1
  H  1573  1  0.20315100  0.56722000  0.45562600  1
  H  1574  1  0.20287200  0.56690100  0.49659400  1
  H  1575  1  0.19449700  0.52580200  0.54028200  1
  H  1576  1  0.17450000  0.54749900  0.56738900  1
  H  1577  1  0.24724300  0.57523600  0.53034400  1
  H  1578  1  0.22725800  0.59696200  0.55731000  1
  H  1579  1  0.25086600  0.52093900  0.55795500  1
  H  1580  1  0.28275300  0.49069100  0.55791200  1
  H  1581  1  0.32913100  0.44355300  0.45569600  1
  H  1582  1  0.32918500  0.44377000  0.49666200  1
  H  1583  1  0.34179100  0.48169000  0.53690000  1
  H  1584  1  0.36283600  0.45712800  0.56066100  1
  H  1585  1  0.28178600  0.43817600  0.53215500  1
  H  1586  1  0.30260900  0.41363900  0.55578600  1
  H  1587  1  0.27820900  0.44578700  0.40969600  1
  H  1588  1  0.29781800  0.42405400  0.38270500  1
  H  1589  1  0.36659800  0.45353300  0.39693900  1
  H  1590  1  0.34672500  0.47566100  0.42363500  1
  H  1595  1  0.34084100  0.40203600  0.57277500  1
  H  1596  1  0.19930500  0.58758900  0.59505600  1
  H  1597  1  0.19865900  0.58912800  0.35698600  1
  H  1598  1  0.33454800  0.42177400  0.35723500  1
  H  1647  1  0.66685900  0.45804300  0.05584300  1
  H  1648  1  0.68665600  0.48014700  0.02906300  1
  H  1649  1  0.73539700  0.42778500  0.06919200  1
  H  1650  1  0.75492900  0.44948000  0.04207200  1
  H  1651  1  0.75058400  0.49479600  0.05812900  1
  H  1652  1  0.78293900  0.52447300  0.05820000  1
  H  1653  1  0.76638800  0.51004700  0.99536500  1
  H  1654  1  0.76637800  0.51010800  0.95721500  1
  H  1655  1  0.70309300  0.44835400  0.99654500  1
  H  1656  1  0.70285600  0.44874900  0.95557500  1
  H  1657  1  0.69450300  0.48997600  0.91205400  1
  H  1658  1  0.67446600  0.46835700  0.88485100  1
  H  1659  1  0.74726200  0.44054800  0.92187300  1
  H  1660  1  0.72723000  0.41889300  0.89480900  1
  H  1661  1  0.75084800  0.49480600  0.89437800  1
  H  1662  1  0.78275300  0.52506800  0.89447500  1
  H  1663  1  0.82902400  0.57218400  0.99684700  1
  H  1664  1  0.82917400  0.57200400  0.95587800  1
  H  1665  1  0.84176000  0.53402500  0.91547900  1
  H  1666  1  0.86280800  0.55857400  0.89172900  1
  H  1667  1  0.78194900  0.57764400  0.92033600  1
  H  1668  1  0.80277500  0.60217200  0.89672000  1
  H  1669  1  0.77804700  0.56992800  0.04254500  1
  H  1670  1  0.79762700  0.59165000  0.06962700  1
  H  1671  1  0.86636400  0.56203800  0.05574500  1
  H  1672  1  0.84652100  0.53992600  0.02896600  1
  H  1677  1  0.84092400  0.61370800  0.87961900  1
  H  1678  1  0.69906800  0.42851000  0.85702400  1
  H  1679  1  0.69881100  0.42636200  0.09530200  1
  H  1680  1  0.83434200  0.59377300  0.09530500  1
  H  1689  1  0.70956700  0.12906500  0.14211200  1
  H  1690  1  0.71658300  0.15563500  0.15056700  1
  H  1691  1  0.71138900  0.15024900  0.12288000  1
  H  1693  1  0.67308400  0.12743300  0.16898700  1
  H  1694  1  0.65128500  0.14865300  0.17026100  1
  H  1695  1  0.68228400  0.15355700  0.17754000  1
  H  1697  1  0.67661200  0.17965300  0.12136300  1
  H  1698  1  0.68594500  0.18509300  0.14826900  1
  H  1699  1  0.65449600  0.18095500  0.14239900  1
  H  1701  1  0.62800800  0.10314200  0.08592300  1
  H  1712  1  0.20926700  0.88687400  0.31037300  1
  H  1713  1  0.21630100  0.86031200  0.30194000  1
  H  1714  1  0.21114200  0.86570600  0.32962000  1
  H  1716  1  0.17276400  0.88841900  0.28346200  1
  H  1717  1  0.15095500  0.86718400  0.28219700  1
  H  1718  1  0.18193800  0.86229500  0.27493500  1
  H  1720  1  0.17639300  0.83623600  0.33112400  1
  H  1721  1  0.18571000  0.83079700  0.30423400  1
  H  1722  1  0.15426100  0.83487600  0.31005700  1
  H  1724  1  0.12773900  0.91266300  0.36648100  1
  H  1735  1  0.45594900  0.42318400  0.60564700  1
  H  1736  1  0.46216600  0.43207800  0.57906700  1
  H  1737  1  0.45692900  0.40433400  0.58409800  1
  H  1739  1  0.41943300  0.45016100  0.60866500  1
  H  1740  1  0.39736800  0.45215200  0.58764800  1
  H  1741  1  0.42838000  0.45921500  0.58265200  1
  H  1743  1  0.42129500  0.40364900  0.55544100  1
  H  1744  1  0.43039200  0.43067800  0.55031500  1
  H  1745  1  0.39910500  0.42467300  0.55517900  1
  H  1747  1  0.37456300  0.36814600  0.63364800  1
  H  1758  1  0.95595340  0.59247700  0.84680600  1
  H  1759  1  0.96221440  0.58359500  0.87339300  1
  H  1760  1  0.95703540  0.61134200  0.86834300  1
  H  1762  1  0.91936140  0.56553200  0.84380200  1
  H  1763  1  0.89734300  0.56357500  0.86481800  1
  H  1764  1  0.92835040  0.55648700  0.86982200  1
  H  1766  1  0.92146940  0.61207800  0.89699300  1
  H  1767  1  0.93051940  0.58504700  0.90214100  1
  H  1768  1  0.89923300  0.59106900  0.89727000  1
  H  1770  1  0.87464700  0.64757100  0.81875200  1
  H  1781  1  0.33484900  0.12526200  0.31312800  1
  H  1782  1  0.32653100  0.15114300  0.30350100  1
  H  1783  1  0.33117000  0.14701300  0.33147800  1
  H  1785  1  0.37234300  0.12438300  0.28715300  1
  H  1786  1  0.39269500  0.14667800  0.28547600  1
  H  1787  1  0.36164400  0.14963500  0.27739000  1
  H  1789  1  0.36399800  0.17803000  0.33261700  1
  H  1790  1  0.35543700  0.18206900  0.30526800  1
  H  1791  1  0.38684300  0.17956100  0.31219900  1
  H  1793  1  0.41593800  0.10508700  0.37208000  1
  H  1804  1  0.83493000  0.89062800  0.13926000  1
  H  1805  1  0.82653300  0.86475800  0.14887200  1
  H  1806  1  0.83113600  0.86889000  0.12089900  1
  H  1808  1  0.87247000  0.89143100  0.16526000  1
  H  1809  1  0.89274900  0.86910500  0.16693900  1
  H  1810  1  0.86170300  0.86619300  0.17500600  1
  H  1812  1  0.86384400  0.83781400  0.11977200  1
  H  1813  1  0.85532100  0.83378100  0.14711300  1
  H  1814  1  0.88672400  0.83623500  0.14020000  1
  H  1816  1  0.91598440  0.91066500  0.08035400  1
  H  1827  1  0.57948900  0.42059700  0.84708600  1
  H  1828  1  0.57172600  0.42820500  0.87374600  1
  H  1829  1  0.57837500  0.40087800  0.86786100  1
  H  1831  1  0.61506800  0.44892000  0.84643900  1
  H  1832  1  0.63588600  0.45071100  0.86844200  1
  H  1833  1  0.60435200  0.45654000  0.87239500  1
  H  1835  1  0.61291200  0.40012400  0.89759800  1
  H  1836  1  0.60223300  0.42652600  0.90351100  1
  H  1837  1  0.63399200  0.42195800  0.89949800  1
  H  1839  1  0.66390000  0.36817400  0.82077900  1
  H  1850  1  0.07953300  0.59505600  0.60521600  1
  H  1851  1  0.07171100  0.58742200  0.57855800  1
  H  1852  1  0.07834200  0.61476600  0.58443400  1
  H  1854  1  0.11515300  0.56680500  0.60587600  1
  H  1855  1  0.13591000  0.56504200  0.58387200  1
  H  1856  1  0.10437200  0.55915300  0.57992400  1
  H  1858  1  0.11279800  0.61557600  0.55469900  1
  H  1859  1  0.10213700  0.58914800  0.54879600  1
  H  1860  1  0.13389900  0.59378200  0.55280600  1
  H  1862  1  0.16393400  0.64762000  0.63154500  1
  H  1873  1  0.83068000  0.89026700  0.81043800  1
  H  1874  1  0.82182000  0.86450200  0.80086600  1
  H  1875  1  0.82671700  0.86855700  0.82881900  1
  H  1877  1  0.86807400  0.89066300  0.78428300  1
  H  1878  1  0.88793600  0.86805600  0.78251100  1
  H  1879  1  0.85677100  0.86558600  0.77458300  1
  H  1881  1  0.85901400  0.83710900  0.82980800  1
  H  1882  1  0.85015200  0.83320200  0.80251400  1
  H  1883  1  0.88166000  0.83530400  0.80924100  1
  H  1885  1  0.91249440  0.90914300  0.86912800  1
  H  1896  1  0.33042300  0.12549100  0.64197500  1
  H  1897  1  0.32163400  0.15125200  0.65156400  1
  H  1898  1  0.32648600  0.14722100  0.62361100  1
  H  1900  1  0.36783100  0.12504100  0.66817000  1
  H  1901  1  0.38777800  0.14761000  0.66997100  1
  H  1902  1  0.35663600  0.15013100  0.67788300  1
  H  1904  1  0.35885800  0.17865000  0.62268900  1
  H  1905  1  0.35002700  0.18253500  0.64997200  1
  H  1906  1  0.38152400  0.18042000  0.64328900  1
  H  1908  1  0.41213000  0.10661600  0.58334700  1
  H  1919  1  0.07844600  0.59220200  0.34737200  1
  H  1920  1  0.07139000  0.58363600  0.37389700  1
  H  1921  1  0.07676900  0.61132400  0.36864400  1
  H  1923  1  0.11471700  0.56512800  0.34565100  1
  H  1924  1  0.13656300  0.56363000  0.36685300  1
  H  1925  1  0.10553200  0.55648300  0.37174400  1
  H  1927  1  0.11158500  0.61247600  0.39809400  1
  H  1928  1  0.10204600  0.58560200  0.40339700  1
  H  1929  1  0.13353800  0.59129000  0.39932500  1
  H  1931  1  0.16040700  0.64811900  0.32187100  1
  H  1942  1  0.57860900  0.42344200  0.10510600  1
  H  1943  1  0.57146000  0.43198000  0.07858000  1
  H  1944  1  0.57678600  0.40429400  0.08386000  1
  H  1946  1  0.61497100  0.45047700  0.10674200  1
  H  1947  1  0.63671400  0.45193000  0.08549900  1
  H  1948  1  0.60567800  0.45909800  0.08065600  1
  H  1950  1  0.61146200  0.40306400  0.05436700  1
  H  1951  1  0.60198600  0.42994500  0.04904000  1
  H  1952  1  0.63347700  0.42421400  0.05308100  1
  H  1954  1  0.66051700  0.36747300  0.13058100  1
  H  1965  1  0.20286500  0.89079600  0.64281400  1
  H  1966  1  0.21087300  0.86482300  0.65239300  1
  H  1967  1  0.20726300  0.86924700  0.62434700  1
  H  1969  1  0.16450000  0.89136600  0.66773400  1
  H  1970  1  0.14407500  0.86908500  0.66861300  1
  H  1971  1  0.17481100  0.86600200  0.67751700  1
  H  1973  1  0.17461100  0.83820600  0.62196200  1
  H  1974  1  0.18211600  0.83388900  0.64950100  1
  H  1975  1  0.15099700  0.83640600  0.64166900  1
  H  1977  1  0.12383100  0.91100000  0.58163100  1
  H  1988  1  0.70307900  0.12504000  0.80950000  1
  H  1989  1  0.71106700  0.15102400  0.79993000  1
  H  1990  1  0.70752400  0.14658700  0.82797600  1
  H  1992  1  0.66465600  0.12444400  0.78457200  1
  H  1993  1  0.64422800  0.14670300  0.78370000  1
  H  1994  1  0.67494000  0.14982300  0.77480000  1
  H  1996  1  0.67488000  0.17759700  0.83036600  1
  H  1997  1  0.68232200  0.18193000  0.80283100  1
  H  1998  1  0.65122000  0.17938100  0.81065300  1
  H  2000  1  0.62418200  0.10474200  0.87066000  1
  H  2011  1  0.95305940  0.59446600  0.10911100  1
  H  2012  1  0.96139040  0.58492400  0.08321900  1
  H  2013  1  0.95691640  0.61289800  0.08743100  1
  H  2015  1  0.91539640  0.56861200  0.10980600  1
  H  2016  1  0.89510100  0.56709500  0.08744600  1
  H  2017  1  0.92611240  0.55892200  0.08455200  1
  H  2019  1  0.92418340  0.61427600  0.05633200  1
  H  2020  1  0.93258140  0.58691900  0.05222100  1
  H  2021  1  0.90121440  0.59394300  0.05467100  1
  H  2023  1  0.87230100  0.65360500  0.12926100  1
  H  2034  1  0.45329100  0.42126300  0.34347200  1
  H  2035  1  0.46166600  0.43078900  0.36938000  1
  H  2036  1  0.45719300  0.40281600  0.36513600  1
  H  2038  1  0.41558900  0.44706700  0.34278000  1
  H  2039  1  0.39537600  0.44855300  0.36515900  1
  H  2040  1  0.42639800  0.45674700  0.36803400  1
  H  2042  1  0.42452300  0.40136500  0.39621200  1
  H  2043  1  0.43290400  0.42873200  0.40035600  1
  H  2044  1  0.40153700  0.42165700  0.39787600  1
  H  2046  1  0.37251600  0.36206600  0.32319200  1
  H  2097  1  0.43886800  0.04319200  0.89946200  1
  H  2098  1  0.46670700  0.02373200  0.92228200  1
  H  2099  1  0.49252100  0.09240900  0.89154000  1
  H  2100  1  0.52040700  0.07273800  0.91458900  1
  H  2101  1  0.52638800  0.02100900  0.89439400  1
  H  2102  1  0.55883300  0.99126900  0.89375900  1
  H  2103  1  0.54420400  0.00606900  0.95684900  1
  H  2104  1  0.54528900  0.00647100  0.99505200  1
  H  2105  1  0.47791700  0.06514400  0.95648700  1
  H  2106  1  0.47874500  0.06521400  0.99746500  1
  H  2107  1  0.47392800  0.02102000  0.03828300  1
  H  2108  1  0.44719300  0.04004600  0.06240200  1
  H  2109  1  0.51906600  0.07642100  0.03242800  1
  H  2110  1  0.49217800  0.09571300  0.05657300  1
  H  2111  1  0.52960000  0.02057200  0.05812600  1
  H  2112  1  0.56152500  0.99037300  0.05754900  1
  H  2113  1  0.60615900  0.94364300  0.95456700  1
  H  2114  1  0.60698100  0.94376900  0.99554500  1
  H  2115  1  0.62219300  0.98041500  0.03351800  1
  H  2116  1  0.64223500  0.95700700  0.05915900  1
  H  2117  1  0.55876500  0.94045300  0.03455900  1
  H  2118  1  0.57859500  0.91707700  0.06005700  1
  H  2119  1  0.55440100  0.94525900  0.91076700  1
  H  2120  1  0.57325500  0.92216400  0.88459600  1
  H  2121  1  0.64225200  0.95280900  0.89530800  1
  H  2122  1  0.62310100  0.97614100  0.92137800  1
  H  2127  1  0.61191300  0.91204400  0.08688400  1
  H  2128  1  0.43245700  0.07485200  0.07566400  1
  H  2129  1  0.42747900  0.07662200  0.88199700  1
  H  2130  1  0.60856600  0.91335400  0.86170300  1
  H  2179  1  0.93844370  0.97247900  0.55263800  1
  H  2180  1  0.96625970  0.99197000  0.52986600  1
  H  2181  1  0.99222673  0.92345900  0.56084300  1
  H  2182  1  0.02008800  0.94316800  0.53783400  1
  H  2183  1  0.02608700  0.99480100  0.55794200  1
  H  2184  1  0.05853600  0.02457100  0.55862000  1
  H  2185  1  0.04376800  0.00986400  0.49550800  1
  H  2186  1  0.04504100  0.00945400  0.45731300  1
  H  2187  1  0.97751970  0.95072100  0.49570300  1
  H  2188  1  0.97836770  0.95073400  0.45472500  1
  H  2189  1  0.97355670  0.99496300  0.41406800  1
  H  2190  1  0.94678570  0.97591000  0.38991300  1
  H  2191  1  0.01881400  0.93965000  0.41983300  1
  H  2192  1  0.99189673  0.92033500  0.39566200  1
  H  2193  1  0.02928400  0.99539100  0.39421600  1
  H  2194  1  0.06129300  0.02555600  0.39483800  1
  H  2195  1  0.10594200  0.07220800  0.49796100  1
  H  2196  1  0.10686600  0.07210000  0.45698000  1
  H  2197  1  0.12194400  0.03542800  0.41888200  1
  H  2198  1  0.14202900  0.05881300  0.39326800  1
  H  2199  1  0.05871300  0.07556100  0.41789900  1
  H  2200  1  0.07858400  0.09891300  0.39242700  1
  H  2201  1  0.05406100  0.07069600  0.54144600  1
  H  2202  1  0.07293000  0.09377300  0.56768900  1
  H  2203  1  0.14181000  0.06288900  0.55737800  1
  H  2204  1  0.12264600  0.03958400  0.53123600  1
  H  2209  1  0.11183900  0.10390600  0.36560000  1
  H  2210  1  0.93214370  0.94114400  0.37647800  1
  H  2211  1  0.92712270  0.93906600  0.57016800  1
  H  2212  1  0.10821900  0.10242000  0.59079200  1
  H  2261  1  0.19410300  0.17899100  0.67623900  1
  H  2262  1  0.21406700  0.20559500  0.69851800  1
  H  2263  1  0.26246300  0.16607900  0.64556600  1
  H  2264  1  0.28213800  0.19299900  0.66742100  1
  H  2265  1  0.27804500  0.17664600  0.71281400  1
  H  2266  1  0.31034000  0.17652100  0.74256300  1
  H  2267  1  0.29373400  0.23937700  0.72834200  1
  H  2268  1  0.29485100  0.27751600  0.72760100  1
  H  2269  1  0.22994700  0.23830600  0.66698800  1
  H  2270  1  0.22947900  0.27922100  0.66766800  1
  H  2271  1  0.22157900  0.31889600  0.71356700  1
  H  2272  1  0.19426000  0.34270400  0.69473500  1
  H  2273  1  0.26761100  0.31540700  0.65857800  1
  H  2274  1  0.24010300  0.33921100  0.63944900  1
  H  2275  1  0.27670100  0.34032900  0.71456300  1
  H  2276  1  0.30893300  0.34018700  0.74456300  1
  H  2277  1  0.35657400  0.23776300  0.79036500  1
  H  2278  1  0.35682200  0.27875800  0.79021300  1
  H  2279  1  0.37012200  0.31815700  0.75319700  1
  H  2280  1  0.38965800  0.34411200  0.77658500  1
  H  2281  1  0.30809700  0.31607500  0.79466400  1
  H  2282  1  0.32742300  0.34184900  0.81802300  1
  H  2283  1  0.30535200  0.19223100  0.78822700  1
  H  2284  1  0.32481900  0.16503800  0.80988400  1
  H  2285  1  0.39350300  0.17863700  0.78002100  1
  H  2286  1  0.37378700  0.20553300  0.75801400  1
  H  2291  1  0.35951800  0.36945300  0.82317700  1
  H  2292  1  0.17978400  0.35707100  0.66054400  1
  H  2293  1  0.22586300  0.13993300  0.64407800  1
  H  2294  1  0.36115300  0.13940600  0.81241300  1
  H  2343  1  0.69421200  0.83652800  0.77635500  1
  H  2344  1  0.71409800  0.80996200  0.75404000  1
  H  2345  1  0.76272700  0.84963400  0.80682900  1
  H  2346  1  0.78232300  0.82276100  0.78494000  1
  H  2347  1  0.77807400  0.83900800  0.73956400  1
  H  2348  1  0.81028600  0.83914900  0.70980700  1
  H  2349  1  0.79377800  0.77628600  0.72409400  1
  H  2350  1  0.79487500  0.73813400  0.72475300  1
  H  2351  1  0.73014900  0.77727600  0.78543300  1
  H  2352  1  0.72966300  0.73636400  0.78470100  1
  H  2353  1  0.72157500  0.69672500  0.73880200  1
  H  2354  1  0.69427200  0.67294200  0.75765500  1
  H  2355  1  0.76777000  0.70024100  0.79377800  1
  H  2356  1  0.74027500  0.67645500  0.81292800  1
  H  2357  1  0.77674000  0.67531400  0.73778700  1
  H  2358  1  0.80893600  0.67547300  0.70782500  1
  H  2359  1  0.85638600  0.77796000  0.66200500  1
  H  2360  1  0.85667400  0.73697100  0.66214800  1
  H  2361  1  0.87024700  0.69765300  0.69912400  1
  H  2362  1  0.88978800  0.67176700  0.67572100  1
  H  2363  1  0.80804000  0.69945900  0.65774600  1
  H  2364  1  0.82736700  0.67375500  0.63437600  1
  H  2365  1  0.80519100  0.82341100  0.66415700  1
  H  2366  1  0.82458300  0.85059500  0.64245700  1
  H  2367  1  0.89336800  0.83710400  0.67229500  1
  H  2368  1  0.87372500  0.81021500  0.69434700  1
  H  2373  1  0.85954700  0.64631500  0.62911700  1
  H  2374  1  0.67983700  0.65865500  0.79187400  1
  H  2375  1  0.72616800  0.87565100  0.80852700  1
  H  2376  1  0.86088200  0.87624600  0.63982700  1
  H  2425  1  0.89793500  0.83753000  0.27631200  1
  H  2426  1  0.87792400  0.81066700  0.25442900  1
  H  2427  1  0.82964100  0.85097800  0.30685900  1
  H  2428  1  0.80990400  0.82377400  0.28539100  1
  H  2429  1  0.81418800  0.83981200  0.23999500  1
  H  2430  1  0.78198000  0.83995800  0.21018100  1
  H  2431  1  0.79821700  0.77708700  0.22466800  1
  H  2432  1  0.79734200  0.73896600  0.22517700  1
  H  2433  1  0.86186800  0.77811300  0.28612300  1
  H  2434  1  0.86218700  0.73717500  0.28553400  1
  H  2435  1  0.87006900  0.69714200  0.24003200  1
  H  2436  1  0.89675400  0.67295200  0.25908800  1
  H  2437  1  0.82342600  0.70115300  0.29458900  1
  H  2438  1  0.85028500  0.67695100  0.31393400  1
  H  2439  1  0.81454800  0.67610100  0.23891000  1
  H  2440  1  0.78243300  0.67628200  0.20882000  1
  H  2441  1  0.73607100  0.77874700  0.16214100  1
  H  2442  1  0.73572400  0.73777700  0.16232500  1
  H  2443  1  0.72059500  0.70044400  0.19882500  1
  H  2444  1  0.70048100  0.67485000  0.17543100  1
  H  2445  1  0.78440400  0.69853400  0.15946000  1
  H  2446  1  0.76450700  0.67306500  0.13610100  1
  H  2447  1  0.78697300  0.82428800  0.16471900  1
  H  2448  1  0.76753400  0.85131200  0.14282400  1
  H  2449  1  0.69864500  0.83750700  0.17224100  1
  H  2450  1  0.71834200  0.81079300  0.19452400  1
  H  2455  1  0.73084900  0.64668800  0.13076300  1
  H  2456  1  0.91070570  0.65872000  0.29365900  1
  H  2457  1  0.86627800  0.87711200  0.30793000  1
  H  2458  1  0.73084200  0.87698100  0.14049700  1
  H  2507  1  0.39820900  0.17832900  0.17610800  1
  H  2508  1  0.37821500  0.20509500  0.19805700  1
  H  2509  1  0.32981700  0.16468600  0.14566700  1
  H  2510  1  0.31009700  0.19179000  0.16719800  1
  H  2511  1  0.31432700  0.17584500  0.21253900  1
  H  2512  1  0.28211700  0.17569900  0.24228900  1
  H  2513  1  0.29848400  0.23856500  0.22789000  1
  H  2514  1  0.29754600  0.27670800  0.22737200  1
  H  2515  1  0.36204600  0.23759900  0.16650100  1
  H  2516  1  0.36234300  0.27853100  0.16709700  1
  H  2517  1  0.37032000  0.31858800  0.21254100  1
  H  2518  1  0.39698700  0.34275000  0.19343800  1
  H  2519  1  0.32351900  0.31449300  0.15799700  1
  H  2520  1  0.35035300  0.33866500  0.13861100  1
  H  2521  1  0.31476300  0.33957100  0.21363500  1
  H  2522  1  0.28265700  0.33938800  0.24367300  1
  H  2523  1  0.23625100  0.23687800  0.29024700  1
  H  2524  1  0.23589600  0.27784700  0.29007300  1
  H  2525  1  0.22078800  0.31522600  0.25363700  1
  H  2526  1  0.20068300  0.34077100  0.27703000  1
  H  2527  1  0.28460500  0.31714900  0.29310600  1
  H  2528  1  0.26471800  0.34256500  0.31646300  1
  H  2529  1  0.28711800  0.19132600  0.28778500  1
  H  2530  1  0.26760500  0.16435300  0.30967400  1
  H  2531  1  0.19875100  0.17821300  0.28012400  1
  H  2532  1  0.21852000  0.20487800  0.25784700  1
  H  2537  1  0.23108100  0.36890400  0.32181500  1
  H  2538  1  0.41087000  0.35691400  0.15883200  1
  H  2539  1  0.36645800  0.13871800  0.14435200  1
  H  2540  1  0.23083800  0.13873600  0.31197300  1
  H  2589  1  0.94411070  0.55736400  0.39637000  1
  H  2590  1  0.96397470  0.53527000  0.42314300  1
  H  2591  1  0.01257500  0.58783200  0.38317000  1
  H  2592  1  0.03217400  0.56614600  0.41029000  1
  H  2593  1  0.02791700  0.52080900  0.39419700  1
  H  2594  1  0.06030700  0.49119300  0.39418000  1
  H  2595  1  0.04370300  0.50557300  0.45698500  1
  H  2596  1  0.04359500  0.50558900  0.49514600  1
  H  2597  1  0.98040070  0.56722000  0.45562600  1
  H  2598  1  0.98012170  0.56690100  0.49659400  1
  H  2599  1  0.97174670  0.52580200  0.54028200  1
  H  2600  1  0.95174970  0.54749900  0.56738900  1
  H  2601  1  0.02449300  0.57523600  0.53034400  1
  H  2602  1  0.00450800  0.59696200  0.55731000  1
  H  2603  1  0.02811600  0.52093900  0.55795500  1
  H  2604  1  0.06000300  0.49069100  0.55791200  1
  H  2605  1  0.10638100  0.44355300  0.45569600  1
  H  2606  1  0.10643500  0.44377000  0.49666200  1
  H  2607  1  0.11904100  0.48169000  0.53690000  1
  H  2608  1  0.14008600  0.45712800  0.56066100  1
  H  2609  1  0.05903600  0.43817600  0.53215500  1
  H  2610  1  0.07985900  0.41363900  0.55578600  1
  H  2611  1  0.05545900  0.44578700  0.40969600  1
  H  2612  1  0.07506800  0.42405400  0.38270500  1
  H  2613  1  0.14384800  0.45353300  0.39693900  1
  H  2614  1  0.12397500  0.47566100  0.42363500  1
  H  2619  1  0.11809100  0.40203600  0.57277500  1
  H  2620  1  0.97655470  0.58758900  0.59505600  1
  H  2621  1  0.97590870  0.58912800  0.35698600  1
  H  2622  1  0.11179800  0.42177400  0.35723500  1
  H  2671  1  0.44410900  0.45804300  0.05584300  1
  H  2672  1  0.46390600  0.48014700  0.02906300  1
  H  2673  1  0.51264700  0.42778500  0.06919200  1
  H  2674  1  0.53217900  0.44948000  0.04207200  1
  H  2675  1  0.52783400  0.49479600  0.05812900  1
  H  2676  1  0.56018900  0.52447300  0.05820000  1
  H  2677  1  0.54363800  0.51004700  0.99536500  1
  H  2678  1  0.54362800  0.51010800  0.95721500  1
  H  2679  1  0.48034300  0.44835400  0.99654500  1
  H  2680  1  0.48010600  0.44874900  0.95557500  1
  H  2681  1  0.47175300  0.48997600  0.91205400  1
  H  2682  1  0.45171600  0.46835700  0.88485100  1
  H  2683  1  0.52451200  0.44054800  0.92187300  1
  H  2684  1  0.50448000  0.41889300  0.89480900  1
  H  2685  1  0.52809800  0.49480600  0.89437800  1
  H  2686  1  0.56000300  0.52506800  0.89447500  1
  H  2687  1  0.60627400  0.57218400  0.99684700  1
  H  2688  1  0.60642400  0.57200400  0.95587800  1
  H  2689  1  0.61901000  0.53402500  0.91547900  1
  H  2690  1  0.64005800  0.55857400  0.89172900  1
  H  2691  1  0.55919900  0.57764400  0.92033600  1
  H  2692  1  0.58002500  0.60217200  0.89672000  1
  H  2693  1  0.55529700  0.56992800  0.04254500  1
  H  2694  1  0.57487700  0.59165000  0.06962700  1
  H  2695  1  0.64361400  0.56203800  0.05574500  1
  H  2696  1  0.62377100  0.53992600  0.02896600  1
  H  2701  1  0.61817400  0.61370800  0.87961900  1
  H  2702  1  0.47631800  0.42851000  0.85702400  1
  H  2703  1  0.47606100  0.42636200  0.09530200  1
  H  2704  1  0.61159200  0.59377300  0.09530500  1
  H  2713  1  0.48681700  0.12906500  0.14211200  1
  H  2714  1  0.49383300  0.15563500  0.15056700  1
  H  2715  1  0.48863900  0.15024900  0.12288000  1
  H  2717  1  0.45033400  0.12743300  0.16898700  1
  H  2718  1  0.42853500  0.14865300  0.17026100  1
  H  2719  1  0.45953400  0.15355700  0.17754000  1
  H  2721  1  0.45386200  0.17965300  0.12136300  1
  H  2722  1  0.46319500  0.18509300  0.14826900  1
  H  2723  1  0.43174600  0.18095500  0.14239900  1
  H  2725  1  0.40525800  0.10314200  0.08592300  1
  H  2736  1  0.98651670  0.88687400  0.31037300  1
  H  2737  1  0.99355073  0.86031200  0.30194000  1
  H  2738  1  0.98839170  0.86570600  0.32962000  1
  H  2740  1  0.95001370  0.88841900  0.28346200  1
  H  2741  1  0.92820470  0.86718400  0.28219700  1
  H  2742  1  0.95918770  0.86229500  0.27493500  1
  H  2744  1  0.95364270  0.83623600  0.33112400  1
  H  2745  1  0.96295970  0.83079700  0.30423400  1
  H  2746  1  0.93151070  0.83487600  0.31005700  1
  H  2748  1  0.90498870  0.91266300  0.36648100  1
  H  2759  1  0.23319900  0.42318400  0.60564700  1
  H  2760  1  0.23941600  0.43207800  0.57906700  1
  H  2761  1  0.23417900  0.40433400  0.58409800  1
  H  2763  1  0.19668300  0.45016100  0.60866500  1
  H  2764  1  0.17461800  0.45215200  0.58764800  1
  H  2765  1  0.20563000  0.45921500  0.58265200  1
  H  2767  1  0.19854500  0.40364900  0.55544100  1
  H  2768  1  0.20764200  0.43067800  0.55031500  1
  H  2769  1  0.17635500  0.42467300  0.55517900  1
  H  2771  1  0.15181300  0.36814600  0.63364800  1
  H  2782  1  0.73320300  0.59247700  0.84680600  1
  H  2783  1  0.73946400  0.58359500  0.87339300  1
  H  2784  1  0.73428500  0.61134200  0.86834300  1
  H  2786  1  0.69661100  0.56553200  0.84380200  1
  H  2787  1  0.67459300  0.56357500  0.86481800  1
  H  2788  1  0.70560000  0.55648700  0.86982200  1
  H  2790  1  0.69871900  0.61207800  0.89699300  1
  H  2791  1  0.70776900  0.58504700  0.90214100  1
  H  2792  1  0.67648300  0.59106900  0.89727000  1
  H  2794  1  0.65189700  0.64757100  0.81875200  1
  H  2805  1  0.11209900  0.12526200  0.31312800  1
  H  2806  1  0.10378100  0.15114300  0.30350100  1
  H  2807  1  0.10842000  0.14701300  0.33147800  1
  H  2809  1  0.14959300  0.12438300  0.28715300  1
  H  2810  1  0.16994500  0.14667800  0.28547600  1
  H  2811  1  0.13889400  0.14963500  0.27739000  1
  H  2813  1  0.14124800  0.17803000  0.33261700  1
  H  2814  1  0.13268700  0.18206900  0.30526800  1
  H  2815  1  0.16409300  0.17956100  0.31219900  1
  H  2817  1  0.19318800  0.10508700  0.37208000  1
  H  2828  1  0.61218000  0.89062800  0.13926000  1
  H  2829  1  0.60378300  0.86475800  0.14887200  1
  H  2830  1  0.60838600  0.86889000  0.12089900  1
  H  2832  1  0.64972000  0.89143100  0.16526000  1
  H  2833  1  0.66999900  0.86910500  0.16693900  1
  H  2834  1  0.63895300  0.86619300  0.17500600  1
  H  2836  1  0.64109400  0.83781400  0.11977200  1
  H  2837  1  0.63257100  0.83378100  0.14711300  1
  H  2838  1  0.66397400  0.83623500  0.14020000  1
  H  2840  1  0.69323400  0.91066500  0.08035400  1
  H  2851  1  0.35673900  0.42059700  0.84708600  1
  H  2852  1  0.34897600  0.42820500  0.87374600  1
  H  2853  1  0.35562500  0.40087800  0.86786100  1
  H  2855  1  0.39231800  0.44892000  0.84643900  1
  H  2856  1  0.41313600  0.45071100  0.86844200  1
  H  2857  1  0.38160200  0.45654000  0.87239500  1
  H  2859  1  0.39016200  0.40012400  0.89759800  1
  H  2860  1  0.37948300  0.42652600  0.90351100  1
  H  2861  1  0.41124200  0.42195800  0.89949800  1
  H  2863  1  0.44115000  0.36817400  0.82077900  1
  H  2874  1  0.85678300  0.59505600  0.60521600  1
  H  2875  1  0.84896100  0.58742200  0.57855800  1
  H  2876  1  0.85559200  0.61476600  0.58443400  1
  H  2878  1  0.89240300  0.56680500  0.60587600  1
  H  2879  1  0.91315970  0.56504200  0.58387200  1
  H  2880  1  0.88162200  0.55915300  0.57992400  1
  H  2882  1  0.89004800  0.61557600  0.55469900  1
  H  2883  1  0.87938700  0.58914800  0.54879600  1
  H  2884  1  0.91114870  0.59378200  0.55280600  1
  H  2886  1  0.94118370  0.64762000  0.63154500  1
  H  2897  1  0.60793000  0.89026700  0.81043800  1
  H  2898  1  0.59907000  0.86450200  0.80086600  1
  H  2899  1  0.60396700  0.86855700  0.82881900  1
  H  2901  1  0.64532400  0.89066300  0.78428300  1
  H  2902  1  0.66518600  0.86805600  0.78251100  1
  H  2903  1  0.63402100  0.86558600  0.77458300  1
  H  2905  1  0.63626400  0.83710900  0.82980800  1
  H  2906  1  0.62740200  0.83320200  0.80251400  1
  H  2907  1  0.65891000  0.83530400  0.80924100  1
  H  2909  1  0.68974400  0.90914300  0.86912800  1
  H  2920  1  0.10767300  0.12549100  0.64197500  1
  H  2921  1  0.09888400  0.15125200  0.65156400  1
  H  2922  1  0.10373600  0.14722100  0.62361100  1
  H  2924  1  0.14508100  0.12504100  0.66817000  1
  H  2925  1  0.16502800  0.14761000  0.66997100  1
  H  2926  1  0.13388600  0.15013100  0.67788300  1
  H  2928  1  0.13610800  0.17865000  0.62268900  1
  H  2929  1  0.12727700  0.18253500  0.64997200  1
  H  2930  1  0.15877400  0.18042000  0.64328900  1
  H  2932  1  0.18938000  0.10661600  0.58334700  1
  H  2943  1  0.85569600  0.59220200  0.34737200  1
  H  2944  1  0.84864000  0.58363600  0.37389700  1
  H  2945  1  0.85401900  0.61132400  0.36864400  1
  H  2947  1  0.89196700  0.56512800  0.34565100  1
  H  2948  1  0.91381270  0.56363000  0.36685300  1
  H  2949  1  0.88278200  0.55648300  0.37174400  1
  H  2951  1  0.88883500  0.61247600  0.39809400  1
  H  2952  1  0.87929600  0.58560200  0.40339700  1
  H  2953  1  0.91078770  0.59129000  0.39932500  1
  H  2955  1  0.93765670  0.64811900  0.32187100  1
  H  2966  1  0.35585900  0.42344200  0.10510600  1
  H  2967  1  0.34871000  0.43198000  0.07858000  1
  H  2968  1  0.35403600  0.40429400  0.08386000  1
  H  2970  1  0.39222100  0.45047700  0.10674200  1
  H  2971  1  0.41396400  0.45193000  0.08549900  1
  H  2972  1  0.38292800  0.45909800  0.08065600  1
  H  2974  1  0.38871200  0.40306400  0.05436700  1
  H  2975  1  0.37923600  0.42994500  0.04904000  1
  H  2976  1  0.41072700  0.42421400  0.05308100  1
  H  2978  1  0.43776700  0.36747300  0.13058100  1
  H  2989  1  0.98011470  0.89079600  0.64281400  1
  H  2990  1  0.98812270  0.86482300  0.65239300  1
  H  2991  1  0.98451270  0.86924700  0.62434700  1
  H  2993  1  0.94174970  0.89136600  0.66773400  1
  H  2994  1  0.92132470  0.86908500  0.66861300  1
  H  2995  1  0.95206070  0.86600200  0.67751700  1
  H  2997  1  0.95186070  0.83820600  0.62196200  1
  H  2998  1  0.95936570  0.83388900  0.64950100  1
  H  2999  1  0.92824670  0.83640600  0.64166900  1
  H  3001  1  0.90108070  0.91100000  0.58163100  1
  H  3012  1  0.48032900  0.12504000  0.80950000  1
  H  3013  1  0.48831700  0.15102400  0.79993000  1
  H  3014  1  0.48477400  0.14658700  0.82797600  1
  H  3016  1  0.44190600  0.12444400  0.78457200  1
  H  3017  1  0.42147800  0.14670300  0.78370000  1
  H  3018  1  0.45219000  0.14982300  0.77480000  1
  H  3020  1  0.45213000  0.17759700  0.83036600  1
  H  3021  1  0.45957200  0.18193000  0.80283100  1
  H  3022  1  0.42847000  0.17938100  0.81065300  1
  H  3024  1  0.40143200  0.10474200  0.87066000  1
  H  3035  1  0.73030900  0.59446600  0.10911100  1
  H  3036  1  0.73864000  0.58492400  0.08321900  1
  H  3037  1  0.73416600  0.61289800  0.08743100  1
  H  3039  1  0.69264600  0.56861200  0.10980600  1
  H  3040  1  0.67235100  0.56709500  0.08744600  1
  H  3041  1  0.70336200  0.55892200  0.08455200  1
  H  3043  1  0.70143300  0.61427600  0.05633200  1
  H  3044  1  0.70983100  0.58691900  0.05222100  1
  H  3045  1  0.67846400  0.59394300  0.05467100  1
  H  3047  1  0.64955100  0.65360500  0.12926100  1
  H  3058  1  0.23054100  0.42126300  0.34347200  1
  H  3059  1  0.23891600  0.43078900  0.36938000  1
  H  3060  1  0.23444300  0.40281600  0.36513600  1
  H  3062  1  0.19283900  0.44706700  0.34278000  1
  H  3063  1  0.17262600  0.44855300  0.36515900  1
  H  3064  1  0.20364800  0.45674700  0.36803400  1
  H  3066  1  0.20177300  0.40136500  0.39621200  1
  H  3067  1  0.21015400  0.42873200  0.40035600  1
  H  3068  1  0.17878700  0.42165700  0.39787600  1
  H  3070  1  0.14976600  0.36206600  0.32319200  1
  H  3121  1  0.21611700  0.04319200  0.89946200  1
  H  3122  1  0.24395600  0.02373200  0.92228200  1
  H  3123  1  0.26977000  0.09240900  0.89154000  1
  H  3124  1  0.29765600  0.07273800  0.91458900  1
  H  3125  1  0.30363700  0.02100900  0.89439400  1
  H  3126  1  0.33608200  0.99126900  0.89375900  1
  H  3127  1  0.32145300  0.00606900  0.95684900  1
  H  3128  1  0.32253800  0.00647100  0.99505200  1
  H  3129  1  0.25516600  0.06514400  0.95648700  1
  H  3130  1  0.25599400  0.06521400  0.99746500  1
  H  3131  1  0.25117700  0.02102000  0.03828300  1
  H  3132  1  0.22444200  0.04004600  0.06240200  1
  H  3133  1  0.29631500  0.07642100  0.03242800  1
  H  3134  1  0.26942700  0.09571300  0.05657300  1
  H  3135  1  0.30684900  0.02057200  0.05812600  1
  H  3136  1  0.33877400  0.99037300  0.05754900  1
  H  3137  1  0.38340800  0.94364300  0.95456700  1
  H  3138  1  0.38423000  0.94376900  0.99554500  1
  H  3139  1  0.39944200  0.98041500  0.03351800  1
  H  3140  1  0.41948400  0.95700700  0.05915900  1
  H  3141  1  0.33601400  0.94045300  0.03455900  1
  H  3142  1  0.35584400  0.91707700  0.06005700  1
  H  3143  1  0.33165000  0.94525900  0.91076700  1
  H  3144  1  0.35050400  0.92216400  0.88459600  1
  H  3145  1  0.41950100  0.95280900  0.89530800  1
  H  3146  1  0.40035000  0.97614100  0.92137800  1
  H  3151  1  0.38916200  0.91204400  0.08688400  1
  H  3152  1  0.20970600  0.07485200  0.07566400  1
  H  3153  1  0.20472800  0.07662200  0.88199700  1
  H  3154  1  0.38581500  0.91335400  0.86170300  1
  H  3203  1  0.71569300  0.97247900  0.55263800  1
  H  3204  1  0.74350900  0.99197000  0.52986600  1
  H  3205  1  0.76947600  0.92345900  0.56084300  1
  H  3206  1  0.79733700  0.94316800  0.53783400  1
  H  3207  1  0.80333600  0.99480100  0.55794200  1
  H  3208  1  0.83578500  0.02457100  0.55862000  1
  H  3209  1  0.82101700  0.00986400  0.49550800  1
  H  3210  1  0.82229000  0.00945400  0.45731300  1
  H  3211  1  0.75476900  0.95072100  0.49570300  1
  H  3212  1  0.75561700  0.95073400  0.45472500  1
  H  3213  1  0.75080600  0.99496300  0.41406800  1
  H  3214  1  0.72403500  0.97591000  0.38991300  1
  H  3215  1  0.79606300  0.93965000  0.41983300  1
  H  3216  1  0.76914600  0.92033500  0.39566200  1
  H  3217  1  0.80653300  0.99539100  0.39421600  1
  H  3218  1  0.83854200  0.02555600  0.39483800  1
  H  3219  1  0.88319100  0.07220800  0.49796100  1
  H  3220  1  0.88411500  0.07210000  0.45698000  1
  H  3221  1  0.89919300  0.03542800  0.41888200  1
  H  3222  1  0.91927810  0.05881300  0.39326800  1
  H  3223  1  0.83596200  0.07556100  0.41789900  1
  H  3224  1  0.85583300  0.09891300  0.39242700  1
  H  3225  1  0.83131000  0.07069600  0.54144600  1
  H  3226  1  0.85017900  0.09377300  0.56768900  1
  H  3227  1  0.91905910  0.06288900  0.55737800  1
  H  3228  1  0.89989500  0.03958400  0.53123600  1
  H  3233  1  0.88908800  0.10390600  0.36560000  1
  H  3234  1  0.70939300  0.94114400  0.37647800  1
  H  3235  1  0.70437200  0.93906600  0.57016800  1
  H  3236  1  0.88546800  0.10242000  0.59079200  1
  H  3285  1  0.97135210  0.17899100  0.67623900  1
  H  3286  1  0.99131609  0.20559500  0.69851800  1
  H  3287  1  0.03971200  0.16607900  0.64556600  1
  H  3288  1  0.05938700  0.19299900  0.66742100  1
  H  3289  1  0.05529400  0.17664600  0.71281400  1
  H  3290  1  0.08758900  0.17652100  0.74256300  1
  H  3291  1  0.07098300  0.23937700  0.72834200  1
  H  3292  1  0.07210000  0.27751600  0.72760100  1
  H  3293  1  0.00719600  0.23830600  0.66698800  1
  H  3294  1  0.00672800  0.27922100  0.66766800  1
  H  3295  1  0.99882809  0.31889600  0.71356700  1
  H  3296  1  0.97150910  0.34270400  0.69473500  1
  H  3297  1  0.04486000  0.31540700  0.65857800  1
  H  3298  1  0.01735200  0.33921100  0.63944900  1
  H  3299  1  0.05395000  0.34032900  0.71456300  1
  H  3300  1  0.08618200  0.34018700  0.74456300  1
  H  3301  1  0.13382300  0.23776300  0.79036500  1
  H  3302  1  0.13407100  0.27875800  0.79021300  1
  H  3303  1  0.14737100  0.31815700  0.75319700  1
  H  3304  1  0.16690700  0.34411200  0.77658500  1
  H  3305  1  0.08534600  0.31607500  0.79466400  1
  H  3306  1  0.10467200  0.34184900  0.81802300  1
  H  3307  1  0.08260100  0.19223100  0.78822700  1
  H  3308  1  0.10206800  0.16503800  0.80988400  1
  H  3309  1  0.17075200  0.17863700  0.78002100  1
  H  3310  1  0.15103600  0.20553300  0.75801400  1
  H  3315  1  0.13676700  0.36945300  0.82317700  1
  H  3316  1  0.95703310  0.35707100  0.66054400  1
  H  3317  1  0.00311200  0.13993300  0.64407800  1
  H  3318  1  0.13840200  0.13940600  0.81241300  1
  H  3367  1  0.47146100  0.83652800  0.77635500  1
  H  3368  1  0.49134700  0.80996200  0.75404000  1
  H  3369  1  0.53997600  0.84963400  0.80682900  1
  H  3370  1  0.55957200  0.82276100  0.78494000  1
  H  3371  1  0.55532300  0.83900800  0.73956400  1
  H  3372  1  0.58753500  0.83914900  0.70980700  1
  H  3373  1  0.57102700  0.77628600  0.72409400  1
  H  3374  1  0.57212400  0.73813400  0.72475300  1
  H  3375  1  0.50739800  0.77727600  0.78543300  1
  H  3376  1  0.50691200  0.73636400  0.78470100  1
  H  3377  1  0.49882400  0.69672500  0.73880200  1
  H  3378  1  0.47152100  0.67294200  0.75765500  1
  H  3379  1  0.54501900  0.70024100  0.79377800  1
  H  3380  1  0.51752400  0.67645500  0.81292800  1
  H  3381  1  0.55398900  0.67531400  0.73778700  1
  H  3382  1  0.58618500  0.67547300  0.70782500  1
  H  3383  1  0.63363500  0.77796000  0.66200500  1
  H  3384  1  0.63392300  0.73697100  0.66214800  1
  H  3385  1  0.64749600  0.69765300  0.69912400  1
  H  3386  1  0.66703700  0.67176700  0.67572100  1
  H  3387  1  0.58528900  0.69945900  0.65774600  1
  H  3388  1  0.60461600  0.67375500  0.63437600  1
  H  3389  1  0.58244000  0.82341100  0.66415700  1
  H  3390  1  0.60183200  0.85059500  0.64245700  1
  H  3391  1  0.67061700  0.83710400  0.67229500  1
  H  3392  1  0.65097400  0.81021500  0.69434700  1
  H  3397  1  0.63679600  0.64631500  0.62911700  1
  H  3398  1  0.45708600  0.65865500  0.79187400  1
  H  3399  1  0.50341700  0.87565100  0.80852700  1
  H  3400  1  0.63813100  0.87624600  0.63982700  1
  H  3449  1  0.67518400  0.83753000  0.27631200  1
  H  3450  1  0.65517300  0.81066700  0.25442900  1
  H  3451  1  0.60689000  0.85097800  0.30685900  1
  H  3452  1  0.58715300  0.82377400  0.28539100  1
  H  3453  1  0.59143700  0.83981200  0.23999500  1
  H  3454  1  0.55922900  0.83995800  0.21018100  1
  H  3455  1  0.57546600  0.77708700  0.22466800  1
  H  3456  1  0.57459100  0.73896600  0.22517700  1
  H  3457  1  0.63911700  0.77811300  0.28612300  1
  H  3458  1  0.63943600  0.73717500  0.28553400  1
  H  3459  1  0.64731800  0.69714200  0.24003200  1
  H  3460  1  0.67400300  0.67295200  0.25908800  1
  H  3461  1  0.60067500  0.70115300  0.29458900  1
  H  3462  1  0.62753400  0.67695100  0.31393400  1
  H  3463  1  0.59179700  0.67610100  0.23891000  1
  H  3464  1  0.55968200  0.67628200  0.20882000  1
  H  3465  1  0.51332000  0.77874700  0.16214100  1
  H  3466  1  0.51297300  0.73777700  0.16232500  1
  H  3467  1  0.49784400  0.70044400  0.19882500  1
  H  3468  1  0.47773000  0.67485000  0.17543100  1
  H  3469  1  0.56165300  0.69853400  0.15946000  1
  H  3470  1  0.54175600  0.67306500  0.13610100  1
  H  3471  1  0.56422200  0.82428800  0.16471900  1
  H  3472  1  0.54478300  0.85131200  0.14282400  1
  H  3473  1  0.47589400  0.83750700  0.17224100  1
  H  3474  1  0.49559100  0.81079300  0.19452400  1
  H  3479  1  0.50809800  0.64668800  0.13076300  1
  H  3480  1  0.68795500  0.65872000  0.29365900  1
  H  3481  1  0.64352700  0.87711200  0.30793000  1
  H  3482  1  0.50809100  0.87698100  0.14049700  1
  H  3531  1  0.17545800  0.17832900  0.17610800  1
  H  3532  1  0.15546400  0.20509500  0.19805700  1
  H  3533  1  0.10706600  0.16468600  0.14566700  1
  H  3534  1  0.08734600  0.19179000  0.16719800  1
  H  3535  1  0.09157600  0.17584500  0.21253900  1
  H  3536  1  0.05936600  0.17569900  0.24228900  1
  H  3537  1  0.07573300  0.23856500  0.22789000  1
  H  3538  1  0.07479500  0.27670800  0.22737200  1
  H  3539  1  0.13929500  0.23759900  0.16650100  1
  H  3540  1  0.13959200  0.27853100  0.16709700  1
  H  3541  1  0.14756900  0.31858800  0.21254100  1
  H  3542  1  0.17423600  0.34275000  0.19343800  1
  H  3543  1  0.10076800  0.31449300  0.15799700  1
  H  3544  1  0.12760200  0.33866500  0.13861100  1
  H  3545  1  0.09201200  0.33957100  0.21363500  1
  H  3546  1  0.05990600  0.33938800  0.24367300  1
  H  3547  1  0.01350000  0.23687800  0.29024700  1
  H  3548  1  0.01314500  0.27784700  0.29007300  1
  H  3549  1  0.99803709  0.31522600  0.25363700  1
  H  3550  1  0.97793210  0.34077100  0.27703000  1
  H  3551  1  0.06185400  0.31714900  0.29310600  1
  H  3552  1  0.04196700  0.34256500  0.31646300  1
  H  3553  1  0.06436700  0.19132600  0.28778500  1
  H  3554  1  0.04485400  0.16435300  0.30967400  1
  H  3555  1  0.97600010  0.17821300  0.28012400  1
  H  3556  1  0.99576909  0.20487800  0.25784700  1
  H  3561  1  0.00833000  0.36890400  0.32181500  1
  H  3562  1  0.18811900  0.35691400  0.15883200  1
  H  3563  1  0.14370700  0.13871800  0.14435200  1
  H  3564  1  0.00808700  0.13873600  0.31197300  1
  H  3613  1  0.72136000  0.55736400  0.39637000  1
  H  3614  1  0.74122400  0.53527000  0.42314300  1
  H  3615  1  0.78982400  0.58783200  0.38317000  1
  H  3616  1  0.80942300  0.56614600  0.41029000  1
  H  3617  1  0.80516600  0.52080900  0.39419700  1
  H  3618  1  0.83755600  0.49119300  0.39418000  1
  H  3619  1  0.82095200  0.50557300  0.45698500  1
  H  3620  1  0.82084400  0.50558900  0.49514600  1
  H  3621  1  0.75765000  0.56722000  0.45562600  1
  H  3622  1  0.75737100  0.56690100  0.49659400  1
  H  3623  1  0.74899600  0.52580200  0.54028200  1
  H  3624  1  0.72899900  0.54749900  0.56738900  1
  H  3625  1  0.80174200  0.57523600  0.53034400  1
  H  3626  1  0.78175700  0.59696200  0.55731000  1
  H  3627  1  0.80536500  0.52093900  0.55795500  1
  H  3628  1  0.83725200  0.49069100  0.55791200  1
  H  3629  1  0.88363000  0.44355300  0.45569600  1
  H  3630  1  0.88368400  0.44377000  0.49666200  1
  H  3631  1  0.89629000  0.48169000  0.53690000  1
  H  3632  1  0.91733510  0.45712800  0.56066100  1
  H  3633  1  0.83628500  0.43817600  0.53215500  1
  H  3634  1  0.85710800  0.41363900  0.55578600  1
  H  3635  1  0.83270800  0.44578700  0.40969600  1
  H  3636  1  0.85231700  0.42405400  0.38270500  1
  H  3637  1  0.92109710  0.45353300  0.39693900  1
  H  3638  1  0.90122410  0.47566100  0.42363500  1
  H  3643  1  0.89534000  0.40203600  0.57277500  1
  H  3644  1  0.75380400  0.58758900  0.59505600  1
  H  3645  1  0.75315800  0.58912800  0.35698600  1
  H  3646  1  0.88904700  0.42177400  0.35723500  1
  H  3695  1  0.22135800  0.45804300  0.05584300  1
  H  3696  1  0.24115500  0.48014700  0.02906300  1
  H  3697  1  0.28989600  0.42778500  0.06919200  1
  H  3698  1  0.30942800  0.44948000  0.04207200  1
  H  3699  1  0.30508300  0.49479600  0.05812900  1
  H  3700  1  0.33743800  0.52447300  0.05820000  1
  H  3701  1  0.32088700  0.51004700  0.99536500  1
  H  3702  1  0.32087700  0.51010800  0.95721500  1
  H  3703  1  0.25759200  0.44835400  0.99654500  1
  H  3704  1  0.25735500  0.44874900  0.95557500  1
  H  3705  1  0.24900200  0.48997600  0.91205400  1
  H  3706  1  0.22896500  0.46835700  0.88485100  1
  H  3707  1  0.30176100  0.44054800  0.92187300  1
  H  3708  1  0.28172900  0.41889300  0.89480900  1
  H  3709  1  0.30534700  0.49480600  0.89437800  1
  H  3710  1  0.33725200  0.52506800  0.89447500  1
  H  3711  1  0.38352300  0.57218400  0.99684700  1
  H  3712  1  0.38367300  0.57200400  0.95587800  1
  H  3713  1  0.39625900  0.53402500  0.91547900  1
  H  3714  1  0.41730700  0.55857400  0.89172900  1
  H  3715  1  0.33644800  0.57764400  0.92033600  1
  H  3716  1  0.35727400  0.60217200  0.89672000  1
  H  3717  1  0.33254600  0.56992800  0.04254500  1
  H  3718  1  0.35212600  0.59165000  0.06962700  1
  H  3719  1  0.42086300  0.56203800  0.05574500  1
  H  3720  1  0.40102000  0.53992600  0.02896600  1
  H  3725  1  0.39542300  0.61370800  0.87961900  1
  H  3726  1  0.25356700  0.42851000  0.85702400  1
  H  3727  1  0.25331000  0.42636200  0.09530200  1
  H  3728  1  0.38884100  0.59377300  0.09530500  1
  H  3737  1  0.26406600  0.12906500  0.14211200  1
  H  3738  1  0.27108200  0.15563500  0.15056700  1
  H  3739  1  0.26588800  0.15024900  0.12288000  1
  H  3741  1  0.22758300  0.12743300  0.16898700  1
  H  3742  1  0.20578400  0.14865300  0.17026100  1
  H  3743  1  0.23678300  0.15355700  0.17754000  1
  H  3745  1  0.23111100  0.17965300  0.12136300  1
  H  3746  1  0.24044400  0.18509300  0.14826900  1
  H  3747  1  0.20899500  0.18095500  0.14239900  1
  H  3749  1  0.18250700  0.10314200  0.08592300  1
  H  3760  1  0.76376600  0.88687400  0.31037300  1
  H  3761  1  0.77080000  0.86031200  0.30194000  1
  H  3762  1  0.76564100  0.86570600  0.32962000  1
  H  3764  1  0.72726300  0.88841900  0.28346200  1
  H  3765  1  0.70545400  0.86718400  0.28219700  1
  H  3766  1  0.73643700  0.86229500  0.27493500  1
  H  3768  1  0.73089200  0.83623600  0.33112400  1
  H  3769  1  0.74020900  0.83079700  0.30423400  1
  H  3770  1  0.70876000  0.83487600  0.31005700  1
  H  3772  1  0.68223800  0.91266300  0.36648100  1
  H  3783  1  0.01044800  0.42318400  0.60564700  1
  H  3784  1  0.01666500  0.43207800  0.57906700  1
  H  3785  1  0.01142800  0.40433400  0.58409800  1
  H  3787  1  0.97393210  0.45016100  0.60866500  1
  H  3788  1  0.95186710  0.45215200  0.58764800  1
  H  3789  1  0.98287910  0.45921500  0.58265200  1
  H  3791  1  0.97579410  0.40364900  0.55544100  1
  H  3792  1  0.98489110  0.43067800  0.55031500  1
  H  3793  1  0.95360410  0.42467300  0.55517900  1
  H  3795  1  0.92906210  0.36814600  0.63364800  1
  H  3806  1  0.51045200  0.59247700  0.84680600  1
  H  3807  1  0.51671300  0.58359500  0.87339300  1
  H  3808  1  0.51153400  0.61134200  0.86834300  1
  H  3810  1  0.47386000  0.56553200  0.84380200  1
  H  3811  1  0.45184200  0.56357500  0.86481800  1
  H  3812  1  0.48284900  0.55648700  0.86982200  1
  H  3814  1  0.47596800  0.61207800  0.89699300  1
  H  3815  1  0.48501800  0.58504700  0.90214100  1
  H  3816  1  0.45373200  0.59106900  0.89727000  1
  H  3818  1  0.42914600  0.64757100  0.81875200  1
  H  3829  1  0.88934800  0.12526200  0.31312800  1
  H  3830  1  0.88103000  0.15114300  0.30350100  1
  H  3831  1  0.88566900  0.14701300  0.33147800  1
  H  3833  1  0.92684210  0.12438300  0.28715300  1
  H  3834  1  0.94719410  0.14667800  0.28547600  1
  H  3835  1  0.91614310  0.14963500  0.27739000  1
  H  3837  1  0.91849710  0.17803000  0.33261700  1
  H  3838  1  0.90993610  0.18206900  0.30526800  1
  H  3839  1  0.94134210  0.17956100  0.31219900  1
  H  3841  1  0.97043710  0.10508700  0.37208000  1
  H  3852  1  0.38942900  0.89062800  0.13926000  1
  H  3853  1  0.38103200  0.86475800  0.14887200  1
  H  3854  1  0.38563500  0.86889000  0.12089900  1
  H  3856  1  0.42696900  0.89143100  0.16526000  1
  H  3857  1  0.44724800  0.86910500  0.16693900  1
  H  3858  1  0.41620200  0.86619300  0.17500600  1
  H  3860  1  0.41834300  0.83781400  0.11977200  1
  H  3861  1  0.40982000  0.83378100  0.14711300  1
  H  3862  1  0.44122300  0.83623500  0.14020000  1
  H  3864  1  0.47048300  0.91066500  0.08035400  1
  H  3875  1  0.13398800  0.42059700  0.84708600  1
  H  3876  1  0.12622500  0.42820500  0.87374600  1
  H  3877  1  0.13287400  0.40087800  0.86786100  1
  H  3879  1  0.16956700  0.44892000  0.84643900  1
  H  3880  1  0.19038500  0.45071100  0.86844200  1
  H  3881  1  0.15885100  0.45654000  0.87239500  1
  H  3883  1  0.16741100  0.40012400  0.89759800  1
  H  3884  1  0.15673200  0.42652600  0.90351100  1
  H  3885  1  0.18849100  0.42195800  0.89949800  1
  H  3887  1  0.21839900  0.36817400  0.82077900  1
  H  3898  1  0.63403200  0.59505600  0.60521600  1
  H  3899  1  0.62621000  0.58742200  0.57855800  1
  H  3900  1  0.63284100  0.61476600  0.58443400  1
  H  3902  1  0.66965200  0.56680500  0.60587600  1
  H  3903  1  0.69040900  0.56504200  0.58387200  1
  H  3904  1  0.65887100  0.55915300  0.57992400  1
  H  3906  1  0.66729700  0.61557600  0.55469900  1
  H  3907  1  0.65663600  0.58914800  0.54879600  1
  H  3908  1  0.68839800  0.59378200  0.55280600  1
  H  3910  1  0.71843300  0.64762000  0.63154500  1
  H  3921  1  0.38517900  0.89026700  0.81043800  1
  H  3922  1  0.37631900  0.86450200  0.80086600  1
  H  3923  1  0.38121600  0.86855700  0.82881900  1
  H  3925  1  0.42257300  0.89066300  0.78428300  1
  H  3926  1  0.44243500  0.86805600  0.78251100  1
  H  3927  1  0.41127000  0.86558600  0.77458300  1
  H  3929  1  0.41351300  0.83710900  0.82980800  1
  H  3930  1  0.40465100  0.83320200  0.80251400  1
  H  3931  1  0.43615900  0.83530400  0.80924100  1
  H  3933  1  0.46699300  0.90914300  0.86912800  1
  H  3944  1  0.88492200  0.12549100  0.64197500  1
  H  3945  1  0.87613300  0.15125200  0.65156400  1
  H  3946  1  0.88098500  0.14722100  0.62361100  1
  H  3948  1  0.92233010  0.12504100  0.66817000  1
  H  3949  1  0.94227710  0.14761000  0.66997100  1
  H  3950  1  0.91113510  0.15013100  0.67788300  1
  H  3952  1  0.91335710  0.17865000  0.62268900  1
  H  3953  1  0.90452610  0.18253500  0.64997200  1
  H  3954  1  0.93602310  0.18042000  0.64328900  1
  H  3956  1  0.96662910  0.10661600  0.58334700  1
  H  3967  1  0.63294500  0.59220200  0.34737200  1
  H  3968  1  0.62588900  0.58363600  0.37389700  1
  H  3969  1  0.63126800  0.61132400  0.36864400  1
  H  3971  1  0.66921600  0.56512800  0.34565100  1
  H  3972  1  0.69106200  0.56363000  0.36685300  1
  H  3973  1  0.66003100  0.55648300  0.37174400  1
  H  3975  1  0.66608400  0.61247600  0.39809400  1
  H  3976  1  0.65654500  0.58560200  0.40339700  1
  H  3977  1  0.68803700  0.59129000  0.39932500  1
  H  3979  1  0.71490600  0.64811900  0.32187100  1
  H  3990  1  0.13310800  0.42344200  0.10510600  1
  H  3991  1  0.12595900  0.43198000  0.07858000  1
  H  3992  1  0.13128500  0.40429400  0.08386000  1
  H  3994  1  0.16947000  0.45047700  0.10674200  1
  H  3995  1  0.19121300  0.45193000  0.08549900  1
  H  3996  1  0.16017700  0.45909800  0.08065600  1
  H  3998  1  0.16596100  0.40306400  0.05436700  1
  H  3999  1  0.15648500  0.42994500  0.04904000  1
  H  4000  1  0.18797600  0.42421400  0.05308100  1
  H  4002  1  0.21501600  0.36747300  0.13058100  1
  H  4013  1  0.75736400  0.89079600  0.64281400  1
  H  4014  1  0.76537200  0.86482300  0.65239300  1
  H  4015  1  0.76176200  0.86924700  0.62434700  1
  H  4017  1  0.71899900  0.89136600  0.66773400  1
  H  4018  1  0.69857400  0.86908500  0.66861300  1
  H  4019  1  0.72931000  0.86600200  0.67751700  1
  H  4021  1  0.72911000  0.83820600  0.62196200  1
  H  4022  1  0.73661500  0.83388900  0.64950100  1
  H  4023  1  0.70549600  0.83640600  0.64166900  1
  H  4025  1  0.67833000  0.91100000  0.58163100  1
  H  4036  1  0.25757800  0.12504000  0.80950000  1
  H  4037  1  0.26556600  0.15102400  0.79993000  1
  H  4038  1  0.26202300  0.14658700  0.82797600  1
  H  4040  1  0.21915500  0.12444400  0.78457200  1
  H  4041  1  0.19872700  0.14670300  0.78370000  1
  H  4042  1  0.22943900  0.14982300  0.77480000  1
  H  4044  1  0.22937900  0.17759700  0.83036600  1
  H  4045  1  0.23682100  0.18193000  0.80283100  1
  H  4046  1  0.20571900  0.17938100  0.81065300  1
  H  4048  1  0.17868100  0.10474200  0.87066000  1
  H  4059  1  0.50755800  0.59446600  0.10911100  1
  H  4060  1  0.51588900  0.58492400  0.08321900  1
  H  4061  1  0.51141500  0.61289800  0.08743100  1
  H  4063  1  0.46989500  0.56861200  0.10980600  1
  H  4064  1  0.44960000  0.56709500  0.08744600  1
  H  4065  1  0.48061100  0.55892200  0.08455200  1
  H  4067  1  0.47868200  0.61427600  0.05633200  1
  H  4068  1  0.48708000  0.58691900  0.05222100  1
  H  4069  1  0.45571300  0.59394300  0.05467100  1
  H  4071  1  0.42680000  0.65360500  0.12926100  1
  H  4082  1  0.00779000  0.42126300  0.34347200  1
  H  4083  1  0.01616500  0.43078900  0.36938000  1
  H  4084  1  0.01169200  0.40281600  0.36513600  1
  H  4086  1  0.97008810  0.44706700  0.34278000  1
  H  4087  1  0.94987510  0.44855300  0.36515900  1
  H  4088  1  0.98089710  0.45674700  0.36803400  1
  H  4090  1  0.97902210  0.40136500  0.39621200  1
  H  4091  1  0.98740310  0.42873200  0.40035600  1
  H  4092  1  0.95603610  0.42165700  0.39787600  1
  H  4094  1  0.92701510  0.36206600  0.32319200  1
  C  1  1  0.97964700  0.01423300  0.90790200  1
  C  2  1  0.99734400  0.99800900  0.90757400  1
  C  3  1  0.00349200  0.99265800  0.92890500  1
  C  5  1  0.97459400  0.01946500  0.92944200  1
  C  6  1  0.95710500  0.03541100  0.93629200  1
  C  7  1  0.95229100  0.04060300  0.95837300  1
  C  9  1  0.95319200  0.04080900  0.99485200  1
  C  10  1  0.93544400  0.05581100  0.98800600  1
  C  11  1  0.93496100  0.05574600  0.96567000  1
  C  12  1  0.95902800  0.03573600  0.01678900  1
  C  13  1  0.97654400  0.01951900  0.02299900  1
  C  15  1  0.00517500  0.99253100  0.02247600  1
  C  16  1  0.99973700  0.99749900  0.04402100  1
  C  17  1  0.98231700  0.01394800  0.04433900  1
  C  18  1  0.02212500  0.97614100  0.01561900  1
  C  19  1  0.02721800  0.97114600  0.99354800  1
  C  21  1  0.02665800  0.97117900  0.95704800  1
  C  22  1  0.04234900  0.95454900  0.96396800  1
  C  23  1  0.04278100  0.95459100  0.98631000  1
  C  24  1  0.02084000  0.97625900  0.93509800  1
  C  25  1  0.03225600  0.96325500  0.91846400  1
  C  26  1  0.05786900  0.96490600  0.91356300  1
  C  27  1  0.06917500  0.95102300  0.89828500  1
  C  28  1  0.05531700  0.93496900  0.88717600  1
  C  29  1  0.02963900  0.93353800  0.89206800  1
  C  30  1  0.01839200  0.94722600  0.90746900  1
  C  31  1  0.03388400  0.96290900  0.03181300  1
  C  32  1  0.05829600  0.96715600  0.03915600  1
  C  33  1  0.07014600  0.95324700  0.05412200  1
  C  34  1  0.05806200  0.93453900  0.06223000  1
  C  35  1  0.03361100  0.93042200  0.05474600  1
  C  36  1  0.02179400  0.94423300  0.03976700  1
  C  37  1  0.94500600  0.04664800  0.03336400  1
  C  38  1  0.92393700  0.03656000  0.04251800  1
  C  39  1  0.90808800  0.04791900  0.05667100  1
  C  40  1  0.91251900  0.06984700  0.06231100  1
  C  41  1  0.93393700  0.07977900  0.05340800  1
  C  42  1  0.94983000  0.06842100  0.03917500  1
  C  43  1  0.94203600  0.04604600  0.92025000  1
  C  44  1  0.91816300  0.03789700  0.91540000  1
  C  45  1  0.94900300  0.06608200  0.91094600  1
  C  46  1  0.93250000  0.07767500  0.89740000  1
  C  47  1  0.90831600  0.06979700  0.89283200  1
  C  48  1  0.90170700  0.04953300  0.90199900  1
  C  75  1  0.06880800  0.92066200  0.07756500  1
  C  76  1  0.89500700  0.08101200  0.07490400  1
  C  77  1  0.89055400  0.08145500  0.88091200  1
  C  78  1  0.06566500  0.92101700  0.87165800  1
  C  83  1  0.47934400  0.00158000  0.54444700  1
  C  84  1  0.49705600  0.01780600  0.54479500  1
  C  85  1  0.50315400  0.02318800  0.52347100  1
  C  87  1  0.47425600  0.99636200  0.52289900  1
  C  88  1  0.45672700  0.98042900  0.51602200  1
  C  89  1  0.45191600  0.97527500  0.49392400  1
  C  91  1  0.45284200  0.97514500  0.45745400  1
  C  92  1  0.43506800  0.96012700  0.46422900  1
  C  93  1  0.43456000  0.96015500  0.48656300  1
  C  94  1  0.45869800  0.98025700  0.43554200  1
  C  95  1  0.47625800  0.99644400  0.42934800  1
  C  97  1  0.50495100  0.02340400  0.42990800  1
  C  98  1  0.49949300  0.01843900  0.40835300  1
  C  99  1  0.48204100  0.00199900  0.40801300  1
  C  100  1  0.52193900  0.03978200  0.43678700  1
  C  101  1  0.52695100  0.04480200  0.45887600  1
  C  103  1  0.52629600  0.04475000  0.49536700  1
  C  104  1  0.54203100  0.06138200  0.48851500  1
  C  105  1  0.54252300  0.06134900  0.46617600  1
  C  106  1  0.52046700  0.03961800  0.51729200  1
  C  107  1  0.53187000  0.05261100  0.53394800  1
  C  108  1  0.55744800  0.05086500  0.53898100  1
  C  109  1  0.56875800  0.06473100  0.55429600  1
  C  110  1  0.55492700  0.08084200  0.56529600  1
  C  111  1  0.52928100  0.08235900  0.56028000  1
  C  112  1  0.51802600  0.06868100  0.54484900  1
  C  113  1  0.53372600  0.05302200  0.42062200  1
  C  114  1  0.55809700  0.04872400  0.41326900  1
  C  115  1  0.56997400  0.06261800  0.39831500  1
  C  116  1  0.55796000  0.08136500  0.39022100  1
  C  117  1  0.53355200  0.08553700  0.39771800  1
  C  118  1  0.52171100  0.07174200  0.41268900  1
  C  119  1  0.44466700  0.96936600  0.41894200  1
  C  120  1  0.42356300  0.97943400  0.40981600  1
  C  121  1  0.40770300  0.96806300  0.39564600  1
  C  122  1  0.41216600  0.94615500  0.38998800  1
  C  123  1  0.43365000  0.93626200  0.39883300  1
  C  124  1  0.44955400  0.94762800  0.41308700  1
  C  125  1  0.44165800  0.96977300  0.53203300  1
  C  126  1  0.41774400  0.97784200  0.53678700  1
  C  127  1  0.44864900  0.94976700  0.54139300  1
  C  128  1  0.43216300  0.93814900  0.55492100  1
  C  129  1  0.40795400  0.94596400  0.55940700  1
  C  130  1  0.40129900  0.96618000  0.55016200  1
  C  157  1  0.56872600  0.09522900  0.37488800  1
  C  158  1  0.39467800  0.93497500  0.37735800  1
  C  159  1  0.39020800  0.93428700  0.57131800  1
  C  160  1  0.56529200  0.09476800  0.58083800  1
  C  165  1  0.73085000  0.19031500  0.71962800  1
  C  166  1  0.74843100  0.19024700  0.73595500  1
  C  167  1  0.75386000  0.21165300  0.74153300  1
  C  169  1  0.72518500  0.21176800  0.71442800  1
  C  170  1  0.70776700  0.21827200  0.69817800  1
  C  171  1  0.70229700  0.24031300  0.69326700  1
  C  173  1  0.70230100  0.27681200  0.69353100  1
  C  174  1  0.68558700  0.26984500  0.67769000  1
  C  175  1  0.68582300  0.24751400  0.67733800  1
  C  176  1  0.70753200  0.29878900  0.69889400  1
  C  177  1  0.72484100  0.30524000  0.71519700  1
  C  179  1  0.75375600  0.30511400  0.74198900  1
  C  180  1  0.74752800  0.32657000  0.73732500  1
  C  181  1  0.72992600  0.32664700  0.72099800  1
  C  182  1  0.77109900  0.29850700  0.75819800  1
  C  183  1  0.77661600  0.27649800  0.76314000  1
  C  185  1  0.77658600  0.24000800  0.76310400  1
  C  186  1  0.79237200  0.24707600  0.77961900  1
  C  187  1  0.79251500  0.26942000  0.77955200  1
  C  188  1  0.77110300  0.21801400  0.75798100  1
  C  189  1  0.78304400  0.20144900  0.77076600  1
  C  190  1  0.80878100  0.19712900  0.76897300  1
  C  191  1  0.82044100  0.18136900  0.78209200  1
  C  192  1  0.80677800  0.16910500  0.79737300  1
  C  193  1  0.78103000  0.17349900  0.79910600  1
  C  194  1  0.76945800  0.18947700  0.78626800  1
  C  195  1  0.78255200  0.31483400  0.77147500  1
  C  196  1  0.80641500  0.32318300  0.76678200  1
  C  197  1  0.81797500  0.33834300  0.78067300  1
  C  198  1  0.80614700  0.34565800  0.79981200  1
  C  199  1  0.78225000  0.33715800  0.80436500  1
  C  200  1  0.77072100  0.32200000  0.79056700  1
  C  201  1  0.69309900  0.31517800  0.68811200  1
  C  202  1  0.67159400  0.32353400  0.69814600  1
  C  203  1  0.65542500  0.33752200  0.68690500  1
  C  204  1  0.65991300  0.34370400  0.66513500  1
  C  205  1  0.68177400  0.33561100  0.65527300  1
  C  206  1  0.69803100  0.32158300  0.66653000  1
  C  207  1  0.69565500  0.20183200  0.68534300  1
  C  208  1  0.66994800  0.19739500  0.68733100  1
  C  209  1  0.70906700  0.19016400  0.66952000  1
  C  210  1  0.69737400  0.17435700  0.65656000  1
  C  211  1  0.67165800  0.16990000  0.65845700  1
  C  212  1  0.65814200  0.18183400  0.67406200  1
  C  239  1  0.81656600  0.36112000  0.81376000  1
  C  240  1  0.64217800  0.35619900  0.65411100  1
  C  241  1  0.66117000  0.15317500  0.64620600  1
  C  242  1  0.81723300  0.15228400  0.80956900  1
  C  247  1  0.23086500  0.82534300  0.73276000  1
  C  248  1  0.24839700  0.82542000  0.71642500  1
  C  249  1  0.25383000  0.80401800  0.71086400  1
  C  251  1  0.22522400  0.80388800  0.73798300  1
  C  252  1  0.20785300  0.79738400  0.75424900  1
  C  253  1  0.20239900  0.77532700  0.75913300  1
  C  255  1  0.20238800  0.73881600  0.75881700  1
  C  256  1  0.18572400  0.74575800  0.77467100  1
  C  257  1  0.18597700  0.76809000  0.77505700  1
  C  258  1  0.20759100  0.71684200  0.75343900  1
  C  259  1  0.22488400  0.71040600  0.73715300  1
  C  261  1  0.25377800  0.71054400  0.71038400  1
  C  262  1  0.24754300  0.68908500  0.71504800  1
  C  263  1  0.22995900  0.68900200  0.73135700  1
  C  264  1  0.27111200  0.71715100  0.69418900  1
  C  265  1  0.27661200  0.73917600  0.68927300  1
  C  267  1  0.27652700  0.77567600  0.68930400  1
  C  268  1  0.29225900  0.76863100  0.67277900  1
  C  269  1  0.29245900  0.74628600  0.67286400  1
  C  270  1  0.27104000  0.79766700  0.69442100  1
  C  271  1  0.28293700  0.81424400  0.68162000  1
  C  272  1  0.30868100  0.81859900  0.68338900  1
  C  273  1  0.32029600  0.83435900  0.67024600  1
  C  274  1  0.30658700  0.84658600  0.65494900  1
  C  275  1  0.28083200  0.84216100  0.65324100  1
  C  276  1  0.26930200  0.82618800  0.66610900  1
  C  277  1  0.28256500  0.70082900  0.68091600  1
  C  278  1  0.30649100  0.69257600  0.68556000  1
  C  279  1  0.31805900  0.67745400  0.67165500  1
  C  280  1  0.30618600  0.67006900  0.65253600  1
  C  281  1  0.28223500  0.67848600  0.64802100  1
  C  282  1  0.27070200  0.69360500  0.66182900  1
  C  283  1  0.19319600  0.70043500  0.76423700  1
  C  284  1  0.17165400  0.69206700  0.75421100  1
  C  285  1  0.15547500  0.67811100  0.76547300  1
  C  286  1  0.16000600  0.67194800  0.78725100  1
  C  287  1  0.18191000  0.68004800  0.79710300  1
  C  288  1  0.19818400  0.69403300  0.78581900  1
  C  289  1  0.19576700  0.81381800  0.76709800  1
  C  290  1  0.17003500  0.81819500  0.76519200  1
  C  291  1  0.20923600  0.82554600  0.78288000  1
  C  292  1  0.19758400  0.84132800  0.79586900  1
  C  293  1  0.17184300  0.84572400  0.79405400  1
  C  294  1  0.15827000  0.83373700  0.77848600  1
  C  321  1  0.31660900  0.65464200  0.63855700  1
  C  322  1  0.14225800  0.65949000  0.79829600  1
  C  323  1  0.16140400  0.86244800  0.80633700  1
  C  324  1  0.31699700  0.86340600  0.64271900  1
  C  329  1  0.25234200  0.82614500  0.23321300  1
  C  330  1  0.23480900  0.82622700  0.21684800  1
  C  331  1  0.22929100  0.80482400  0.21133100  1
  C  333  1  0.25788300  0.80468700  0.23850200  1
  C  334  1  0.27519600  0.79816800  0.25483200  1
  C  335  1  0.28059200  0.77612000  0.25979300  1
  C  337  1  0.28048400  0.73961000  0.25959000  1
  C  338  1  0.29716300  0.74656700  0.27546300  1
  C  339  1  0.29700300  0.76890400  0.27576300  1
  C  340  1  0.27515500  0.71763400  0.25428500  1
  C  341  1  0.25786800  0.71120800  0.23795400  1
  C  343  1  0.22907400  0.71136800  0.21105800  1
  C  344  1  0.23501200  0.68989600  0.21593300  1
  C  345  1  0.25255000  0.68979900  0.23231100  1
  C  346  1  0.21183600  0.71799500  0.19477100  1
  C  347  1  0.20642500  0.74000800  0.18976800  1
  C  349  1  0.20656300  0.77648500  0.18975200  1
  C  350  1  0.19096100  0.76943500  0.17309800  1
  C  351  1  0.19076600  0.74709600  0.17318600  1
  C  352  1  0.21208100  0.79847200  0.19485600  1
  C  353  1  0.20018500  0.81502100  0.18202400  1
  C  354  1  0.17439900  0.81921700  0.18361600  1
  C  355  1  0.16275100  0.83484500  0.17033100  1
  C  356  1  0.17649700  0.84708700  0.15509900  1
  C  357  1  0.20229000  0.84284500  0.15357200  1
  C  358  1  0.21384100  0.82698000  0.16655900  1
  C  359  1  0.20012300  0.70168300  0.18164900  1
  C  360  1  0.17558000  0.69460100  0.18571700  1
  C  361  1  0.16368300  0.67966400  0.17180900  1
  C  362  1  0.17584700  0.67132000  0.15326700  1
  C  363  1  0.20043300  0.67853200  0.14933300  1
  C  364  1  0.21229700  0.69348600  0.16314400  1
  C  365  1  0.28932000  0.70118500  0.26525600  1
  C  366  1  0.31079200  0.69254400  0.25540300  1
  C  367  1  0.32659200  0.67833700  0.26677800  1
  C  368  1  0.32170600  0.67215300  0.28848000  1
  C  369  1  0.29989200  0.68055400  0.29816300  1
  C  370  1  0.28402100  0.69481800  0.28678100  1
  C  371  1  0.28736600  0.81462500  0.26760000  1
  C  372  1  0.31307700  0.81899600  0.26554200  1
  C  373  1  0.27398900  0.82652900  0.28327200  1
  C  374  1  0.28571700  0.84251100  0.29599900  1
  C  375  1  0.31143600  0.84692300  0.29401300  1
  C  376  1  0.32491200  0.83472200  0.27858700  1
  C  403  1  0.16500800  0.65606600  0.13935200  1
  C  404  1  0.33910300  0.65944900  0.29968100  1
  C  405  1  0.32197900  0.86386200  0.30594700  1
  C  406  1  0.16607200  0.86380000  0.14278000  1
  C  411  1  0.75249600  0.18951200  0.21930400  1
  C  412  1  0.73495400  0.18943100  0.23562900  1
  C  413  1  0.72948000  0.21083100  0.24115500  1
  C  415  1  0.75808100  0.21096700  0.21403100  1
  C  416  1  0.77542800  0.21747900  0.19774500  1
  C  417  1  0.78081900  0.23954100  0.19281400  1
  C  419  1  0.78067900  0.27606300  0.19301800  1
  C  420  1  0.79734100  0.26912600  0.17716200  1
  C  421  1  0.79719800  0.24678800  0.17685900  1
  C  422  1  0.77535600  0.29804000  0.19830900  1
  C  423  1  0.75807800  0.30446400  0.21461300  1
  C  425  1  0.72928900  0.30430300  0.24147000  1
  C  426  1  0.73523400  0.32577400  0.23658700  1
  C  427  1  0.75276900  0.32587200  0.22023700  1
  C  428  1  0.71204000  0.29768300  0.25772900  1
  C  429  1  0.70668900  0.27565500  0.26274700  1
  C  431  1  0.70682800  0.23916600  0.26274500  1
  C  432  1  0.69123700  0.24620300  0.27937600  1
  C  433  1  0.69104400  0.26854100  0.27930200  1
  C  434  1  0.71228900  0.21717900  0.25761300  1
  C  435  1  0.70035700  0.20062500  0.27041500  1
  C  436  1  0.67455900  0.19644900  0.26877800  1
  C  437  1  0.66286400  0.18085200  0.28206300  1
  C  438  1  0.67656900  0.16861900  0.29734900  1
  C  439  1  0.70237900  0.17282300  0.29890000  1
  C  440  1  0.71397800  0.18865800  0.28591500  1
  C  441  1  0.70033100  0.31398900  0.27085100  1
  C  442  1  0.67578200  0.32106100  0.26676500  1
  C  443  1  0.66388700  0.33597100  0.28067500  1
  C  444  1  0.67604600  0.34431200  0.29925300  1
  C  445  1  0.70063900  0.33711300  0.30320500  1
  C  446  1  0.71249700  0.32218200  0.28939600  1
  C  447  1  0.78950200  0.31449600  0.18732600  1
  C  448  1  0.81101200  0.32315300  0.19715800  1
  C  449  1  0.82680100  0.33734200  0.18575700  1
  C  450  1  0.82186600  0.34349200  0.16404300  1
  C  451  1  0.79998600  0.33510800  0.15439400  1
  C  452  1  0.78413400  0.32085300  0.16579800  1
  C  453  1  0.78759200  0.20102600  0.18497700  1
  C  454  1  0.81333300  0.19673300  0.18696500  1
  C  455  1  0.77419700  0.18908600  0.16930200  1
  C  456  1  0.78592000  0.17316300  0.15652700  1
  C  457  1  0.81166200  0.16881900  0.15845900  1
  C  458  1  0.82516300  0.18105900  0.17387800  1
  C  485  1  0.66522000  0.35956000  0.31317800  1
  C  486  1  0.83924800  0.35618500  0.15281800  1
  C  487  1  0.82220300  0.15193700  0.14644400  1
  C  488  1  0.66610000  0.15192300  0.30966500  1
  C  493  1  0.48073400  0.51405200  0.40789500  1
  C  494  1  0.49837400  0.49780000  0.40788200  1
  C  495  1  0.50382200  0.49228700  0.42930500  1
  C  497  1  0.47505700  0.51929300  0.42933000  1
  C  498  1  0.45764400  0.53554000  0.43577800  1
  C  499  1  0.45211600  0.54051300  0.45779400  1
  C  501  1  0.45221400  0.54053000  0.49430400  1
  C  502  1  0.43584400  0.55657600  0.48724800  1
  C  503  1  0.43595900  0.55670000  0.46490500  1
  C  504  1  0.45770100  0.53552900  0.51632100  1
  C  505  1  0.47493900  0.51919600  0.52284700  1
  C  507  1  0.50359400  0.49220400  0.52282100  1
  C  508  1  0.49810100  0.49750100  0.54426900  1
  C  509  1  0.48074500  0.51401000  0.54428400  1
  C  510  1  0.52071600  0.47583500  0.51626800  1
  C  511  1  0.52620900  0.47079600  0.49426800  1
  C  513  1  0.52643500  0.47081600  0.45776100  1
  C  514  1  0.54212800  0.45430100  0.46493500  1
  C  515  1  0.54212800  0.45438600  0.48727600  1
  C  516  1  0.52111100  0.47590800  0.43572100  1
  C  517  1  0.53316200  0.46311800  0.41921900  1
  C  518  1  0.55897500  0.46476200  0.41513500  1
  C  519  1  0.57073100  0.45157000  0.39950700  1
  C  520  1  0.55708700  0.43635600  0.38713100  1
  C  521  1  0.53126900  0.43477400  0.39126400  1
  C  522  1  0.51961100  0.44767200  0.40711900  1
  C  523  1  0.53221400  0.46258500  0.53260900  1
  C  524  1  0.55583600  0.46762200  0.54129100  1
  C  525  1  0.56823100  0.45308200  0.55530000  1
  C  526  1  0.55763500  0.43284200  0.56098600  1
  C  527  1  0.53378600  0.42812500  0.55241900  1
  C  528  1  0.52131900  0.44264600  0.53855400  1
  C  529  1  0.44566700  0.54833000  0.53273400  1
  C  530  1  0.42418500  0.54087300  0.54360700  1
  C  531  1  0.41222100  0.55377100  0.55935300  1
  C  532  1  0.42115400  0.57468000  0.56457300  1
  C  533  1  0.44260800  0.58212500  0.55365500  1
  C  534  1  0.45452900  0.56926600  0.53790400  1
  C  535  1  0.44561500  0.54835200  0.41927400  1
  C  536  1  0.41990100  0.54638600  0.41486400  1
  C  537  1  0.45909000  0.56407000  0.40747700  1
  C  538  1  0.44744600  0.57692800  0.39155200  1
  C  539  1  0.42172000  0.57503300  0.38710500  1
  C  540  1  0.40815200  0.55955000  0.39918800  1
  C  567  1  0.57001100  0.41713500  0.57342500  1
  C  568  1  0.41158600  0.58649700  0.58186000  1
  C  569  1  0.41123400  0.58711900  0.37024700  1
  C  570  1  0.56759800  0.42411800  0.37039300  1
  C  575  1  0.98064300  0.50156200  0.04444400  1
  C  576  1  0.99826300  0.51784900  0.04448500  1
  C  577  1  0.00370900  0.52335800  0.02306700  1
  C  579  1  0.97498000  0.49630200  0.02300000  1
  C  580  1  0.95759000  0.48002000  0.01652400  1
  C  581  1  0.95207800  0.47507500  0.99448900  1
  C  583  1  0.95220200  0.47514200  0.95798500  1
  C  584  1  0.93580600  0.45907600  0.96496700  1
  C  585  1  0.93592300  0.45888900  0.98731000  1
  C  586  1  0.95771800  0.48018500  0.93599400  1
  C  587  1  0.97495200  0.49653000  0.92949100  1
  C  589  1  0.00362500  0.52353100  0.92956300  1
  C  590  1  0.99810900  0.51824800  0.90810500  1
  C  591  1  0.98074100  0.50173100  0.90806200  1
  C  592  1  0.02076400  0.53990600  0.93614300  1
  C  593  1  0.02622300  0.54493100  0.95816100  1
  C  595  1  0.02634800  0.54488400  0.99466200  1
  C  596  1  0.04205500  0.56142700  0.98756100  1
  C  597  1  0.04213900  0.56134100  0.96521900  1
  C  598  1  0.02097800  0.53976000  0.01667400  1
  C  599  1  0.03299300  0.55255200  0.03320500  1
  C  600  1  0.05878000  0.55084900  0.03741000  1
  C  601  1  0.07051200  0.56402300  0.05309000  1
  C  602  1  0.05686100  0.57926700  0.06537400  1
  C  603  1  0.03106800  0.58090400  0.06112400  1
  C  604  1  0.01943300  0.56802200  0.04521700  1
  C  605  1  0.03226900  0.55317600  0.91982900  1
  C  606  1  0.05583400  0.54810700  0.91110800  1
  C  607  1  0.06824700  0.56265400  0.89712200  1
  C  608  1  0.05771300  0.58292200  0.89146400  1
  C  609  1  0.03391600  0.58767200  0.90006800  1
  C  610  1  0.02145300  0.57315900  0.91393600  1
  C  611  1  0.94566500  0.46742700  0.91954700  1
  C  612  1  0.92417400  0.47491900  0.90868800  1
  C  613  1  0.91220100  0.46207500  0.89287800  1
  C  614  1  0.92114000  0.44119900  0.88760200  1
  C  615  1  0.94260100  0.43371600  0.89850700  1
  C  616  1  0.95453100  0.44652200  0.91432100  1
  C  617  1  0.94557900  0.46717100  0.03300000  1
  C  618  1  0.91986100  0.46906800  0.03736900  1
  C  619  1  0.95909000  0.45150800  0.04484700  1
  C  620  1  0.94748400  0.43864200  0.06077500  1
  C  621  1  0.92175700  0.44047300  0.06518900  1
  C  622  1  0.90815100  0.45589800  0.05305400  1
  C  649  1  0.07008900  0.59861400  0.87900600  1
  C  650  1  0.91150400  0.42943500  0.87030500  1
  C  651  1  0.91131900  0.42838900  0.08206600  1
  C  652  1  0.06736000  0.59148100  0.08214000  1
  C  657  1  0.88364400  0.13764000  0.12676800  1
  C  658  1  0.85714200  0.13846900  0.12558500  1
  C  659  1  0.84570500  0.12507200  0.10973800  1
  C  661  1  0.88457400  0.11060800  0.09829800  1
  C  663  1  0.89961100  0.15076900  0.14225100  1
  C  664  1  0.92813100  0.14614900  0.13927500  1
  C  668  1  0.89317600  0.14474900  0.16621100  1
  C  672  1  0.89592600  0.17561100  0.13832500  1
  C  680  1  0.38337700  0.87821600  0.32567800  1
  C  681  1  0.35688300  0.87733200  0.32685600  1
  C  682  1  0.34543500  0.89070600  0.34267900  1
  C  684  1  0.38428600  0.90528000  0.35410000  1
  C  686  1  0.39933500  0.86510800  0.31021800  1
  C  687  1  0.42785500  0.86978400  0.31321600  1
  C  691  1  0.39285500  0.87110300  0.28625100  1
  C  695  1  0.39568600  0.84026000  0.31415400  1
  C  703  1  0.62968200  0.40825500  0.59791600  1
  C  704  1  0.60318000  0.40710200  0.59753500  1
  C  705  1  0.59192400  0.39182100  0.61164300  1
  C  707  1  0.63113200  0.37941500  0.62454600  1
  C  709  1  0.64530800  0.42392100  0.58472200  1
  C  710  1  0.67393900  0.42068600  0.58861800  1
  C  714  1  0.63925100  0.44780400  0.59131500  1
  C  718  1  0.64073600  0.42051700  0.55991900  1
  C  726  1  0.12974300  0.60745600  0.85452100  1
  C  727  1  0.10324300  0.60863400  0.85490200  1
  C  728  1  0.09199800  0.62391600  0.84077900  1
  C  730  1  0.13121000  0.63627800  0.82786700  1
  C  732  1  0.14536200  0.59178500  0.86772700  1
  C  733  1  0.17399300  0.59499100  0.86383200  1
  C  737  1  0.13922900  0.56790200  0.86115000  1
  C  741  1  0.14086200  0.59521100  0.89252800  1
  C  749  1  0.60519600  0.13666500  0.32919200  1
  C  750  1  0.63157400  0.13866300  0.33090200  1
  C  751  1  0.64328300  0.12646800  0.34755200  1
  C  753  1  0.60496000  0.11099200  0.35895000  1
  C  755  1  0.58897100  0.14844700  0.31286100  1
  C  756  1  0.56067600  0.14261100  0.31539100  1
  C  760  1  0.59649600  0.14190000  0.28929500  1
  C  764  1  0.59108100  0.17354200  0.31593000  1
  C  772  1  0.10520700  0.87914300  0.12322400  1
  C  773  1  0.13157000  0.87709800  0.12151800  1
  C  774  1  0.14329800  0.88927200  0.10487900  1
  C  776  1  0.10501600  0.90482800  0.09347900  1
  C  778  1  0.08896500  0.86738700  0.13953900  1
  C  779  1  0.06068900  0.87327500  0.13699400  1
  C  783  1  0.09655900  0.87391200  0.16311200  1
  C  787  1  0.09097700  0.84228800  0.13646100  1
  C  795  1  0.85151200  0.40703400  0.85588300  1
  C  796  1  0.87803900  0.40701000  0.85673500  1
  C  797  1  0.89040400  0.39188200  0.84317500  1
  C  799  1  0.85229500  0.37862700  0.82874700  1
  C  801  1  0.83464100  0.42159100  0.86915600  1
  C  802  1  0.80635300  0.41757500  0.86415900  1
  C  806  1  0.83993100  0.44591700  0.86378200  1
  C  810  1  0.83830700  0.41728200  0.89393600  1
  C  818  1  0.35151800  0.60871500  0.59641800  1
  C  819  1  0.37804600  0.60878800  0.59555000  1
  C  820  1  0.39041200  0.62392600  0.60913900  1
  C  822  1  0.35231400  0.63713000  0.62356400  1
  C  824  1  0.33463000  0.59411800  0.58314900  1
  C  825  1  0.30635000  0.59807900  0.58814100  1
  C  829  1  0.33996300  0.56980400  0.58853200  1
  C  833  1  0.33822500  0.59842300  0.55836700  1
  C  841  1  0.10090600  0.87823000  0.82628000  1
  C  842  1  0.12725000  0.87583400  0.82787700  1
  C  843  1  0.13927300  0.88779500  0.84452400  1
  C  845  1  0.10134100  0.90385400  0.85607500  1
  C  847  1  0.08436300  0.86667700  0.81002900  1
  C  848  1  0.05619800  0.87288000  0.81269500  1
  C  852  1  0.09186800  0.87312600  0.78642300  1
  C  856  1  0.08604000  0.84155400  0.81309200  1
  C  864  1  0.60065800  0.13751100  0.62619500  1
  C  865  1  0.62699800  0.13989600  0.62460500  1
  C  866  1  0.63898600  0.12795200  0.60796300  1
  C  868  1  0.60101800  0.11190500  0.59640200  1
  C  870  1  0.58416100  0.14906000  0.64244100  1
  C  871  1  0.55597700  0.14287800  0.63973900  1
  C  875  1  0.59168400  0.14257800  0.66604500  1
  C  879  1  0.58588900  0.17418500  0.63940500  1
  C  887  1  0.34997700  0.60722200  0.35607000  1
  C  888  1  0.37648300  0.60827400  0.35694600  1
  C  889  1  0.38803800  0.62415400  0.34368400  1
  C  891  1  0.34926300  0.63582600  0.32916400  1
  C  893  1  0.33391500  0.59175600  0.36910900  1
  C  894  1  0.30541400  0.59491900  0.36447400  1
  C  898  1  0.34018900  0.56779700  0.36297900  1
  C  902  1  0.33764100  0.59551400  0.39397600  1
  C  910  1  0.85006100  0.40835700  0.09636300  1
  C  911  1  0.87656100  0.40728300  0.09546000  1
  C  912  1  0.88812400  0.39140600  0.10873000  1
  C  914  1  0.84937400  0.37977500  0.12329700  1
  C  916  1  0.83398500  0.42382300  0.08332500  1
  C  917  1  0.80549400  0.42069700  0.08800200  1
  C  921  1  0.84034900  0.44778300  0.08941300  1
  C  925  1  0.83759000  0.42002400  0.05845900  1
  C  933  1  0.37866000  0.87950500  0.62529200  1
  C  934  1  0.35236100  0.87744300  0.62285600  1
  C  935  1  0.34124000  0.88971100  0.60596700  1
  C  937  1  0.37993400  0.90556300  0.59591400  1
  C  939  1  0.39430100  0.86757600  0.64195000  1
  C  940  1  0.42265900  0.87347100  0.64028000  1
  C  944  1  0.38591300  0.87387500  0.66536600  1
  C  948  1  0.39237200  0.84250700  0.63855600  1
  C  956  1  0.87891900  0.13628100  0.82701800  1
  C  957  1  0.85262800  0.13831700  0.82945200  1
  C  958  1  0.84153900  0.12603400  0.84633100  1
  C  960  1  0.88025100  0.11021900  0.85638300  1
  C  962  1  0.89452000  0.14823200  0.81036600  1
  C  963  1  0.92288200  0.14236200  0.81203900  1
  C  967  1  0.88607300  0.14193300  0.78694600  1
  C  971  1  0.89260300  0.17329700  0.81376800  1
  C  979  1  0.12834600  0.61073000  0.09763400  1
  C  980  1  0.10198500  0.61253800  0.09557700  1
  C  981  1  0.09035200  0.62917300  0.10780100  1
  C  983  1  0.12870600  0.64037700  0.12340500  1
  C  985  1  0.14450400  0.59440000  0.08584200  1
  C  986  1  0.17279900  0.59681300  0.09176100  1
  C  990  1  0.13681000  0.57083200  0.09229100  1
  C  994  1  0.14248300  0.59758600  0.06075100  1
  C  1002  1  0.62860300  0.40492600  0.35490100  1
  C  1003  1  0.60224300  0.40310200  0.35694400  1
  C  1004  1  0.59059800  0.38647700  0.34466900  1
  C  1006  1  0.62894300  0.37528600  0.32910400  1
  C  1008  1  0.64477700  0.42126600  0.36672000  1
  C  1009  1  0.67306100  0.41889500  0.36081600  1
  C  1013  1  0.63706600  0.44483300  0.36029400  1
  C  1017  1  0.64280000  0.41805200  0.39180600  1
  C  1025  1  0.75689600  0.01423300  0.90790200  1
  C  1026  1  0.77459300  0.99800900  0.90757400  1
  C  1027  1  0.78074100  0.99265800  0.92890500  1
  C  1029  1  0.75184300  0.01946500  0.92944200  1
  C  1030  1  0.73435400  0.03541100  0.93629200  1
  C  1031  1  0.72954000  0.04060300  0.95837300  1
  C  1033  1  0.73044100  0.04080900  0.99485200  1
  C  1034  1  0.71269300  0.05581100  0.98800600  1
  C  1035  1  0.71221000  0.05574600  0.96567000  1
  C  1036  1  0.73627700  0.03573600  0.01678900  1
  C  1037  1  0.75379300  0.01951900  0.02299900  1
  C  1039  1  0.78242400  0.99253100  0.02247600  1
  C  1040  1  0.77698600  0.99749900  0.04402100  1
  C  1041  1  0.75956600  0.01394800  0.04433900  1
  C  1042  1  0.79937400  0.97614100  0.01561900  1
  C  1043  1  0.80446700  0.97114600  0.99354800  1
  C  1045  1  0.80390700  0.97117900  0.95704800  1
  C  1046  1  0.81959800  0.95454900  0.96396800  1
  C  1047  1  0.82003000  0.95459100  0.98631000  1
  C  1048  1  0.79808900  0.97625900  0.93509800  1
  C  1049  1  0.80950500  0.96325500  0.91846400  1
  C  1050  1  0.83511800  0.96490600  0.91356300  1
  C  1051  1  0.84642400  0.95102300  0.89828500  1
  C  1052  1  0.83256600  0.93496900  0.88717600  1
  C  1053  1  0.80688800  0.93353800  0.89206800  1
  C  1054  1  0.79564100  0.94722600  0.90746900  1
  C  1055  1  0.81113300  0.96290900  0.03181300  1
  C  1056  1  0.83554500  0.96715600  0.03915600  1
  C  1057  1  0.84739500  0.95324700  0.05412200  1
  C  1058  1  0.83531100  0.93453900  0.06223000  1
  C  1059  1  0.81086000  0.93042200  0.05474600  1
  C  1060  1  0.79904300  0.94423300  0.03976700  1
  C  1061  1  0.72225500  0.04664800  0.03336400  1
  C  1062  1  0.70118600  0.03656000  0.04251800  1
  C  1063  1  0.68533700  0.04791900  0.05667100  1
  C  1064  1  0.68976800  0.06984700  0.06231100  1
  C  1065  1  0.71118600  0.07977900  0.05340800  1
  C  1066  1  0.72707900  0.06842100  0.03917500  1
  C  1067  1  0.71928500  0.04604600  0.92025000  1
  C  1068  1  0.69541200  0.03789700  0.91540000  1
  C  1069  1  0.72625200  0.06608200  0.91094600  1
  C  1070  1  0.70974900  0.07767500  0.89740000  1
  C  1071  1  0.68556500  0.06979700  0.89283200  1
  C  1072  1  0.67895600  0.04953300  0.90199900  1
  C  1099  1  0.84605700  0.92066200  0.07756500  1
  C  1100  1  0.67225600  0.08101200  0.07490400  1
  C  1101  1  0.66780300  0.08145500  0.88091200  1
  C  1102  1  0.84291400  0.92101700  0.87165800  1
  C  1107  1  0.25659300  0.00158000  0.54444700  1
  C  1108  1  0.27430500  0.01780600  0.54479500  1
  C  1109  1  0.28040300  0.02318800  0.52347100  1
  C  1111  1  0.25150500  0.99636200  0.52289900  1
  C  1112  1  0.23397600  0.98042900  0.51602200  1
  C  1113  1  0.22916500  0.97527500  0.49392400  1
  C  1115  1  0.23009100  0.97514500  0.45745400  1
  C  1116  1  0.21231700  0.96012700  0.46422900  1
  C  1117  1  0.21180900  0.96015500  0.48656300  1
  C  1118  1  0.23594700  0.98025700  0.43554200  1
  C  1119  1  0.25350700  0.99644400  0.42934800  1
  C  1121  1  0.28220000  0.02340400  0.42990800  1
  C  1122  1  0.27674200  0.01843900  0.40835300  1
  C  1123  1  0.25929000  0.00199900  0.40801300  1
  C  1124  1  0.29918800  0.03978200  0.43678700  1
  C  1125  1  0.30420000  0.04480200  0.45887600  1
  C  1127  1  0.30354500  0.04475000  0.49536700  1
  C  1128  1  0.31928000  0.06138200  0.48851500  1
  C  1129  1  0.31977200  0.06134900  0.46617600  1
  C  1130  1  0.29771600  0.03961800  0.51729200  1
  C  1131  1  0.30911900  0.05261100  0.53394800  1
  C  1132  1  0.33469700  0.05086500  0.53898100  1
  C  1133  1  0.34600700  0.06473100  0.55429600  1
  C  1134  1  0.33217600  0.08084200  0.56529600  1
  C  1135  1  0.30653000  0.08235900  0.56028000  1
  C  1136  1  0.29527500  0.06868100  0.54484900  1
  C  1137  1  0.31097500  0.05302200  0.42062200  1
  C  1138  1  0.33534600  0.04872400  0.41326900  1
  C  1139  1  0.34722300  0.06261800  0.39831500  1
  C  1140  1  0.33520900  0.08136500  0.39022100  1
  C  1141  1  0.31080100  0.08553700  0.39771800  1
  C  1142  1  0.29896000  0.07174200  0.41268900  1
  C  1143  1  0.22191600  0.96936600  0.41894200  1
  C  1144  1  0.20081200  0.97943400  0.40981600  1
  C  1145  1  0.18495200  0.96806300  0.39564600  1
  C  1146  1  0.18941500  0.94615500  0.38998800  1
  C  1147  1  0.21089900  0.93626200  0.39883300  1
  C  1148  1  0.22680300  0.94762800  0.41308700  1
  C  1149  1  0.21890700  0.96977300  0.53203300  1
  C  1150  1  0.19499300  0.97784200  0.53678700  1
  C  1151  1  0.22589800  0.94976700  0.54139300  1
  C  1152  1  0.20941200  0.93814900  0.55492100  1
  C  1153  1  0.18520300  0.94596400  0.55940700  1
  C  1154  1  0.17854800  0.96618000  0.55016200  1
  C  1181  1  0.34597500  0.09522900  0.37488800  1
  C  1182  1  0.17192700  0.93497500  0.37735800  1
  C  1183  1  0.16745700  0.93428700  0.57131800  1
  C  1184  1  0.34254100  0.09476800  0.58083800  1
  C  1189  1  0.50809900  0.19031500  0.71962800  1
  C  1190  1  0.52568000  0.19024700  0.73595500  1
  C  1191  1  0.53110900  0.21165300  0.74153300  1
  C  1193  1  0.50243400  0.21176800  0.71442800  1
  C  1194  1  0.48501600  0.21827200  0.69817800  1
  C  1195  1  0.47954600  0.24031300  0.69326700  1
  C  1197  1  0.47955000  0.27681200  0.69353100  1
  C  1198  1  0.46283600  0.26984500  0.67769000  1
  C  1199  1  0.46307200  0.24751400  0.67733800  1
  C  1200  1  0.48478100  0.29878900  0.69889400  1
  C  1201  1  0.50209000  0.30524000  0.71519700  1
  C  1203  1  0.53100500  0.30511400  0.74198900  1
  C  1204  1  0.52477700  0.32657000  0.73732500  1
  C  1205  1  0.50717500  0.32664700  0.72099800  1
  C  1206  1  0.54834800  0.29850700  0.75819800  1
  C  1207  1  0.55386500  0.27649800  0.76314000  1
  C  1209  1  0.55383500  0.24000800  0.76310400  1
  C  1210  1  0.56962100  0.24707600  0.77961900  1
  C  1211  1  0.56976400  0.26942000  0.77955200  1
  C  1212  1  0.54835200  0.21801400  0.75798100  1
  C  1213  1  0.56029300  0.20144900  0.77076600  1
  C  1214  1  0.58603000  0.19712900  0.76897300  1
  C  1215  1  0.59769000  0.18136900  0.78209200  1
  C  1216  1  0.58402700  0.16910500  0.79737300  1
  C  1217  1  0.55827900  0.17349900  0.79910600  1
  C  1218  1  0.54670700  0.18947700  0.78626800  1
  C  1219  1  0.55980100  0.31483400  0.77147500  1
  C  1220  1  0.58366400  0.32318300  0.76678200  1
  C  1221  1  0.59522400  0.33834300  0.78067300  1
  C  1222  1  0.58339600  0.34565800  0.79981200  1
  C  1223  1  0.55949900  0.33715800  0.80436500  1
  C  1224  1  0.54797000  0.32200000  0.79056700  1
  C  1225  1  0.47034800  0.31517800  0.68811200  1
  C  1226  1  0.44884300  0.32353400  0.69814600  1
  C  1227  1  0.43267400  0.33752200  0.68690500  1
  C  1228  1  0.43716200  0.34370400  0.66513500  1
  C  1229  1  0.45902300  0.33561100  0.65527300  1
  C  1230  1  0.47528000  0.32158300  0.66653000  1
  C  1231  1  0.47290400  0.20183200  0.68534300  1
  C  1232  1  0.44719700  0.19739500  0.68733100  1
  C  1233  1  0.48631600  0.19016400  0.66952000  1
  C  1234  1  0.47462300  0.17435700  0.65656000  1
  C  1235  1  0.44890700  0.16990000  0.65845700  1
  C  1236  1  0.43539100  0.18183400  0.67406200  1
  C  1263  1  0.59381500  0.36112000  0.81376000  1
  C  1264  1  0.41942700  0.35619900  0.65411100  1
  C  1265  1  0.43841900  0.15317500  0.64620600  1
  C  1266  1  0.59448200  0.15228400  0.80956900  1
  C  1271  1  0.00811400  0.82534300  0.73276000  1
  C  1272  1  0.02564600  0.82542000  0.71642500  1
  C  1273  1  0.03107900  0.80401800  0.71086400  1
  C  1275  1  0.00247300  0.80388800  0.73798300  1
  C  1276  1  0.98510240  0.79738400  0.75424900  1
  C  1277  1  0.97964840  0.77532700  0.75913300  1
  C  1279  1  0.97963740  0.73881600  0.75881700  1
  C  1280  1  0.96297340  0.74575800  0.77467100  1
  C  1281  1  0.96322640  0.76809000  0.77505700  1
  C  1282  1  0.98484040  0.71684200  0.75343900  1
  C  1283  1  0.00213300  0.71040600  0.73715300  1
  C  1285  1  0.03102700  0.71054400  0.71038400  1
  C  1286  1  0.02479200  0.68908500  0.71504800  1
  C  1287  1  0.00720800  0.68900200  0.73135700  1
  C  1288  1  0.04836100  0.71715100  0.69418900  1
  C  1289  1  0.05386100  0.73917600  0.68927300  1
  C  1291  1  0.05377600  0.77567600  0.68930400  1
  C  1292  1  0.06950800  0.76863100  0.67277900  1
  C  1293  1  0.06970800  0.74628600  0.67286400  1
  C  1294  1  0.04828900  0.79766700  0.69442100  1
  C  1295  1  0.06018600  0.81424400  0.68162000  1
  C  1296  1  0.08593000  0.81859900  0.68338900  1
  C  1297  1  0.09754500  0.83435900  0.67024600  1
  C  1298  1  0.08383600  0.84658600  0.65494900  1
  C  1299  1  0.05808100  0.84216100  0.65324100  1
  C  1300  1  0.04655100  0.82618800  0.66610900  1
  C  1301  1  0.05981400  0.70082900  0.68091600  1
  C  1302  1  0.08374000  0.69257600  0.68556000  1
  C  1303  1  0.09530800  0.67745400  0.67165500  1
  C  1304  1  0.08343500  0.67006900  0.65253600  1
  C  1305  1  0.05948400  0.67848600  0.64802100  1
  C  1306  1  0.04795100  0.69360500  0.66182900  1
  C  1307  1  0.97044540  0.70043500  0.76423700  1
  C  1308  1  0.94890340  0.69206700  0.75421100  1
  C  1309  1  0.93272440  0.67811100  0.76547300  1
  C  1310  1  0.93725540  0.67194800  0.78725100  1
  C  1311  1  0.95915940  0.68004800  0.79710300  1
  C  1312  1  0.97543340  0.69403300  0.78581900  1
  C  1313  1  0.97301640  0.81381800  0.76709800  1
  C  1314  1  0.94728440  0.81819500  0.76519200  1
  C  1315  1  0.98648540  0.82554600  0.78288000  1
  C  1316  1  0.97483340  0.84132800  0.79586900  1
  C  1317  1  0.94909240  0.84572400  0.79405400  1
  C  1318  1  0.93551940  0.83373700  0.77848600  1
  C  1345  1  0.09385800  0.65464200  0.63855700  1
  C  1346  1  0.91950740  0.65949000  0.79829600  1
  C  1347  1  0.93865340  0.86244800  0.80633700  1
  C  1348  1  0.09424600  0.86340600  0.64271900  1
  C  1353  1  0.02959100  0.82614500  0.23321300  1
  C  1354  1  0.01205800  0.82622700  0.21684800  1
  C  1355  1  0.00654000  0.80482400  0.21133100  1
  C  1357  1  0.03513200  0.80468700  0.23850200  1
  C  1358  1  0.05244500  0.79816800  0.25483200  1
  C  1359  1  0.05784100  0.77612000  0.25979300  1
  C  1361  1  0.05773300  0.73961000  0.25959000  1
  C  1362  1  0.07441200  0.74656700  0.27546300  1
  C  1363  1  0.07425200  0.76890400  0.27576300  1
  C  1364  1  0.05240400  0.71763400  0.25428500  1
  C  1365  1  0.03511700  0.71120800  0.23795400  1
  C  1367  1  0.00632300  0.71136800  0.21105800  1
  C  1368  1  0.01226100  0.68989600  0.21593300  1
  C  1369  1  0.02979900  0.68979900  0.23231100  1
  C  1370  1  0.98908540  0.71799500  0.19477100  1
  C  1371  1  0.98367440  0.74000800  0.18976800  1
  C  1373  1  0.98381240  0.77648500  0.18975200  1
  C  1374  1  0.96821040  0.76943500  0.17309800  1
  C  1375  1  0.96801540  0.74709600  0.17318600  1
  C  1376  1  0.98933040  0.79847200  0.19485600  1
  C  1377  1  0.97743440  0.81502100  0.18202400  1
  C  1378  1  0.95164840  0.81921700  0.18361600  1
  C  1379  1  0.94000040  0.83484500  0.17033100  1
  C  1380  1  0.95374640  0.84708700  0.15509900  1
  C  1381  1  0.97953940  0.84284500  0.15357200  1
  C  1382  1  0.99109036  0.82698000  0.16655900  1
  C  1383  1  0.97737240  0.70168300  0.18164900  1
  C  1384  1  0.95282940  0.69460100  0.18571700  1
  C  1385  1  0.94093240  0.67966400  0.17180900  1
  C  1386  1  0.95309640  0.67132000  0.15326700  1
  C  1387  1  0.97768240  0.67853200  0.14933300  1
  C  1388  1  0.98954640  0.69348600  0.16314400  1
  C  1389  1  0.06656900  0.70118500  0.26525600  1
  C  1390  1  0.08804100  0.69254400  0.25540300  1
  C  1391  1  0.10384100  0.67833700  0.26677800  1
  C  1392  1  0.09895500  0.67215300  0.28848000  1
  C  1393  1  0.07714100  0.68055400  0.29816300  1
  C  1394  1  0.06127000  0.69481800  0.28678100  1
  C  1395  1  0.06461500  0.81462500  0.26760000  1
  C  1396  1  0.09032600  0.81899600  0.26554200  1
  C  1397  1  0.05123800  0.82652900  0.28327200  1
  C  1398  1  0.06296600  0.84251100  0.29599900  1
  C  1399  1  0.08868500  0.84692300  0.29401300  1
  C  1400  1  0.10216100  0.83472200  0.27858700  1
  C  1427  1  0.94225740  0.65606600  0.13935200  1
  C  1428  1  0.11635200  0.65944900  0.29968100  1
  C  1429  1  0.09922800  0.86386200  0.30594700  1
  C  1430  1  0.94332140  0.86380000  0.14278000  1
  C  1435  1  0.52974500  0.18951200  0.21930400  1
  C  1436  1  0.51220300  0.18943100  0.23562900  1
  C  1437  1  0.50672900  0.21083100  0.24115500  1
  C  1439  1  0.53533000  0.21096700  0.21403100  1
  C  1440  1  0.55267700  0.21747900  0.19774500  1
  C  1441  1  0.55806800  0.23954100  0.19281400  1
  C  1443  1  0.55792800  0.27606300  0.19301800  1
  C  1444  1  0.57459000  0.26912600  0.17716200  1
  C  1445  1  0.57444700  0.24678800  0.17685900  1
  C  1446  1  0.55260500  0.29804000  0.19830900  1
  C  1447  1  0.53532700  0.30446400  0.21461300  1
  C  1449  1  0.50653800  0.30430300  0.24147000  1
  C  1450  1  0.51248300  0.32577400  0.23658700  1
  C  1451  1  0.53001800  0.32587200  0.22023700  1
  C  1452  1  0.48928900  0.29768300  0.25772900  1
  C  1453  1  0.48393800  0.27565500  0.26274700  1
  C  1455  1  0.48407700  0.23916600  0.26274500  1
  C  1456  1  0.46848600  0.24620300  0.27937600  1
  C  1457  1  0.46829300  0.26854100  0.27930200  1
  C  1458  1  0.48953800  0.21717900  0.25761300  1
  C  1459  1  0.47760600  0.20062500  0.27041500  1
  C  1460  1  0.45180800  0.19644900  0.26877800  1
  C  1461  1  0.44011300  0.18085200  0.28206300  1
  C  1462  1  0.45381800  0.16861900  0.29734900  1
  C  1463  1  0.47962800  0.17282300  0.29890000  1
  C  1464  1  0.49122700  0.18865800  0.28591500  1
  C  1465  1  0.47758000  0.31398900  0.27085100  1
  C  1466  1  0.45303100  0.32106100  0.26676500  1
  C  1467  1  0.44113600  0.33597100  0.28067500  1
  C  1468  1  0.45329500  0.34431200  0.29925300  1
  C  1469  1  0.47788800  0.33711300  0.30320500  1
  C  1470  1  0.48974600  0.32218200  0.28939600  1
  C  1471  1  0.56675100  0.31449600  0.18732600  1
  C  1472  1  0.58826100  0.32315300  0.19715800  1
  C  1473  1  0.60405000  0.33734200  0.18575700  1
  C  1474  1  0.59911500  0.34349200  0.16404300  1
  C  1475  1  0.57723500  0.33510800  0.15439400  1
  C  1476  1  0.56138300  0.32085300  0.16579800  1
  C  1477  1  0.56484100  0.20102600  0.18497700  1
  C  1478  1  0.59058200  0.19673300  0.18696500  1
  C  1479  1  0.55144600  0.18908600  0.16930200  1
  C  1480  1  0.56316900  0.17316300  0.15652700  1
  C  1481  1  0.58891100  0.16881900  0.15845900  1
  C  1482  1  0.60241200  0.18105900  0.17387800  1
  C  1509  1  0.44246900  0.35956000  0.31317800  1
  C  1510  1  0.61649700  0.35618500  0.15281800  1
  C  1511  1  0.59945200  0.15193700  0.14644400  1
  C  1512  1  0.44334900  0.15192300  0.30966500  1
  C  1517  1  0.25798300  0.51405200  0.40789500  1
  C  1518  1  0.27562300  0.49780000  0.40788200  1
  C  1519  1  0.28107100  0.49228700  0.42930500  1
  C  1521  1  0.25230600  0.51929300  0.42933000  1
  C  1522  1  0.23489300  0.53554000  0.43577800  1
  C  1523  1  0.22936500  0.54051300  0.45779400  1
  C  1525  1  0.22946300  0.54053000  0.49430400  1
  C  1526  1  0.21309300  0.55657600  0.48724800  1
  C  1527  1  0.21320800  0.55670000  0.46490500  1
  C  1528  1  0.23495000  0.53552900  0.51632100  1
  C  1529  1  0.25218800  0.51919600  0.52284700  1
  C  1531  1  0.28084300  0.49220400  0.52282100  1
  C  1532  1  0.27535000  0.49750100  0.54426900  1
  C  1533  1  0.25799400  0.51401000  0.54428400  1
  C  1534  1  0.29796500  0.47583500  0.51626800  1
  C  1535  1  0.30345800  0.47079600  0.49426800  1
  C  1537  1  0.30368400  0.47081600  0.45776100  1
  C  1538  1  0.31937700  0.45430100  0.46493500  1
  C  1539  1  0.31937700  0.45438600  0.48727600  1
  C  1540  1  0.29836000  0.47590800  0.43572100  1
  C  1541  1  0.31041100  0.46311800  0.41921900  1
  C  1542  1  0.33622400  0.46476200  0.41513500  1
  C  1543  1  0.34798000  0.45157000  0.39950700  1
  C  1544  1  0.33433600  0.43635600  0.38713100  1
  C  1545  1  0.30851800  0.43477400  0.39126400  1
  C  1546  1  0.29686000  0.44767200  0.40711900  1
  C  1547  1  0.30946300  0.46258500  0.53260900  1
  C  1548  1  0.33308500  0.46762200  0.54129100  1
  C  1549  1  0.34548000  0.45308200  0.55530000  1
  C  1550  1  0.33488400  0.43284200  0.56098600  1
  C  1551  1  0.31103500  0.42812500  0.55241900  1
  C  1552  1  0.29856800  0.44264600  0.53855400  1
  C  1553  1  0.22291600  0.54833000  0.53273400  1
  C  1554  1  0.20143400  0.54087300  0.54360700  1
  C  1555  1  0.18947000  0.55377100  0.55935300  1
  C  1556  1  0.19840300  0.57468000  0.56457300  1
  C  1557  1  0.21985700  0.58212500  0.55365500  1
  C  1558  1  0.23177800  0.56926600  0.53790400  1
  C  1559  1  0.22286400  0.54835200  0.41927400  1
  C  1560  1  0.19715000  0.54638600  0.41486400  1
  C  1561  1  0.23633900  0.56407000  0.40747700  1
  C  1562  1  0.22469500  0.57692800  0.39155200  1
  C  1563  1  0.19896900  0.57503300  0.38710500  1
  C  1564  1  0.18540100  0.55955000  0.39918800  1
  C  1591  1  0.34726000  0.41713500  0.57342500  1
  C  1592  1  0.18883500  0.58649700  0.58186000  1
  C  1593  1  0.18848300  0.58711900  0.37024700  1
  C  1594  1  0.34484700  0.42411800  0.37039300  1
  C  1599  1  0.75789200  0.50156200  0.04444400  1
  C  1600  1  0.77551200  0.51784900  0.04448500  1
  C  1601  1  0.78095800  0.52335800  0.02306700  1
  C  1603  1  0.75222900  0.49630200  0.02300000  1
  C  1604  1  0.73483900  0.48002000  0.01652400  1
  C  1605  1  0.72932700  0.47507500  0.99448900  1
  C  1607  1  0.72945100  0.47514200  0.95798500  1
  C  1608  1  0.71305500  0.45907600  0.96496700  1
  C  1609  1  0.71317200  0.45888900  0.98731000  1
  C  1610  1  0.73496700  0.48018500  0.93599400  1
  C  1611  1  0.75220100  0.49653000  0.92949100  1
  C  1613  1  0.78087400  0.52353100  0.92956300  1
  C  1614  1  0.77535800  0.51824800  0.90810500  1
  C  1615  1  0.75799000  0.50173100  0.90806200  1
  C  1616  1  0.79801300  0.53990600  0.93614300  1
  C  1617  1  0.80347200  0.54493100  0.95816100  1
  C  1619  1  0.80359700  0.54488400  0.99466200  1
  C  1620  1  0.81930400  0.56142700  0.98756100  1
  C  1621  1  0.81938800  0.56134100  0.96521900  1
  C  1622  1  0.79822700  0.53976000  0.01667400  1
  C  1623  1  0.81024200  0.55255200  0.03320500  1
  C  1624  1  0.83602900  0.55084900  0.03741000  1
  C  1625  1  0.84776100  0.56402300  0.05309000  1
  C  1626  1  0.83411000  0.57926700  0.06537400  1
  C  1627  1  0.80831700  0.58090400  0.06112400  1
  C  1628  1  0.79668200  0.56802200  0.04521700  1
  C  1629  1  0.80951800  0.55317600  0.91982900  1
  C  1630  1  0.83308300  0.54810700  0.91110800  1
  C  1631  1  0.84549600  0.56265400  0.89712200  1
  C  1632  1  0.83496200  0.58292200  0.89146400  1
  C  1633  1  0.81116500  0.58767200  0.90006800  1
  C  1634  1  0.79870200  0.57315900  0.91393600  1
  C  1635  1  0.72291400  0.46742700  0.91954700  1
  C  1636  1  0.70142300  0.47491900  0.90868800  1
  C  1637  1  0.68945000  0.46207500  0.89287800  1
  C  1638  1  0.69838900  0.44119900  0.88760200  1
  C  1639  1  0.71985000  0.43371600  0.89850700  1
  C  1640  1  0.73178000  0.44652200  0.91432100  1
  C  1641  1  0.72282800  0.46717100  0.03300000  1
  C  1642  1  0.69711000  0.46906800  0.03736900  1
  C  1643  1  0.73633900  0.45150800  0.04484700  1
  C  1644  1  0.72473300  0.43864200  0.06077500  1
  C  1645  1  0.69900600  0.44047300  0.06518900  1
  C  1646  1  0.68540000  0.45589800  0.05305400  1
  C  1673  1  0.84733800  0.59861400  0.87900600  1
  C  1674  1  0.68875300  0.42943500  0.87030500  1
  C  1675  1  0.68856800  0.42838900  0.08206600  1
  C  1676  1  0.84460900  0.59148100  0.08214000  1
  C  1681  1  0.66089300  0.13764000  0.12676800  1
  C  1682  1  0.63439100  0.13846900  0.12558500  1
  C  1683  1  0.62295400  0.12507200  0.10973800  1
  C  1685  1  0.66182300  0.11060800  0.09829800  1
  C  1687  1  0.67686000  0.15076900  0.14225100  1
  C  1688  1  0.70538000  0.14614900  0.13927500  1
  C  1692  1  0.67042500  0.14474900  0.16621100  1
  C  1696  1  0.67317500  0.17561100  0.13832500  1
  C  1704  1  0.16062600  0.87821600  0.32567800  1
  C  1705  1  0.13413200  0.87733200  0.32685600  1
  C  1706  1  0.12268400  0.89070600  0.34267900  1
  C  1708  1  0.16153500  0.90528000  0.35410000  1
  C  1710  1  0.17658400  0.86510800  0.31021800  1
  C  1711  1  0.20510400  0.86978400  0.31321600  1
  C  1715  1  0.17010400  0.87110300  0.28625100  1
  C  1719  1  0.17293500  0.84026000  0.31415400  1
  C  1727  1  0.40693100  0.40825500  0.59791600  1
  C  1728  1  0.38042900  0.40710200  0.59753500  1
  C  1729  1  0.36917300  0.39182100  0.61164300  1
  C  1731  1  0.40838100  0.37941500  0.62454600  1
  C  1733  1  0.42255700  0.42392100  0.58472200  1
  C  1734  1  0.45118800  0.42068600  0.58861800  1
  C  1738  1  0.41650000  0.44780400  0.59131500  1
  C  1742  1  0.41798500  0.42051700  0.55991900  1
  C  1750  1  0.90699240  0.60745600  0.85452100  1
  C  1751  1  0.88049200  0.60863400  0.85490200  1
  C  1752  1  0.86924700  0.62391600  0.84077900  1
  C  1754  1  0.90845940  0.63627800  0.82786700  1
  C  1756  1  0.92261140  0.59178500  0.86772700  1
  C  1757  1  0.95124240  0.59499100  0.86383200  1
  C  1761  1  0.91647840  0.56790200  0.86115000  1
  C  1765  1  0.91811140  0.59521100  0.89252800  1
  C  1773  1  0.38244500  0.13666500  0.32919200  1
  C  1774  1  0.40882300  0.13866300  0.33090200  1
  C  1775  1  0.42053200  0.12646800  0.34755200  1
  C  1777  1  0.38220900  0.11099200  0.35895000  1
  C  1779  1  0.36622000  0.14844700  0.31286100  1
  C  1780  1  0.33792500  0.14261100  0.31539100  1
  C  1784  1  0.37374500  0.14190000  0.28929500  1
  C  1788  1  0.36833000  0.17354200  0.31593000  1
  C  1796  1  0.88245600  0.87914300  0.12322400  1
  C  1797  1  0.90881940  0.87709800  0.12151800  1
  C  1798  1  0.92054740  0.88927200  0.10487900  1
  C  1800  1  0.88226500  0.90482800  0.09347900  1
  C  1802  1  0.86621400  0.86738700  0.13953900  1
  C  1803  1  0.83793800  0.87327500  0.13699400  1
  C  1807  1  0.87380800  0.87391200  0.16311200  1
  C  1811  1  0.86822600  0.84228800  0.13646100  1
  C  1819  1  0.62876100  0.40703400  0.85588300  1
  C  1820  1  0.65528800  0.40701000  0.85673500  1
  C  1821  1  0.66765300  0.39188200  0.84317500  1
  C  1823  1  0.62954400  0.37862700  0.82874700  1
  C  1825  1  0.61189000  0.42159100  0.86915600  1
  C  1826  1  0.58360200  0.41757500  0.86415900  1
  C  1830  1  0.61718000  0.44591700  0.86378200  1
  C  1834  1  0.61555600  0.41728200  0.89393600  1
  C  1842  1  0.12876700  0.60871500  0.59641800  1
  C  1843  1  0.15529500  0.60878800  0.59555000  1
  C  1844  1  0.16766100  0.62392600  0.60913900  1
  C  1846  1  0.12956300  0.63713000  0.62356400  1
  C  1848  1  0.11187900  0.59411800  0.58314900  1
  C  1849  1  0.08359900  0.59807900  0.58814100  1
  C  1853  1  0.11721200  0.56980400  0.58853200  1
  C  1857  1  0.11547400  0.59842300  0.55836700  1
  C  1865  1  0.87815500  0.87823000  0.82628000  1
  C  1866  1  0.90449940  0.87583400  0.82787700  1
  C  1867  1  0.91652240  0.88779500  0.84452400  1
  C  1869  1  0.87859000  0.90385400  0.85607500  1
  C  1871  1  0.86161200  0.86667700  0.81002900  1
  C  1872  1  0.83344700  0.87288000  0.81269500  1
  C  1876  1  0.86911700  0.87312600  0.78642300  1
  C  1880  1  0.86328900  0.84155400  0.81309200  1
  C  1888  1  0.37790700  0.13751100  0.62619500  1
  C  1889  1  0.40424700  0.13989600  0.62460500  1
  C  1890  1  0.41623500  0.12795200  0.60796300  1
  C  1892  1  0.37826700  0.11190500  0.59640200  1
  C  1894  1  0.36141000  0.14906000  0.64244100  1
  C  1895  1  0.33322600  0.14287800  0.63973900  1
  C  1899  1  0.36893300  0.14257800  0.66604500  1
  C  1903  1  0.36313800  0.17418500  0.63940500  1
  C  1911  1  0.12722600  0.60722200  0.35607000  1
  C  1912  1  0.15373200  0.60827400  0.35694600  1
  C  1913  1  0.16528700  0.62415400  0.34368400  1
  C  1915  1  0.12651200  0.63582600  0.32916400  1
  C  1917  1  0.11116400  0.59175600  0.36910900  1
  C  1918  1  0.08266300  0.59491900  0.36447400  1
  C  1922  1  0.11743800  0.56779700  0.36297900  1
  C  1926  1  0.11489000  0.59551400  0.39397600  1
  C  1934  1  0.62731000  0.40835700  0.09636300  1
  C  1935  1  0.65381000  0.40728300  0.09546000  1
  C  1936  1  0.66537300  0.39140600  0.10873000  1
  C  1938  1  0.62662300  0.37977500  0.12329700  1
  C  1940  1  0.61123400  0.42382300  0.08332500  1
  C  1941  1  0.58274300  0.42069700  0.08800200  1
  C  1945  1  0.61759800  0.44778300  0.08941300  1
  C  1949  1  0.61483900  0.42002400  0.05845900  1
  C  1957  1  0.15590900  0.87950500  0.62529200  1
  C  1958  1  0.12961000  0.87744300  0.62285600  1
  C  1959  1  0.11848900  0.88971100  0.60596700  1
  C  1961  1  0.15718300  0.90556300  0.59591400  1
  C  1963  1  0.17155000  0.86757600  0.64195000  1
  C  1964  1  0.19990800  0.87347100  0.64028000  1
  C  1968  1  0.16316200  0.87387500  0.66536600  1
  C  1972  1  0.16962100  0.84250700  0.63855600  1
  C  1980  1  0.65616800  0.13628100  0.82701800  1
  C  1981  1  0.62987700  0.13831700  0.82945200  1
  C  1982  1  0.61878800  0.12603400  0.84633100  1
  C  1984  1  0.65750000  0.11021900  0.85638300  1
  C  1986  1  0.67176900  0.14823200  0.81036600  1
  C  1987  1  0.70013100  0.14236200  0.81203900  1
  C  1991  1  0.66332200  0.14193300  0.78694600  1
  C  1995  1  0.66985200  0.17329700  0.81376800  1
  C  2003  1  0.90559540  0.61073000  0.09763400  1
  C  2004  1  0.87923400  0.61253800  0.09557700  1
  C  2005  1  0.86760100  0.62917300  0.10780100  1
  C  2007  1  0.90595540  0.64037700  0.12340500  1
  C  2009  1  0.92175340  0.59440000  0.08584200  1
  C  2010  1  0.95004840  0.59681300  0.09176100  1
  C  2014  1  0.91405940  0.57083200  0.09229100  1
  C  2018  1  0.91973240  0.59758600  0.06075100  1
  C  2026  1  0.40585200  0.40492600  0.35490100  1
  C  2027  1  0.37949200  0.40310200  0.35694400  1
  C  2028  1  0.36784700  0.38647700  0.34466900  1
  C  2030  1  0.40619200  0.37528600  0.32910400  1
  C  2032  1  0.42202600  0.42126600  0.36672000  1
  C  2033  1  0.45031000  0.41889500  0.36081600  1
  C  2037  1  0.41431500  0.44483300  0.36029400  1
  C  2041  1  0.42004900  0.41805200  0.39180600  1
  C  2049  1  0.53414600  0.01423300  0.90790200  1
  C  2050  1  0.55184300  0.99800900  0.90757400  1
  C  2051  1  0.55799100  0.99265800  0.92890500  1
  C  2053  1  0.52909300  0.01946500  0.92944200  1
  C  2054  1  0.51160400  0.03541100  0.93629200  1
  C  2055  1  0.50679000  0.04060300  0.95837300  1
  C  2057  1  0.50769100  0.04080900  0.99485200  1
  C  2058  1  0.48994300  0.05581100  0.98800600  1
  C  2059  1  0.48946000  0.05574600  0.96567000  1
  C  2060  1  0.51352700  0.03573600  0.01678900  1
  C  2061  1  0.53104300  0.01951900  0.02299900  1
  C  2063  1  0.55967400  0.99253100  0.02247600  1
  C  2064  1  0.55423600  0.99749900  0.04402100  1
  C  2065  1  0.53681600  0.01394800  0.04433900  1
  C  2066  1  0.57662400  0.97614100  0.01561900  1
  C  2067  1  0.58171700  0.97114600  0.99354800  1
  C  2069  1  0.58115700  0.97117900  0.95704800  1
  C  2070  1  0.59684800  0.95454900  0.96396800  1
  C  2071  1  0.59728000  0.95459100  0.98631000  1
  C  2072  1  0.57533900  0.97625900  0.93509800  1
  C  2073  1  0.58675500  0.96325500  0.91846400  1
  C  2074  1  0.61236800  0.96490600  0.91356300  1
  C  2075  1  0.62367400  0.95102300  0.89828500  1
  C  2076  1  0.60981600  0.93496900  0.88717600  1
  C  2077  1  0.58413800  0.93353800  0.89206800  1
  C  2078  1  0.57289100  0.94722600  0.90746900  1
  C  2079  1  0.58838300  0.96290900  0.03181300  1
  C  2080  1  0.61279500  0.96715600  0.03915600  1
  C  2081  1  0.62464500  0.95324700  0.05412200  1
  C  2082  1  0.61256100  0.93453900  0.06223000  1
  C  2083  1  0.58811000  0.93042200  0.05474600  1
  C  2084  1  0.57629300  0.94423300  0.03976700  1
  C  2085  1  0.49950500  0.04664800  0.03336400  1
  C  2086  1  0.47843600  0.03656000  0.04251800  1
  C  2087  1  0.46258700  0.04791900  0.05667100  1
  C  2088  1  0.46701800  0.06984700  0.06231100  1
  C  2089  1  0.48843600  0.07977900  0.05340800  1
  C  2090  1  0.50432900  0.06842100  0.03917500  1
  C  2091  1  0.49653500  0.04604600  0.92025000  1
  C  2092  1  0.47266200  0.03789700  0.91540000  1
  C  2093  1  0.50350200  0.06608200  0.91094600  1
  C  2094  1  0.48699900  0.07767500  0.89740000  1
  C  2095  1  0.46281500  0.06979700  0.89283200  1
  C  2096  1  0.45620600  0.04953300  0.90199900  1
  C  2123  1  0.62330700  0.92066200  0.07756500  1
  C  2124  1  0.44950600  0.08101200  0.07490400  1
  C  2125  1  0.44505300  0.08145500  0.88091200  1
  C  2126  1  0.62016400  0.92101700  0.87165800  1
  C  2131  1  0.03384300  0.00158000  0.54444700  1
  C  2132  1  0.05155500  0.01780600  0.54479500  1
  C  2133  1  0.05765300  0.02318800  0.52347100  1
  C  2135  1  0.02875500  0.99636200  0.52289900  1
  C  2136  1  0.01122600  0.98042900  0.51602200  1
  C  2137  1  0.00641500  0.97527500  0.49392400  1
  C  2139  1  0.00734100  0.97514500  0.45745400  1
  C  2140  1  0.98956670  0.96012700  0.46422900  1
  C  2141  1  0.98905870  0.96015500  0.48656300  1
  C  2142  1  0.01319700  0.98025700  0.43554200  1
  C  2143  1  0.03075700  0.99644400  0.42934800  1
  C  2145  1  0.05945000  0.02340400  0.42990800  1
  C  2146  1  0.05399200  0.01843900  0.40835300  1
  C  2147  1  0.03654000  0.00199900  0.40801300  1
  C  2148  1  0.07643800  0.03978200  0.43678700  1
  C  2149  1  0.08145000  0.04480200  0.45887600  1
  C  2151  1  0.08079500  0.04475000  0.49536700  1
  C  2152  1  0.09653000  0.06138200  0.48851500  1
  C  2153  1  0.09702200  0.06134900  0.46617600  1
  C  2154  1  0.07496600  0.03961800  0.51729200  1
  C  2155  1  0.08636900  0.05261100  0.53394800  1
  C  2156  1  0.11194700  0.05086500  0.53898100  1
  C  2157  1  0.12325700  0.06473100  0.55429600  1
  C  2158  1  0.10942600  0.08084200  0.56529600  1
  C  2159  1  0.08378000  0.08235900  0.56028000  1
  C  2160  1  0.07252500  0.06868100  0.54484900  1
  C  2161  1  0.08822500  0.05302200  0.42062200  1
  C  2162  1  0.11259600  0.04872400  0.41326900  1
  C  2163  1  0.12447300  0.06261800  0.39831500  1
  C  2164  1  0.11245900  0.08136500  0.39022100  1
  C  2165  1  0.08805100  0.08553700  0.39771800  1
  C  2166  1  0.07621000  0.07174200  0.41268900  1
  C  2167  1  0.99916573  0.96936600  0.41894200  1
  C  2168  1  0.97806170  0.97943400  0.40981600  1
  C  2169  1  0.96220170  0.96806300  0.39564600  1
  C  2170  1  0.96666470  0.94615500  0.38998800  1
  C  2171  1  0.98814870  0.93626200  0.39883300  1
  C  2172  1  0.00405300  0.94762800  0.41308700  1
  C  2173  1  0.99615673  0.96977300  0.53203300  1
  C  2174  1  0.97224270  0.97784200  0.53678700  1
  C  2175  1  0.00314800  0.94976700  0.54139300  1
  C  2176  1  0.98666170  0.93814900  0.55492100  1
  C  2177  1  0.96245270  0.94596400  0.55940700  1
  C  2178  1  0.95579770  0.96618000  0.55016200  1
  C  2205  1  0.12322500  0.09522900  0.37488800  1
  C  2206  1  0.94917670  0.93497500  0.37735800  1
  C  2207  1  0.94470670  0.93428700  0.57131800  1
  C  2208  1  0.11979100  0.09476800  0.58083800  1
  C  2213  1  0.28534900  0.19031500  0.71962800  1
  C  2214  1  0.30293000  0.19024700  0.73595500  1
  C  2215  1  0.30835900  0.21165300  0.74153300  1
  C  2217  1  0.27968400  0.21176800  0.71442800  1
  C  2218  1  0.26226600  0.21827200  0.69817800  1
  C  2219  1  0.25679600  0.24031300  0.69326700  1
  C  2221  1  0.25680000  0.27681200  0.69353100  1
  C  2222  1  0.24008600  0.26984500  0.67769000  1
  C  2223  1  0.24032200  0.24751400  0.67733800  1
  C  2224  1  0.26203100  0.29878900  0.69889400  1
  C  2225  1  0.27934000  0.30524000  0.71519700  1
  C  2227  1  0.30825500  0.30511400  0.74198900  1
  C  2228  1  0.30202700  0.32657000  0.73732500  1
  C  2229  1  0.28442500  0.32664700  0.72099800  1
  C  2230  1  0.32559800  0.29850700  0.75819800  1
  C  2231  1  0.33111500  0.27649800  0.76314000  1
  C  2233  1  0.33108500  0.24000800  0.76310400  1
  C  2234  1  0.34687100  0.24707600  0.77961900  1
  C  2235  1  0.34701400  0.26942000  0.77955200  1
  C  2236  1  0.32560200  0.21801400  0.75798100  1
  C  2237  1  0.33754300  0.20144900  0.77076600  1
  C  2238  1  0.36328000  0.19712900  0.76897300  1
  C  2239  1  0.37494000  0.18136900  0.78209200  1
  C  2240  1  0.36127700  0.16910500  0.79737300  1
  C  2241  1  0.33552900  0.17349900  0.79910600  1
  C  2242  1  0.32395700  0.18947700  0.78626800  1
  C  2243  1  0.33705100  0.31483400  0.77147500  1
  C  2244  1  0.36091400  0.32318300  0.76678200  1
  C  2245  1  0.37247400  0.33834300  0.78067300  1
  C  2246  1  0.36064600  0.34565800  0.79981200  1
  C  2247  1  0.33674900  0.33715800  0.80436500  1
  C  2248  1  0.32522000  0.32200000  0.79056700  1
  C  2249  1  0.24759800  0.31517800  0.68811200  1
  C  2250  1  0.22609300  0.32353400  0.69814600  1
  C  2251  1  0.20992400  0.33752200  0.68690500  1
  C  2252  1  0.21441200  0.34370400  0.66513500  1
  C  2253  1  0.23627300  0.33561100  0.65527300  1
  C  2254  1  0.25253000  0.32158300  0.66653000  1
  C  2255  1  0.25015400  0.20183200  0.68534300  1
  C  2256  1  0.22444700  0.19739500  0.68733100  1
  C  2257  1  0.26356600  0.19016400  0.66952000  1
  C  2258  1  0.25187300  0.17435700  0.65656000  1
  C  2259  1  0.22615700  0.16990000  0.65845700  1
  C  2260  1  0.21264100  0.18183400  0.67406200  1
  C  2287  1  0.37106500  0.36112000  0.81376000  1
  C  2288  1  0.19667700  0.35619900  0.65411100  1
  C  2289  1  0.21566900  0.15317500  0.64620600  1
  C  2290  1  0.37173200  0.15228400  0.80956900  1
  C  2295  1  0.78536400  0.82534300  0.73276000  1
  C  2296  1  0.80289600  0.82542000  0.71642500  1
  C  2297  1  0.80832900  0.80401800  0.71086400  1
  C  2299  1  0.77972300  0.80388800  0.73798300  1
  C  2300  1  0.76235200  0.79738400  0.75424900  1
  C  2301  1  0.75689800  0.77532700  0.75913300  1
  C  2303  1  0.75688700  0.73881600  0.75881700  1
  C  2304  1  0.74022300  0.74575800  0.77467100  1
  C  2305  1  0.74047600  0.76809000  0.77505700  1
  C  2306  1  0.76209000  0.71684200  0.75343900  1
  C  2307  1  0.77938300  0.71040600  0.73715300  1
  C  2309  1  0.80827700  0.71054400  0.71038400  1
  C  2310  1  0.80204200  0.68908500  0.71504800  1
  C  2311  1  0.78445800  0.68900200  0.73135700  1
  C  2312  1  0.82561100  0.71715100  0.69418900  1
  C  2313  1  0.83111100  0.73917600  0.68927300  1
  C  2315  1  0.83102600  0.77567600  0.68930400  1
  C  2316  1  0.84675800  0.76863100  0.67277900  1
  C  2317  1  0.84695800  0.74628600  0.67286400  1
  C  2318  1  0.82553900  0.79766700  0.69442100  1
  C  2319  1  0.83743600  0.81424400  0.68162000  1
  C  2320  1  0.86318000  0.81859900  0.68338900  1
  C  2321  1  0.87479500  0.83435900  0.67024600  1
  C  2322  1  0.86108600  0.84658600  0.65494900  1
  C  2323  1  0.83533100  0.84216100  0.65324100  1
  C  2324  1  0.82380100  0.82618800  0.66610900  1
  C  2325  1  0.83706400  0.70082900  0.68091600  1
  C  2326  1  0.86099000  0.69257600  0.68556000  1
  C  2327  1  0.87255800  0.67745400  0.67165500  1
  C  2328  1  0.86068500  0.67006900  0.65253600  1
  C  2329  1  0.83673400  0.67848600  0.64802100  1
  C  2330  1  0.82520100  0.69360500  0.66182900  1
  C  2331  1  0.74769500  0.70043500  0.76423700  1
  C  2332  1  0.72615300  0.69206700  0.75421100  1
  C  2333  1  0.70997400  0.67811100  0.76547300  1
  C  2334  1  0.71450500  0.67194800  0.78725100  1
  C  2335  1  0.73640900  0.68004800  0.79710300  1
  C  2336  1  0.75268300  0.69403300  0.78581900  1
  C  2337  1  0.75026600  0.81381800  0.76709800  1
  C  2338  1  0.72453400  0.81819500  0.76519200  1
  C  2339  1  0.76373500  0.82554600  0.78288000  1
  C  2340  1  0.75208300  0.84132800  0.79586900  1
  C  2341  1  0.72634200  0.84572400  0.79405400  1
  C  2342  1  0.71276900  0.83373700  0.77848600  1
  C  2369  1  0.87110800  0.65464200  0.63855700  1
  C  2370  1  0.69675700  0.65949000  0.79829600  1
  C  2371  1  0.71590300  0.86244800  0.80633700  1
  C  2372  1  0.87149600  0.86340600  0.64271900  1
  C  2377  1  0.80684100  0.82614500  0.23321300  1
  C  2378  1  0.78930800  0.82622700  0.21684800  1
  C  2379  1  0.78379000  0.80482400  0.21133100  1
  C  2381  1  0.81238200  0.80468700  0.23850200  1
  C  2382  1  0.82969500  0.79816800  0.25483200  1
  C  2383  1  0.83509100  0.77612000  0.25979300  1
  C  2385  1  0.83498300  0.73961000  0.25959000  1
  C  2386  1  0.85166200  0.74656700  0.27546300  1
  C  2387  1  0.85150200  0.76890400  0.27576300  1
  C  2388  1  0.82965400  0.71763400  0.25428500  1
  C  2389  1  0.81236700  0.71120800  0.23795400  1
  C  2391  1  0.78357300  0.71136800  0.21105800  1
  C  2392  1  0.78951100  0.68989600  0.21593300  1
  C  2393  1  0.80704900  0.68979900  0.23231100  1
  C  2394  1  0.76633500  0.71799500  0.19477100  1
  C  2395  1  0.76092400  0.74000800  0.18976800  1
  C  2397  1  0.76106200  0.77648500  0.18975200  1
  C  2398  1  0.74546000  0.76943500  0.17309800  1
  C  2399  1  0.74526500  0.74709600  0.17318600  1
  C  2400  1  0.76658000  0.79847200  0.19485600  1
  C  2401  1  0.75468400  0.81502100  0.18202400  1
  C  2402  1  0.72889800  0.81921700  0.18361600  1
  C  2403  1  0.71725000  0.83484500  0.17033100  1
  C  2404  1  0.73099600  0.84708700  0.15509900  1
  C  2405  1  0.75678900  0.84284500  0.15357200  1
  C  2406  1  0.76834000  0.82698000  0.16655900  1
  C  2407  1  0.75462200  0.70168300  0.18164900  1
  C  2408  1  0.73007900  0.69460100  0.18571700  1
  C  2409  1  0.71818200  0.67966400  0.17180900  1
  C  2410  1  0.73034600  0.67132000  0.15326700  1
  C  2411  1  0.75493200  0.67853200  0.14933300  1
  C  2412  1  0.76679600  0.69348600  0.16314400  1
  C  2413  1  0.84381900  0.70118500  0.26525600  1
  C  2414  1  0.86529100  0.69254400  0.25540300  1
  C  2415  1  0.88109100  0.67833700  0.26677800  1
  C  2416  1  0.87620500  0.67215300  0.28848000  1
  C  2417  1  0.85439100  0.68055400  0.29816300  1
  C  2418  1  0.83852000  0.69481800  0.28678100  1
  C  2419  1  0.84186500  0.81462500  0.26760000  1
  C  2420  1  0.86757600  0.81899600  0.26554200  1
  C  2421  1  0.82848800  0.82652900  0.28327200  1
  C  2422  1  0.84021600  0.84251100  0.29599900  1
  C  2423  1  0.86593500  0.84692300  0.29401300  1
  C  2424  1  0.87941100  0.83472200  0.27858700  1
  C  2451  1  0.71950700  0.65606600  0.13935200  1
  C  2452  1  0.89360200  0.65944900  0.29968100  1
  C  2453  1  0.87647800  0.86386200  0.30594700  1
  C  2454  1  0.72057100  0.86380000  0.14278000  1
  C  2459  1  0.30699500  0.18951200  0.21930400  1
  C  2460  1  0.28945300  0.18943100  0.23562900  1
  C  2461  1  0.28397900  0.21083100  0.24115500  1
  C  2463  1  0.31258000  0.21096700  0.21403100  1
  C  2464  1  0.32992700  0.21747900  0.19774500  1
  C  2465  1  0.33531800  0.23954100  0.19281400  1
  C  2467  1  0.33517800  0.27606300  0.19301800  1
  C  2468  1  0.35184000  0.26912600  0.17716200  1
  C  2469  1  0.35169700  0.24678800  0.17685900  1
  C  2470  1  0.32985500  0.29804000  0.19830900  1
  C  2471  1  0.31257700  0.30446400  0.21461300  1
  C  2473  1  0.28378800  0.30430300  0.24147000  1
  C  2474  1  0.28973300  0.32577400  0.23658700  1
  C  2475  1  0.30726800  0.32587200  0.22023700  1
  C  2476  1  0.26653900  0.29768300  0.25772900  1
  C  2477  1  0.26118800  0.27565500  0.26274700  1
  C  2479  1  0.26132700  0.23916600  0.26274500  1
  C  2480  1  0.24573600  0.24620300  0.27937600  1
  C  2481  1  0.24554300  0.26854100  0.27930200  1
  C  2482  1  0.26678800  0.21717900  0.25761300  1
  C  2483  1  0.25485600  0.20062500  0.27041500  1
  C  2484  1  0.22905800  0.19644900  0.26877800  1
  C  2485  1  0.21736300  0.18085200  0.28206300  1
  C  2486  1  0.23106800  0.16861900  0.29734900  1
  C  2487  1  0.25687800  0.17282300  0.29890000  1
  C  2488  1  0.26847700  0.18865800  0.28591500  1
  C  2489  1  0.25483000  0.31398900  0.27085100  1
  C  2490  1  0.23028100  0.32106100  0.26676500  1
  C  2491  1  0.21838600  0.33597100  0.28067500  1
  C  2492  1  0.23054500  0.34431200  0.29925300  1
  C  2493  1  0.25513800  0.33711300  0.30320500  1
  C  2494  1  0.26699600  0.32218200  0.28939600  1
  C  2495  1  0.34400100  0.31449600  0.18732600  1
  C  2496  1  0.36551100  0.32315300  0.19715800  1
  C  2497  1  0.38130000  0.33734200  0.18575700  1
  C  2498  1  0.37636500  0.34349200  0.16404300  1
  C  2499  1  0.35448500  0.33510800  0.15439400  1
  C  2500  1  0.33863300  0.32085300  0.16579800  1
  C  2501  1  0.34209100  0.20102600  0.18497700  1
  C  2502  1  0.36783200  0.19673300  0.18696500  1
  C  2503  1  0.32869600  0.18908600  0.16930200  1
  C  2504  1  0.34041900  0.17316300  0.15652700  1
  C  2505  1  0.36616100  0.16881900  0.15845900  1
  C  2506  1  0.37966200  0.18105900  0.17387800  1
  C  2533  1  0.21971900  0.35956000  0.31317800  1
  C  2534  1  0.39374700  0.35618500  0.15281800  1
  C  2535  1  0.37670200  0.15193700  0.14644400  1
  C  2536  1  0.22059900  0.15192300  0.30966500  1
  C  2541  1  0.03523300  0.51405200  0.40789500  1
  C  2542  1  0.05287300  0.49780000  0.40788200  1
  C  2543  1  0.05832100  0.49228700  0.42930500  1
  C  2545  1  0.02955600  0.51929300  0.42933000  1
  C  2546  1  0.01214300  0.53554000  0.43577800  1
  C  2547  1  0.00661500  0.54051300  0.45779400  1
  C  2549  1  0.00671300  0.54053000  0.49430400  1
  C  2550  1  0.99034273  0.55657600  0.48724800  1
  C  2551  1  0.99045773  0.55670000  0.46490500  1
  C  2552  1  0.01220000  0.53552900  0.51632100  1
  C  2553  1  0.02943800  0.51919600  0.52284700  1
  C  2555  1  0.05809300  0.49220400  0.52282100  1
  C  2556  1  0.05260000  0.49750100  0.54426900  1
  C  2557  1  0.03524400  0.51401000  0.54428400  1
  C  2558  1  0.07521500  0.47583500  0.51626800  1
  C  2559  1  0.08070800  0.47079600  0.49426800  1
  C  2561  1  0.08093400  0.47081600  0.45776100  1
  C  2562  1  0.09662700  0.45430100  0.46493500  1
  C  2563  1  0.09662700  0.45438600  0.48727600  1
  C  2564  1  0.07561000  0.47590800  0.43572100  1
  C  2565  1  0.08766100  0.46311800  0.41921900  1
  C  2566  1  0.11347400  0.46476200  0.41513500  1
  C  2567  1  0.12523000  0.45157000  0.39950700  1
  C  2568  1  0.11158600  0.43635600  0.38713100  1
  C  2569  1  0.08576800  0.43477400  0.39126400  1
  C  2570  1  0.07411000  0.44767200  0.40711900  1
  C  2571  1  0.08671300  0.46258500  0.53260900  1
  C  2572  1  0.11033500  0.46762200  0.54129100  1
  C  2573  1  0.12273000  0.45308200  0.55530000  1
  C  2574  1  0.11213400  0.43284200  0.56098600  1
  C  2575  1  0.08828500  0.42812500  0.55241900  1
  C  2576  1  0.07581800  0.44264600  0.53855400  1
  C  2577  1  0.00016600  0.54833000  0.53273400  1
  C  2578  1  0.97868370  0.54087300  0.54360700  1
  C  2579  1  0.96671970  0.55377100  0.55935300  1
  C  2580  1  0.97565270  0.57468000  0.56457300  1
  C  2581  1  0.99710673  0.58212500  0.55365500  1
  C  2582  1  0.00902800  0.56926600  0.53790400  1
  C  2583  1  0.00011400  0.54835200  0.41927400  1
  C  2584  1  0.97439970  0.54638600  0.41486400  1
  C  2585  1  0.01358900  0.56407000  0.40747700  1
  C  2586  1  0.00194500  0.57692800  0.39155200  1
  C  2587  1  0.97621870  0.57503300  0.38710500  1
  C  2588  1  0.96265070  0.55955000  0.39918800  1
  C  2615  1  0.12451000  0.41713500  0.57342500  1
  C  2616  1  0.96608470  0.58649700  0.58186000  1
  C  2617  1  0.96573270  0.58711900  0.37024700  1
  C  2618  1  0.12209700  0.42411800  0.37039300  1
  C  2623  1  0.53514200  0.50156200  0.04444400  1
  C  2624  1  0.55276200  0.51784900  0.04448500  1
  C  2625  1  0.55820800  0.52335800  0.02306700  1
  C  2627  1  0.52947900  0.49630200  0.02300000  1
  C  2628  1  0.51208900  0.48002000  0.01652400  1
  C  2629  1  0.50657700  0.47507500  0.99448900  1
  C  2631  1  0.50670100  0.47514200  0.95798500  1
  C  2632  1  0.49030500  0.45907600  0.96496700  1
  C  2633  1  0.49042200  0.45888900  0.98731000  1
  C  2634  1  0.51221700  0.48018500  0.93599400  1
  C  2635  1  0.52945100  0.49653000  0.92949100  1
  C  2637  1  0.55812400  0.52353100  0.92956300  1
  C  2638  1  0.55260800  0.51824800  0.90810500  1
  C  2639  1  0.53524000  0.50173100  0.90806200  1
  C  2640  1  0.57526300  0.53990600  0.93614300  1
  C  2641  1  0.58072200  0.54493100  0.95816100  1
  C  2643  1  0.58084700  0.54488400  0.99466200  1
  C  2644  1  0.59655400  0.56142700  0.98756100  1
  C  2645  1  0.59663800  0.56134100  0.96521900  1
  C  2646  1  0.57547700  0.53976000  0.01667400  1
  C  2647  1  0.58749200  0.55255200  0.03320500  1
  C  2648  1  0.61327900  0.55084900  0.03741000  1
  C  2649  1  0.62501100  0.56402300  0.05309000  1
  C  2650  1  0.61136000  0.57926700  0.06537400  1
  C  2651  1  0.58556700  0.58090400  0.06112400  1
  C  2652  1  0.57393200  0.56802200  0.04521700  1
  C  2653  1  0.58676800  0.55317600  0.91982900  1
  C  2654  1  0.61033300  0.54810700  0.91110800  1
  C  2655  1  0.62274600  0.56265400  0.89712200  1
  C  2656  1  0.61221200  0.58292200  0.89146400  1
  C  2657  1  0.58841500  0.58767200  0.90006800  1
  C  2658  1  0.57595200  0.57315900  0.91393600  1
  C  2659  1  0.50016400  0.46742700  0.91954700  1
  C  2660  1  0.47867300  0.47491900  0.90868800  1
  C  2661  1  0.46670000  0.46207500  0.89287800  1
  C  2662  1  0.47563900  0.44119900  0.88760200  1
  C  2663  1  0.49710000  0.43371600  0.89850700  1
  C  2664  1  0.50903000  0.44652200  0.91432100  1
  C  2665  1  0.50007800  0.46717100  0.03300000  1
  C  2666  1  0.47436000  0.46906800  0.03736900  1
  C  2667  1  0.51358900  0.45150800  0.04484700  1
  C  2668  1  0.50198300  0.43864200  0.06077500  1
  C  2669  1  0.47625600  0.44047300  0.06518900  1
  C  2670  1  0.46265000  0.45589800  0.05305400  1
  C  2697  1  0.62458800  0.59861400  0.87900600  1
  C  2698  1  0.46600300  0.42943500  0.87030500  1
  C  2699  1  0.46581800  0.42838900  0.08206600  1
  C  2700  1  0.62185900  0.59148100  0.08214000  1
  C  2705  1  0.43814300  0.13764000  0.12676800  1
  C  2706  1  0.41164100  0.13846900  0.12558500  1
  C  2707  1  0.40020400  0.12507200  0.10973800  1
  C  2709  1  0.43907300  0.11060800  0.09829800  1
  C  2711  1  0.45411000  0.15076900  0.14225100  1
  C  2712  1  0.48263000  0.14614900  0.13927500  1
  C  2716  1  0.44767500  0.14474900  0.16621100  1
  C  2720  1  0.45042500  0.17561100  0.13832500  1
  C  2728  1  0.93787570  0.87821600  0.32567800  1
  C  2729  1  0.91138170  0.87733200  0.32685600  1
  C  2730  1  0.89993400  0.89070600  0.34267900  1
  C  2732  1  0.93878470  0.90528000  0.35410000  1
  C  2734  1  0.95383370  0.86510800  0.31021800  1
  C  2735  1  0.98235370  0.86978400  0.31321600  1
  C  2739  1  0.94735370  0.87110300  0.28625100  1
  C  2743  1  0.95018470  0.84026000  0.31415400  1
  C  2751  1  0.18418100  0.40825500  0.59791600  1
  C  2752  1  0.15767900  0.40710200  0.59753500  1
  C  2753  1  0.14642300  0.39182100  0.61164300  1
  C  2755  1  0.18563100  0.37941500  0.62454600  1
  C  2757  1  0.19980700  0.42392100  0.58472200  1
  C  2758  1  0.22843800  0.42068600  0.58861800  1
  C  2762  1  0.19375000  0.44780400  0.59131500  1
  C  2766  1  0.19523500  0.42051700  0.55991900  1
  C  2774  1  0.68424200  0.60745600  0.85452100  1
  C  2775  1  0.65774200  0.60863400  0.85490200  1
  C  2776  1  0.64649700  0.62391600  0.84077900  1
  C  2778  1  0.68570900  0.63627800  0.82786700  1
  C  2780  1  0.69986100  0.59178500  0.86772700  1
  C  2781  1  0.72849200  0.59499100  0.86383200  1
  C  2785  1  0.69372800  0.56790200  0.86115000  1
  C  2789  1  0.69536100  0.59521100  0.89252800  1
  C  2797  1  0.15969500  0.13666500  0.32919200  1
  C  2798  1  0.18607300  0.13866300  0.33090200  1
  C  2799  1  0.19778200  0.12646800  0.34755200  1
  C  2801  1  0.15945900  0.11099200  0.35895000  1
  C  2803  1  0.14347000  0.14844700  0.31286100  1
  C  2804  1  0.11517500  0.14261100  0.31539100  1
  C  2808  1  0.15099500  0.14190000  0.28929500  1
  C  2812  1  0.14558000  0.17354200  0.31593000  1
  C  2820  1  0.65970600  0.87914300  0.12322400  1
  C  2821  1  0.68606900  0.87709800  0.12151800  1
  C  2822  1  0.69779700  0.88927200  0.10487900  1
  C  2824  1  0.65951500  0.90482800  0.09347900  1
  C  2826  1  0.64346400  0.86738700  0.13953900  1
  C  2827  1  0.61518800  0.87327500  0.13699400  1
  C  2831  1  0.65105800  0.87391200  0.16311200  1
  C  2835  1  0.64547600  0.84228800  0.13646100  1
  C  2843  1  0.40601100  0.40703400  0.85588300  1
  C  2844  1  0.43253800  0.40701000  0.85673500  1
  C  2845  1  0.44490300  0.39188200  0.84317500  1
  C  2847  1  0.40679400  0.37862700  0.82874700  1
  C  2849  1  0.38914000  0.42159100  0.86915600  1
  C  2850  1  0.36085200  0.41757500  0.86415900  1
  C  2854  1  0.39443000  0.44591700  0.86378200  1
  C  2858  1  0.39280600  0.41728200  0.89393600  1
  C  2866  1  0.90601670  0.60871500  0.59641800  1
  C  2867  1  0.93254470  0.60878800  0.59555000  1
  C  2868  1  0.94491070  0.62392600  0.60913900  1
  C  2870  1  0.90681270  0.63713000  0.62356400  1
  C  2872  1  0.88912900  0.59411800  0.58314900  1
  C  2873  1  0.86084900  0.59807900  0.58814100  1
  C  2877  1  0.89446200  0.56980400  0.58853200  1
  C  2881  1  0.89272400  0.59842300  0.55836700  1
  C  2889  1  0.65540500  0.87823000  0.82628000  1
  C  2890  1  0.68174900  0.87583400  0.82787700  1
  C  2891  1  0.69377200  0.88779500  0.84452400  1
  C  2893  1  0.65584000  0.90385400  0.85607500  1
  C  2895  1  0.63886200  0.86667700  0.81002900  1
  C  2896  1  0.61069700  0.87288000  0.81269500  1
  C  2900  1  0.64636700  0.87312600  0.78642300  1
  C  2904  1  0.64053900  0.84155400  0.81309200  1
  C  2912  1  0.15515700  0.13751100  0.62619500  1
  C  2913  1  0.18149700  0.13989600  0.62460500  1
  C  2914  1  0.19348500  0.12795200  0.60796300  1
  C  2916  1  0.15551700  0.11190500  0.59640200  1
  C  2918  1  0.13866000  0.14906000  0.64244100  1
  C  2919  1  0.11047600  0.14287800  0.63973900  1
  C  2923  1  0.14618300  0.14257800  0.66604500  1
  C  2927  1  0.14038800  0.17418500  0.63940500  1
  C  2935  1  0.90447570  0.60722200  0.35607000  1
  C  2936  1  0.93098170  0.60827400  0.35694600  1
  C  2937  1  0.94253670  0.62415400  0.34368400  1
  C  2939  1  0.90376170  0.63582600  0.32916400  1
  C  2941  1  0.88841400  0.59175600  0.36910900  1
  C  2942  1  0.85991300  0.59491900  0.36447400  1
  C  2946  1  0.89468800  0.56779700  0.36297900  1
  C  2950  1  0.89214000  0.59551400  0.39397600  1
  C  2958  1  0.40456000  0.40835700  0.09636300  1
  C  2959  1  0.43106000  0.40728300  0.09546000  1
  C  2960  1  0.44262300  0.39140600  0.10873000  1
  C  2962  1  0.40387300  0.37977500  0.12329700  1
  C  2964  1  0.38848400  0.42382300  0.08332500  1
  C  2965  1  0.35999300  0.42069700  0.08800200  1
  C  2969  1  0.39484800  0.44778300  0.08941300  1
  C  2973  1  0.39208900  0.42002400  0.05845900  1
  C  2981  1  0.93315870  0.87950500  0.62529200  1
  C  2982  1  0.90685970  0.87744300  0.62285600  1
  C  2983  1  0.89573900  0.88971100  0.60596700  1
  C  2985  1  0.93443270  0.90556300  0.59591400  1
  C  2987  1  0.94879970  0.86757600  0.64195000  1
  C  2988  1  0.97715770  0.87347100  0.64028000  1
  C  2992  1  0.94041170  0.87387500  0.66536600  1
  C  2996  1  0.94687070  0.84250700  0.63855600  1
  C  3004  1  0.43341800  0.13628100  0.82701800  1
  C  3005  1  0.40712700  0.13831700  0.82945200  1
  C  3006  1  0.39603800  0.12603400  0.84633100  1
  C  3008  1  0.43475000  0.11021900  0.85638300  1
  C  3010  1  0.44901900  0.14823200  0.81036600  1
  C  3011  1  0.47738100  0.14236200  0.81203900  1
  C  3015  1  0.44057200  0.14193300  0.78694600  1
  C  3019  1  0.44710200  0.17329700  0.81376800  1
  C  3027  1  0.68284500  0.61073000  0.09763400  1
  C  3028  1  0.65648400  0.61253800  0.09557700  1
  C  3029  1  0.64485100  0.62917300  0.10780100  1
  C  3031  1  0.68320500  0.64037700  0.12340500  1
  C  3033  1  0.69900300  0.59440000  0.08584200  1
  C  3034  1  0.72729800  0.59681300  0.09176100  1
  C  3038  1  0.69130900  0.57083200  0.09229100  1
  C  3042  1  0.69698200  0.59758600  0.06075100  1
  C  3050  1  0.18310200  0.40492600  0.35490100  1
  C  3051  1  0.15674200  0.40310200  0.35694400  1
  C  3052  1  0.14509700  0.38647700  0.34466900  1
  C  3054  1  0.18344200  0.37528600  0.32910400  1
  C  3056  1  0.19927600  0.42126600  0.36672000  1
  C  3057  1  0.22756000  0.41889500  0.36081600  1
  C  3061  1  0.19156500  0.44483300  0.36029400  1
  C  3065  1  0.19729900  0.41805200  0.39180600  1
  C  3073  1  0.31139500  0.01423300  0.90790200  1
  C  3074  1  0.32909200  0.99800900  0.90757400  1
  C  3075  1  0.33524000  0.99265800  0.92890500  1
  C  3077  1  0.30634200  0.01946500  0.92944200  1
  C  3078  1  0.28885300  0.03541100  0.93629200  1
  C  3079  1  0.28403900  0.04060300  0.95837300  1
  C  3081  1  0.28494000  0.04080900  0.99485200  1
  C  3082  1  0.26719200  0.05581100  0.98800600  1
  C  3083  1  0.26670900  0.05574600  0.96567000  1
  C  3084  1  0.29077600  0.03573600  0.01678900  1
  C  3085  1  0.30829200  0.01951900  0.02299900  1
  C  3087  1  0.33692300  0.99253100  0.02247600  1
  C  3088  1  0.33148500  0.99749900  0.04402100  1
  C  3089  1  0.31406500  0.01394800  0.04433900  1
  C  3090  1  0.35387300  0.97614100  0.01561900  1
  C  3091  1  0.35896600  0.97114600  0.99354800  1
  C  3093  1  0.35840600  0.97117900  0.95704800  1
  C  3094  1  0.37409700  0.95454900  0.96396800  1
  C  3095  1  0.37452900  0.95459100  0.98631000  1
  C  3096  1  0.35258800  0.97625900  0.93509800  1
  C  3097  1  0.36400400  0.96325500  0.91846400  1
  C  3098  1  0.38961700  0.96490600  0.91356300  1
  C  3099  1  0.40092300  0.95102300  0.89828500  1
  C  3100  1  0.38706500  0.93496900  0.88717600  1
  C  3101  1  0.36138700  0.93353800  0.89206800  1
  C  3102  1  0.35014000  0.94722600  0.90746900  1
  C  3103  1  0.36563200  0.96290900  0.03181300  1
  C  3104  1  0.39004400  0.96715600  0.03915600  1
  C  3105  1  0.40189400  0.95324700  0.05412200  1
  C  3106  1  0.38981000  0.93453900  0.06223000  1
  C  3107  1  0.36535900  0.93042200  0.05474600  1
  C  3108  1  0.35354200  0.94423300  0.03976700  1
  C  3109  1  0.27675400  0.04664800  0.03336400  1
  C  3110  1  0.25568500  0.03656000  0.04251800  1
  C  3111  1  0.23983600  0.04791900  0.05667100  1
  C  3112  1  0.24426700  0.06984700  0.06231100  1
  C  3113  1  0.26568500  0.07977900  0.05340800  1
  C  3114  1  0.28157800  0.06842100  0.03917500  1
  C  3115  1  0.27378400  0.04604600  0.92025000  1
  C  3116  1  0.24991100  0.03789700  0.91540000  1
  C  3117  1  0.28075100  0.06608200  0.91094600  1
  C  3118  1  0.26424800  0.07767500  0.89740000  1
  C  3119  1  0.24006400  0.06979700  0.89283200  1
  C  3120  1  0.23345500  0.04953300  0.90199900  1
  C  3147  1  0.40055600  0.92066200  0.07756500  1
  C  3148  1  0.22675500  0.08101200  0.07490400  1
  C  3149  1  0.22230200  0.08145500  0.88091200  1
  C  3150  1  0.39741300  0.92101700  0.87165800  1
  C  3155  1  0.81109200  0.00158000  0.54444700  1
  C  3156  1  0.82880400  0.01780600  0.54479500  1
  C  3157  1  0.83490200  0.02318800  0.52347100  1
  C  3159  1  0.80600400  0.99636200  0.52289900  1
  C  3160  1  0.78847500  0.98042900  0.51602200  1
  C  3161  1  0.78366400  0.97527500  0.49392400  1
  C  3163  1  0.78459000  0.97514500  0.45745400  1
  C  3164  1  0.76681600  0.96012700  0.46422900  1
  C  3165  1  0.76630800  0.96015500  0.48656300  1
  C  3166  1  0.79044600  0.98025700  0.43554200  1
  C  3167  1  0.80800600  0.99644400  0.42934800  1
  C  3169  1  0.83669900  0.02340400  0.42990800  1
  C  3170  1  0.83124100  0.01843900  0.40835300  1
  C  3171  1  0.81378900  0.00199900  0.40801300  1
  C  3172  1  0.85368700  0.03978200  0.43678700  1
  C  3173  1  0.85869900  0.04480200  0.45887600  1
  C  3175  1  0.85804400  0.04475000  0.49536700  1
  C  3176  1  0.87377900  0.06138200  0.48851500  1
  C  3177  1  0.87427100  0.06134900  0.46617600  1
  C  3178  1  0.85221500  0.03961800  0.51729200  1
  C  3179  1  0.86361800  0.05261100  0.53394800  1
  C  3180  1  0.88919600  0.05086500  0.53898100  1
  C  3181  1  0.90050610  0.06473100  0.55429600  1
  C  3182  1  0.88667500  0.08084200  0.56529600  1
  C  3183  1  0.86102900  0.08235900  0.56028000  1
  C  3184  1  0.84977400  0.06868100  0.54484900  1
  C  3185  1  0.86547400  0.05302200  0.42062200  1
  C  3186  1  0.88984500  0.04872400  0.41326900  1
  C  3187  1  0.90172210  0.06261800  0.39831500  1
  C  3188  1  0.88970800  0.08136500  0.39022100  1
  C  3189  1  0.86530000  0.08553700  0.39771800  1
  C  3190  1  0.85345900  0.07174200  0.41268900  1
  C  3191  1  0.77641500  0.96936600  0.41894200  1
  C  3192  1  0.75531100  0.97943400  0.40981600  1
  C  3193  1  0.73945100  0.96806300  0.39564600  1
  C  3194  1  0.74391400  0.94615500  0.38998800  1
  C  3195  1  0.76539800  0.93626200  0.39883300  1
  C  3196  1  0.78130200  0.94762800  0.41308700  1
  C  3197  1  0.77340600  0.96977300  0.53203300  1
  C  3198  1  0.74949200  0.97784200  0.53678700  1
  C  3199  1  0.78039700  0.94976700  0.54139300  1
  C  3200  1  0.76391100  0.93814900  0.55492100  1
  C  3201  1  0.73970200  0.94596400  0.55940700  1
  C  3202  1  0.73304700  0.96618000  0.55016200  1
  C  3229  1  0.90047410  0.09522900  0.37488800  1
  C  3230  1  0.72642600  0.93497500  0.37735800  1
  C  3231  1  0.72195600  0.93428700  0.57131800  1
  C  3232  1  0.89704000  0.09476800  0.58083800  1
  C  3237  1  0.06259800  0.19031500  0.71962800  1
  C  3238  1  0.08017900  0.19024700  0.73595500  1
  C  3239  1  0.08560800  0.21165300  0.74153300  1
  C  3241  1  0.05693300  0.21176800  0.71442800  1
  C  3242  1  0.03951500  0.21827200  0.69817800  1
  C  3243  1  0.03404500  0.24031300  0.69326700  1
  C  3245  1  0.03404900  0.27681200  0.69353100  1
  C  3246  1  0.01733500  0.26984500  0.67769000  1
  C  3247  1  0.01757100  0.24751400  0.67733800  1
  C  3248  1  0.03928000  0.29878900  0.69889400  1
  C  3249  1  0.05658900  0.30524000  0.71519700  1
  C  3251  1  0.08550400  0.30511400  0.74198900  1
  C  3252  1  0.07927600  0.32657000  0.73732500  1
  C  3253  1  0.06167400  0.32664700  0.72099800  1
  C  3254  1  0.10284700  0.29850700  0.75819800  1
  C  3255  1  0.10836400  0.27649800  0.76314000  1
  C  3257  1  0.10833400  0.24000800  0.76310400  1
  C  3258  1  0.12412000  0.24707600  0.77961900  1
  C  3259  1  0.12426300  0.26942000  0.77955200  1
  C  3260  1  0.10285100  0.21801400  0.75798100  1
  C  3261  1  0.11479200  0.20144900  0.77076600  1
  C  3262  1  0.14052900  0.19712900  0.76897300  1
  C  3263  1  0.15218900  0.18136900  0.78209200  1
  C  3264  1  0.13852600  0.16910500  0.79737300  1
  C  3265  1  0.11277800  0.17349900  0.79910600  1
  C  3266  1  0.10120600  0.18947700  0.78626800  1
  C  3267  1  0.11430000  0.31483400  0.77147500  1
  C  3268  1  0.13816300  0.32318300  0.76678200  1
  C  3269  1  0.14972300  0.33834300  0.78067300  1
  C  3270  1  0.13789500  0.34565800  0.79981200  1
  C  3271  1  0.11399800  0.33715800  0.80436500  1
  C  3272  1  0.10246900  0.32200000  0.79056700  1
  C  3273  1  0.02484700  0.31517800  0.68811200  1
  C  3274  1  0.00334200  0.32353400  0.69814600  1
  C  3275  1  0.98717310  0.33752200  0.68690500  1
  C  3276  1  0.99166109  0.34370400  0.66513500  1
  C  3277  1  0.01352200  0.33561100  0.65527300  1
  C  3278  1  0.02977900  0.32158300  0.66653000  1
  C  3279  1  0.02740300  0.20183200  0.68534300  1
  C  3280  1  0.00169600  0.19739500  0.68733100  1
  C  3281  1  0.04081500  0.19016400  0.66952000  1
  C  3282  1  0.02912200  0.17435700  0.65656000  1
  C  3283  1  0.00340600  0.16990000  0.65845700  1
  C  3284  1  0.98989010  0.18183400  0.67406200  1
  C  3311  1  0.14831400  0.36112000  0.81376000  1
  C  3312  1  0.97392610  0.35619900  0.65411100  1
  C  3313  1  0.99291809  0.15317500  0.64620600  1
  C  3314  1  0.14898100  0.15228400  0.80956900  1
  C  3319  1  0.56261300  0.82534300  0.73276000  1
  C  3320  1  0.58014500  0.82542000  0.71642500  1
  C  3321  1  0.58557800  0.80401800  0.71086400  1
  C  3323  1  0.55697200  0.80388800  0.73798300  1
  C  3324  1  0.53960100  0.79738400  0.75424900  1
  C  3325  1  0.53414700  0.77532700  0.75913300  1
  C  3327  1  0.53413600  0.73881600  0.75881700  1
  C  3328  1  0.51747200  0.74575800  0.77467100  1
  C  3329  1  0.51772500  0.76809000  0.77505700  1
  C  3330  1  0.53933900  0.71684200  0.75343900  1
  C  3331  1  0.55663200  0.71040600  0.73715300  1
  C  3333  1  0.58552600  0.71054400  0.71038400  1
  C  3334  1  0.57929100  0.68908500  0.71504800  1
  C  3335  1  0.56170700  0.68900200  0.73135700  1
  C  3336  1  0.60286000  0.71715100  0.69418900  1
  C  3337  1  0.60836000  0.73917600  0.68927300  1
  C  3339  1  0.60827500  0.77567600  0.68930400  1
  C  3340  1  0.62400700  0.76863100  0.67277900  1
  C  3341  1  0.62420700  0.74628600  0.67286400  1
  C  3342  1  0.60278800  0.79766700  0.69442100  1
  C  3343  1  0.61468500  0.81424400  0.68162000  1
  C  3344  1  0.64042900  0.81859900  0.68338900  1
  C  3345  1  0.65204400  0.83435900  0.67024600  1
  C  3346  1  0.63833500  0.84658600  0.65494900  1
  C  3347  1  0.61258000  0.84216100  0.65324100  1
  C  3348  1  0.60105000  0.82618800  0.66610900  1
  C  3349  1  0.61431300  0.70082900  0.68091600  1
  C  3350  1  0.63823900  0.69257600  0.68556000  1
  C  3351  1  0.64980700  0.67745400  0.67165500  1
  C  3352  1  0.63793400  0.67006900  0.65253600  1
  C  3353  1  0.61398300  0.67848600  0.64802100  1
  C  3354  1  0.60245000  0.69360500  0.66182900  1
  C  3355  1  0.52494400  0.70043500  0.76423700  1
  C  3356  1  0.50340200  0.69206700  0.75421100  1
  C  3357  1  0.48722300  0.67811100  0.76547300  1
  C  3358  1  0.49175400  0.67194800  0.78725100  1
  C  3359  1  0.51365800  0.68004800  0.79710300  1
  C  3360  1  0.52993200  0.69403300  0.78581900  1
  C  3361  1  0.52751500  0.81381800  0.76709800  1
  C  3362  1  0.50178300  0.81819500  0.76519200  1
  C  3363  1  0.54098400  0.82554600  0.78288000  1
  C  3364  1  0.52933200  0.84132800  0.79586900  1
  C  3365  1  0.50359100  0.84572400  0.79405400  1
  C  3366  1  0.49001800  0.83373700  0.77848600  1
  C  3393  1  0.64835700  0.65464200  0.63855700  1
  C  3394  1  0.47400600  0.65949000  0.79829600  1
  C  3395  1  0.49315200  0.86244800  0.80633700  1
  C  3396  1  0.64874500  0.86340600  0.64271900  1
  C  3401  1  0.58409000  0.82614500  0.23321300  1
  C  3402  1  0.56655700  0.82622700  0.21684800  1
  C  3403  1  0.56103900  0.80482400  0.21133100  1
  C  3405  1  0.58963100  0.80468700  0.23850200  1
  C  3406  1  0.60694400  0.79816800  0.25483200  1
  C  3407  1  0.61234000  0.77612000  0.25979300  1
  C  3409  1  0.61223200  0.73961000  0.25959000  1
  C  3410  1  0.62891100  0.74656700  0.27546300  1
  C  3411  1  0.62875100  0.76890400  0.27576300  1
  C  3412  1  0.60690300  0.71763400  0.25428500  1
  C  3413  1  0.58961600  0.71120800  0.23795400  1
  C  3415  1  0.56082200  0.71136800  0.21105800  1
  C  3416  1  0.56676000  0.68989600  0.21593300  1
  C  3417  1  0.58429800  0.68979900  0.23231100  1
  C  3418  1  0.54358400  0.71799500  0.19477100  1
  C  3419  1  0.53817300  0.74000800  0.18976800  1
  C  3421  1  0.53831100  0.77648500  0.18975200  1
  C  3422  1  0.52270900  0.76943500  0.17309800  1
  C  3423  1  0.52251400  0.74709600  0.17318600  1
  C  3424  1  0.54382900  0.79847200  0.19485600  1
  C  3425  1  0.53193300  0.81502100  0.18202400  1
  C  3426  1  0.50614700  0.81921700  0.18361600  1
  C  3427  1  0.49449900  0.83484500  0.17033100  1
  C  3428  1  0.50824500  0.84708700  0.15509900  1
  C  3429  1  0.53403800  0.84284500  0.15357200  1
  C  3430  1  0.54558900  0.82698000  0.16655900  1
  C  3431  1  0.53187100  0.70168300  0.18164900  1
  C  3432  1  0.50732800  0.69460100  0.18571700  1
  C  3433  1  0.49543100  0.67966400  0.17180900  1
  C  3434  1  0.50759500  0.67132000  0.15326700  1
  C  3435  1  0.53218100  0.67853200  0.14933300  1
  C  3436  1  0.54404500  0.69348600  0.16314400  1
  C  3437  1  0.62106800  0.70118500  0.26525600  1
  C  3438  1  0.64254000  0.69254400  0.25540300  1
  C  3439  1  0.65834000  0.67833700  0.26677800  1
  C  3440  1  0.65345400  0.67215300  0.28848000  1
  C  3441  1  0.63164000  0.68055400  0.29816300  1
  C  3442  1  0.61576900  0.69481800  0.28678100  1
  C  3443  1  0.61911400  0.81462500  0.26760000  1
  C  3444  1  0.64482500  0.81899600  0.26554200  1
  C  3445  1  0.60573700  0.82652900  0.28327200  1
  C  3446  1  0.61746500  0.84251100  0.29599900  1
  C  3447  1  0.64318400  0.84692300  0.29401300  1
  C  3448  1  0.65666000  0.83472200  0.27858700  1
  C  3475  1  0.49675600  0.65606600  0.13935200  1
  C  3476  1  0.67085100  0.65944900  0.29968100  1
  C  3477  1  0.65372700  0.86386200  0.30594700  1
  C  3478  1  0.49782000  0.86380000  0.14278000  1
  C  3483  1  0.08424400  0.18951200  0.21930400  1
  C  3484  1  0.06670200  0.18943100  0.23562900  1
  C  3485  1  0.06122800  0.21083100  0.24115500  1
  C  3487  1  0.08982900  0.21096700  0.21403100  1
  C  3488  1  0.10717600  0.21747900  0.19774500  1
  C  3489  1  0.11256700  0.23954100  0.19281400  1
  C  3491  1  0.11242700  0.27606300  0.19301800  1
  C  3492  1  0.12908900  0.26912600  0.17716200  1
  C  3493  1  0.12894600  0.24678800  0.17685900  1
  C  3494  1  0.10710400  0.29804000  0.19830900  1
  C  3495  1  0.08982600  0.30446400  0.21461300  1
  C  3497  1  0.06103700  0.30430300  0.24147000  1
  C  3498  1  0.06698200  0.32577400  0.23658700  1
  C  3499  1  0.08451700  0.32587200  0.22023700  1
  C  3500  1  0.04378800  0.29768300  0.25772900  1
  C  3501  1  0.03843700  0.27565500  0.26274700  1
  C  3503  1  0.03857600  0.23916600  0.26274500  1
  C  3504  1  0.02298500  0.24620300  0.27937600  1
  C  3505  1  0.02279200  0.26854100  0.27930200  1
  C  3506  1  0.04403700  0.21717900  0.25761300  1
  C  3507  1  0.03210500  0.20062500  0.27041500  1
  C  3508  1  0.00630700  0.19644900  0.26877800  1
  C  3509  1  0.99461209  0.18085200  0.28206300  1
  C  3510  1  0.00831700  0.16861900  0.29734900  1
  C  3511  1  0.03412700  0.17282300  0.29890000  1
  C  3512  1  0.04572600  0.18865800  0.28591500  1
  C  3513  1  0.03207900  0.31398900  0.27085100  1
  C  3514  1  0.00753000  0.32106100  0.26676500  1
  C  3515  1  0.99563509  0.33597100  0.28067500  1
  C  3516  1  0.00779400  0.34431200  0.29925300  1
  C  3517  1  0.03238700  0.33711300  0.30320500  1
  C  3518  1  0.04424500  0.32218200  0.28939600  1
  C  3519  1  0.12125000  0.31449600  0.18732600  1
  C  3520  1  0.14276000  0.32315300  0.19715800  1
  C  3521  1  0.15854900  0.33734200  0.18575700  1
  C  3522  1  0.15361400  0.34349200  0.16404300  1
  C  3523  1  0.13173400  0.33510800  0.15439400  1
  C  3524  1  0.11588200  0.32085300  0.16579800  1
  C  3525  1  0.11934000  0.20102600  0.18497700  1
  C  3526  1  0.14508100  0.19673300  0.18696500  1
  C  3527  1  0.10594500  0.18908600  0.16930200  1
  C  3528  1  0.11766800  0.17316300  0.15652700  1
  C  3529  1  0.14341000  0.16881900  0.15845900  1
  C  3530  1  0.15691100  0.18105900  0.17387800  1
  C  3557  1  0.99696809  0.35956000  0.31317800  1
  C  3558  1  0.17099600  0.35618500  0.15281800  1
  C  3559  1  0.15395100  0.15193700  0.14644400  1
  C  3560  1  0.99784809  0.15192300  0.30966500  1
  C  3565  1  0.81248200  0.51405200  0.40789500  1
  C  3566  1  0.83012200  0.49780000  0.40788200  1
  C  3567  1  0.83557000  0.49228700  0.42930500  1
  C  3569  1  0.80680500  0.51929300  0.42933000  1
  C  3570  1  0.78939200  0.53554000  0.43577800  1
  C  3571  1  0.78386400  0.54051300  0.45779400  1
  C  3573  1  0.78396200  0.54053000  0.49430400  1
  C  3574  1  0.76759200  0.55657600  0.48724800  1
  C  3575  1  0.76770700  0.55670000  0.46490500  1
  C  3576  1  0.78944900  0.53552900  0.51632100  1
  C  3577  1  0.80668700  0.51919600  0.52284700  1
  C  3579  1  0.83534200  0.49220400  0.52282100  1
  C  3580  1  0.82984900  0.49750100  0.54426900  1
  C  3581  1  0.81249300  0.51401000  0.54428400  1
  C  3582  1  0.85246400  0.47583500  0.51626800  1
  C  3583  1  0.85795700  0.47079600  0.49426800  1
  C  3585  1  0.85818300  0.47081600  0.45776100  1
  C  3586  1  0.87387600  0.45430100  0.46493500  1
  C  3587  1  0.87387600  0.45438600  0.48727600  1
  C  3588  1  0.85285900  0.47590800  0.43572100  1
  C  3589  1  0.86491000  0.46311800  0.41921900  1
  C  3590  1  0.89072300  0.46476200  0.41513500  1
  C  3591  1  0.90247910  0.45157000  0.39950700  1
  C  3592  1  0.88883500  0.43635600  0.38713100  1
  C  3593  1  0.86301700  0.43477400  0.39126400  1
  C  3594  1  0.85135900  0.44767200  0.40711900  1
  C  3595  1  0.86396200  0.46258500  0.53260900  1
  C  3596  1  0.88758400  0.46762200  0.54129100  1
  C  3597  1  0.89997900  0.45308200  0.55530000  1
  C  3598  1  0.88938300  0.43284200  0.56098600  1
  C  3599  1  0.86553400  0.42812500  0.55241900  1
  C  3600  1  0.85306700  0.44264600  0.53855400  1
  C  3601  1  0.77741500  0.54833000  0.53273400  1
  C  3602  1  0.75593300  0.54087300  0.54360700  1
  C  3603  1  0.74396900  0.55377100  0.55935300  1
  C  3604  1  0.75290200  0.57468000  0.56457300  1
  C  3605  1  0.77435600  0.58212500  0.55365500  1
  C  3606  1  0.78627700  0.56926600  0.53790400  1
  C  3607  1  0.77736300  0.54835200  0.41927400  1
  C  3608  1  0.75164900  0.54638600  0.41486400  1
  C  3609  1  0.79083800  0.56407000  0.40747700  1
  C  3610  1  0.77919400  0.57692800  0.39155200  1
  C  3611  1  0.75346800  0.57503300  0.38710500  1
  C  3612  1  0.73990000  0.55955000  0.39918800  1
  C  3639  1  0.90175910  0.41713500  0.57342500  1
  C  3640  1  0.74333400  0.58649700  0.58186000  1
  C  3641  1  0.74298200  0.58711900  0.37024700  1
  C  3642  1  0.89934600  0.42411800  0.37039300  1
  C  3647  1  0.31239100  0.50156200  0.04444400  1
  C  3648  1  0.33001100  0.51784900  0.04448500  1
  C  3649  1  0.33545700  0.52335800  0.02306700  1
  C  3651  1  0.30672800  0.49630200  0.02300000  1
  C  3652  1  0.28933800  0.48002000  0.01652400  1
  C  3653  1  0.28382600  0.47507500  0.99448900  1
  C  3655  1  0.28395000  0.47514200  0.95798500  1
  C  3656  1  0.26755400  0.45907600  0.96496700  1
  C  3657  1  0.26767100  0.45888900  0.98731000  1
  C  3658  1  0.28946600  0.48018500  0.93599400  1
  C  3659  1  0.30670000  0.49653000  0.92949100  1
  C  3661  1  0.33537300  0.52353100  0.92956300  1
  C  3662  1  0.32985700  0.51824800  0.90810500  1
  C  3663  1  0.31248900  0.50173100  0.90806200  1
  C  3664  1  0.35251200  0.53990600  0.93614300  1
  C  3665  1  0.35797100  0.54493100  0.95816100  1
  C  3667  1  0.35809600  0.54488400  0.99466200  1
  C  3668  1  0.37380300  0.56142700  0.98756100  1
  C  3669  1  0.37388700  0.56134100  0.96521900  1
  C  3670  1  0.35272600  0.53976000  0.01667400  1
  C  3671  1  0.36474100  0.55255200  0.03320500  1
  C  3672  1  0.39052800  0.55084900  0.03741000  1
  C  3673  1  0.40226000  0.56402300  0.05309000  1
  C  3674  1  0.38860900  0.57926700  0.06537400  1
  C  3675  1  0.36281600  0.58090400  0.06112400  1
  C  3676  1  0.35118100  0.56802200  0.04521700  1
  C  3677  1  0.36401700  0.55317600  0.91982900  1
  C  3678  1  0.38758200  0.54810700  0.91110800  1
  C  3679  1  0.39999500  0.56265400  0.89712200  1
  C  3680  1  0.38946100  0.58292200  0.89146400  1
  C  3681  1  0.36566400  0.58767200  0.90006800  1
  C  3682  1  0.35320100  0.57315900  0.91393600  1
  C  3683  1  0.27741300  0.46742700  0.91954700  1
  C  3684  1  0.25592200  0.47491900  0.90868800  1
  C  3685  1  0.24394900  0.46207500  0.89287800  1
  C  3686  1  0.25288800  0.44119900  0.88760200  1
  C  3687  1  0.27434900  0.43371600  0.89850700  1
  C  3688  1  0.28627900  0.44652200  0.91432100  1
  C  3689  1  0.27732700  0.46717100  0.03300000  1
  C  3690  1  0.25160900  0.46906800  0.03736900  1
  C  3691  1  0.29083800  0.45150800  0.04484700  1
  C  3692  1  0.27923200  0.43864200  0.06077500  1
  C  3693  1  0.25350500  0.44047300  0.06518900  1
  C  3694  1  0.23989900  0.45589800  0.05305400  1
  C  3721  1  0.40183700  0.59861400  0.87900600  1
  C  3722  1  0.24325200  0.42943500  0.87030500  1
  C  3723  1  0.24306700  0.42838900  0.08206600  1
  C  3724  1  0.39910800  0.59148100  0.08214000  1
  C  3729  1  0.21539200  0.13764000  0.12676800  1
  C  3730  1  0.18889000  0.13846900  0.12558500  1
  C  3731  1  0.17745300  0.12507200  0.10973800  1
  C  3733  1  0.21632200  0.11060800  0.09829800  1
  C  3735  1  0.23135900  0.15076900  0.14225100  1
  C  3736  1  0.25987900  0.14614900  0.13927500  1
  C  3740  1  0.22492400  0.14474900  0.16621100  1
  C  3744  1  0.22767400  0.17561100  0.13832500  1
  C  3752  1  0.71512500  0.87821600  0.32567800  1
  C  3753  1  0.68863100  0.87733200  0.32685600  1
  C  3754  1  0.67718300  0.89070600  0.34267900  1
  C  3756  1  0.71603400  0.90528000  0.35410000  1
  C  3758  1  0.73108300  0.86510800  0.31021800  1
  C  3759  1  0.75960300  0.86978400  0.31321600  1
  C  3763  1  0.72460300  0.87110300  0.28625100  1
  C  3767  1  0.72743400  0.84026000  0.31415400  1
  C  3775  1  0.96143010  0.40825500  0.59791600  1
  C  3776  1  0.93492810  0.40710200  0.59753500  1
  C  3777  1  0.92367210  0.39182100  0.61164300  1
  C  3779  1  0.96288010  0.37941500  0.62454600  1
  C  3781  1  0.97705610  0.42392100  0.58472200  1
  C  3782  1  0.00568700  0.42068600  0.58861800  1
  C  3786  1  0.97099910  0.44780400  0.59131500  1
  C  3790  1  0.97248410  0.42051700  0.55991900  1
  C  3798  1  0.46149100  0.60745600  0.85452100  1
  C  3799  1  0.43499100  0.60863400  0.85490200  1
  C  3800  1  0.42374600  0.62391600  0.84077900  1
  C  3802  1  0.46295800  0.63627800  0.82786700  1
  C  3804  1  0.47711000  0.59178500  0.86772700  1
  C  3805  1  0.50574100  0.59499100  0.86383200  1
  C  3809  1  0.47097700  0.56790200  0.86115000  1
  C  3813  1  0.47261000  0.59521100  0.89252800  1
  C  3821  1  0.93694410  0.13666500  0.32919200  1
  C  3822  1  0.96332210  0.13866300  0.33090200  1
  C  3823  1  0.97503110  0.12646800  0.34755200  1
  C  3825  1  0.93670810  0.11099200  0.35895000  1
  C  3827  1  0.92071910  0.14844700  0.31286100  1
  C  3828  1  0.89242400  0.14261100  0.31539100  1
  C  3832  1  0.92824410  0.14190000  0.28929500  1
  C  3836  1  0.92282910  0.17354200  0.31593000  1
  C  3844  1  0.43695500  0.87914300  0.12322400  1
  C  3845  1  0.46331800  0.87709800  0.12151800  1
  C  3846  1  0.47504600  0.88927200  0.10487900  1
  C  3848  1  0.43676400  0.90482800  0.09347900  1
  C  3850  1  0.42071300  0.86738700  0.13953900  1
  C  3851  1  0.39243700  0.87327500  0.13699400  1
  C  3855  1  0.42830700  0.87391200  0.16311200  1
  C  3859  1  0.42272500  0.84228800  0.13646100  1
  C  3867  1  0.18326000  0.40703400  0.85588300  1
  C  3868  1  0.20978700  0.40701000  0.85673500  1
  C  3869  1  0.22215200  0.39188200  0.84317500  1
  C  3871  1  0.18404300  0.37862700  0.82874700  1
  C  3873  1  0.16638900  0.42159100  0.86915600  1
  C  3874  1  0.13810100  0.41757500  0.86415900  1
  C  3878  1  0.17167900  0.44591700  0.86378200  1
  C  3882  1  0.17005500  0.41728200  0.89393600  1
  C  3890  1  0.68326600  0.60871500  0.59641800  1
  C  3891  1  0.70979400  0.60878800  0.59555000  1
  C  3892  1  0.72216000  0.62392600  0.60913900  1
  C  3894  1  0.68406200  0.63713000  0.62356400  1
  C  3896  1  0.66637800  0.59411800  0.58314900  1
  C  3897  1  0.63809800  0.59807900  0.58814100  1
  C  3901  1  0.67171100  0.56980400  0.58853200  1
  C  3905  1  0.66997300  0.59842300  0.55836700  1
  C  3913  1  0.43265400  0.87823000  0.82628000  1
  C  3914  1  0.45899800  0.87583400  0.82787700  1
  C  3915  1  0.47102100  0.88779500  0.84452400  1
  C  3917  1  0.43308900  0.90385400  0.85607500  1
  C  3919  1  0.41611100  0.86667700  0.81002900  1
  C  3920  1  0.38794600  0.87288000  0.81269500  1
  C  3924  1  0.42361600  0.87312600  0.78642300  1
  C  3928  1  0.41778800  0.84155400  0.81309200  1
  C  3936  1  0.93240610  0.13751100  0.62619500  1
  C  3937  1  0.95874610  0.13989600  0.62460500  1
  C  3938  1  0.97073410  0.12795200  0.60796300  1
  C  3940  1  0.93276610  0.11190500  0.59640200  1
  C  3942  1  0.91590910  0.14906000  0.64244100  1
  C  3943  1  0.88772500  0.14287800  0.63973900  1
  C  3947  1  0.92343210  0.14257800  0.66604500  1
  C  3951  1  0.91763710  0.17418500  0.63940500  1
  C  3959  1  0.68172500  0.60722200  0.35607000  1
  C  3960  1  0.70823100  0.60827400  0.35694600  1
  C  3961  1  0.71978600  0.62415400  0.34368400  1
  C  3963  1  0.68101100  0.63582600  0.32916400  1
  C  3965  1  0.66566300  0.59175600  0.36910900  1
  C  3966  1  0.63716200  0.59491900  0.36447400  1
  C  3970  1  0.67193700  0.56779700  0.36297900  1
  C  3974  1  0.66938900  0.59551400  0.39397600  1
  C  3982  1  0.18180900  0.40835700  0.09636300  1
  C  3983  1  0.20830900  0.40728300  0.09546000  1
  C  3984  1  0.21987200  0.39140600  0.10873000  1
  C  3986  1  0.18112200  0.37977500  0.12329700  1
  C  3988  1  0.16573300  0.42382300  0.08332500  1
  C  3989  1  0.13724200  0.42069700  0.08800200  1
  C  3993  1  0.17209700  0.44778300  0.08941300  1
  C  3997  1  0.16933800  0.42002400  0.05845900  1
  C  4005  1  0.71040800  0.87950500  0.62529200  1
  C  4006  1  0.68410900  0.87744300  0.62285600  1
  C  4007  1  0.67298800  0.88971100  0.60596700  1
  C  4009  1  0.71168200  0.90556300  0.59591400  1
  C  4011  1  0.72604900  0.86757600  0.64195000  1
  C  4012  1  0.75440700  0.87347100  0.64028000  1
  C  4016  1  0.71766100  0.87387500  0.66536600  1
  C  4020  1  0.72412000  0.84250700  0.63855600  1
  C  4028  1  0.21066700  0.13628100  0.82701800  1
  C  4029  1  0.18437600  0.13831700  0.82945200  1
  C  4030  1  0.17328700  0.12603400  0.84633100  1
  C  4032  1  0.21199900  0.11021900  0.85638300  1
  C  4034  1  0.22626800  0.14823200  0.81036600  1
  C  4035  1  0.25463000  0.14236200  0.81203900  1
  C  4039  1  0.21782100  0.14193300  0.78694600  1
  C  4043  1  0.22435100  0.17329700  0.81376800  1
  C  4051  1  0.46009400  0.61073000  0.09763400  1
  C  4052  1  0.43373300  0.61253800  0.09557700  1
  C  4053  1  0.42210000  0.62917300  0.10780100  1
  C  4055  1  0.46045400  0.64037700  0.12340500  1
  C  4057  1  0.47625200  0.59440000  0.08584200  1
  C  4058  1  0.50454700  0.59681300  0.09176100  1
  C  4062  1  0.46855800  0.57083200  0.09229100  1
  C  4066  1  0.47423100  0.59758600  0.06075100  1
  C  4074  1  0.96035110  0.40492600  0.35490100  1
  C  4075  1  0.93399110  0.40310200  0.35694400  1
  C  4076  1  0.92234610  0.38647700  0.34466900  1
  C  4078  1  0.96069110  0.37528600  0.32910400  1
  C  4080  1  0.97652510  0.42126600  0.36672000  1
  C  4081  1  0.00480900  0.41889500  0.36081600  1
  C  4085  1  0.96881410  0.44483300  0.36029400  1
  C  4089  1  0.97454810  0.41805200  0.39180600  1
  N  4  1  0.98949000  0.00617600  0.94127800  1
  N  8  1  0.96276800  0.03219800  0.97648000  1
  N  14  1  0.99092600  0.00631900  0.01062400  1
  N  20  1  0.01807300  0.98059500  0.97540200  1
  N  86  1  0.48914700  0.00966200  0.51107800  1
  N  90  1  0.46241600  0.98371900  0.47586100  1
  N  96  1  0.49067000  0.00963400  0.44174200  1
  N  102  1  0.51774600  0.03534200  0.47697900  1
  N  168  1  0.73945200  0.22380900  0.72809000  1
  N  172  1  0.71174700  0.25850000  0.70240500  1
  N  178  1  0.73978000  0.29307200  0.72814000  1
  N  184  1  0.76761700  0.25827000  0.75375600  1
  N  250  1  0.23946100  0.79185600  0.72432200  1
  N  254  1  0.21181000  0.75715200  0.74996700  1
  N  260  1  0.23981200  0.72257600  0.72421400  1
  N  266  1  0.26761300  0.75739400  0.69865300  1
  N  332  1  0.24360100  0.79265600  0.22484300  1
  N  336  1  0.27112300  0.75793400  0.25066500  1
  N  342  1  0.24315900  0.72339800  0.22483200  1
  N  348  1  0.21538000  0.75822300  0.19920200  1
  N  414  1  0.74381600  0.22299600  0.22767400  1
  N  418  1  0.77134200  0.25772000  0.20192700  1
  N  424  1  0.74337200  0.29227400  0.22772500  1
  N  430  1  0.71563800  0.25744700  0.25331900  1
  N  496  1  0.48937100  0.50571200  0.44141500  1
  N  500  1  0.46137500  0.53134400  0.47604500  1
  N  506  1  0.48921900  0.50568600  0.51072000  1
  N  512  1  0.51737800  0.48018300  0.47597000  1
  N  578  1  0.98927800  0.50990800  0.01093500  1
  N  582  1  0.96134900  0.48429800  0.97628100  1
  N  588  1  0.98925000  0.51003900  0.94164100  1
  N  594  1  0.01733900  0.53552200  0.97641500  1
  N  660  1  0.85935800  0.11169900  0.09682900  1
  N  662  1  0.89555900  0.12373400  0.11303100  1
  N  678  1  0.84404900  0.15247300  0.13785900  1
  N  679  1  0.89945200  0.09839300  0.08584300  1
  N  683  1  0.35907800  0.90413800  0.35556600  1
  N  685  1  0.39528700  0.89216900  0.33939900  1
  N  701  1  0.34379600  0.86328800  0.31461500  1
  N  702  1  0.39914600  0.91753300  0.36654800  1
  N  706  1  0.60584200  0.37854400  0.62444600  1
  N  708  1  0.64188700  0.39417400  0.61130800  1
  N  724  1  0.58951600  0.42054200  0.58512800  1
  N  725  1  0.64625300  0.36698500  0.63656800  1
  N  729  1  0.10592200  0.63717200  0.82796500  1
  N  731  1  0.14195200  0.62151600  0.84111800  1
  N  747  1  0.08957800  0.59521000  0.86732300  1
  N  748  1  0.14634200  0.64868500  0.81583300  1
  N  752  1  0.63000100  0.11308500  0.36076200  1
  N  754  1  0.59366300  0.12289500  0.34330600  1
  N  770  1  0.64431500  0.15263800  0.31833800  1
  N  771  1  0.59231700  0.09805100  0.37252100  1
  N  775  1  0.13004200  0.90268300  0.09166700  1
  N  777  1  0.09370200  0.89294300  0.10911100  1
  N  793  1  0.14428000  0.86310000  0.13408200  1
  N  794  1  0.09239400  0.91778300  0.07990300  1
  N  798  1  0.87751100  0.37846700  0.82968900  1
  N  800  1  0.84042600  0.39285400  0.84189600  1
  N  816  1  0.89040500  0.41956000  0.87096900  1
  N  817  1  0.84005800  0.36477700  0.81577700  1
  N  821  1  0.37753200  0.63732300  0.62262100  1
  N  823  1  0.34044200  0.62287700  0.61040700  1
  N  839  1  0.39039200  0.59622100  0.58132500  1
  N  840  1  0.34009500  0.65096700  0.63654600  1
  N  844  1  0.12633100  0.90131600  0.85782600  1
  N  846  1  0.08972400  0.89215600  0.84045000  1
  N  862  1  0.13972300  0.86174400  0.81522500  1
  N  863  1  0.08907600  0.91696900  0.86974100  1
  N  867  1  0.62600500  0.11442900  0.59465700  1
  N  869  1  0.58943500  0.12359300  0.61201800  1
  N  885  1  0.63951100  0.15396800  0.63725600  1
  N  886  1  0.58871200  0.09880700  0.58273600  1
  N  890  1  0.37448200  0.63719800  0.33034200  1
  N  892  1  0.33816200  0.62107900  0.34218700  1
  N  908  1  0.38949300  0.59588700  0.37091400  1
  N  909  1  0.33448900  0.64838400  0.31694600  1
  N  913  1  0.87458700  0.37838900  0.12210300  1
  N  915  1  0.83826300  0.39452000  0.11026700  1
  N  931  1  0.88954300  0.41965200  0.08146400  1
  N  932  1  0.83461000  0.36723400  0.13553800  1
  N  936  1  0.35494600  0.90324100  0.59324500  1
  N  938  1  0.39065500  0.89348100  0.61165600  1
  N  954  1  0.33927600  0.86333700  0.63501500  1
  N  955  1  0.39494300  0.91807100  0.58385000  1
  N  959  1  0.85527100  0.11251100  0.85904900  1
  N  961  1  0.89094300  0.12231100  0.84064900  1
  N  977  1  0.83951500  0.15241700  0.81730600  1
  N  978  1  0.89527600  0.09771600  0.86844400  1
  N  982  1  0.10368300  0.64228600  0.12125500  1
  N  984  1  0.13993200  0.62474700  0.11147900  1
  N  1000  1  0.08920400  0.60007700  0.08152200  1
  N  1001  1  0.14141200  0.65386000  0.13640000  1
  N  1005  1  0.60391900  0.37337600  0.33122600  1
  N  1007  1  0.64017700  0.39092300  0.34105900  1
  N  1023  1  0.58946600  0.41557000  0.37098400  1
  N  1024  1  0.64162900  0.36180600  0.31610200  1
  N  1028  1  0.76673900  0.00617600  0.94127800  1
  N  1032  1  0.74001700  0.03219800  0.97648000  1
  N  1038  1  0.76817500  0.00631900  0.01062400  1
  N  1044  1  0.79532200  0.98059500  0.97540200  1
  N  1110  1  0.26639600  0.00966200  0.51107800  1
  N  1114  1  0.23966500  0.98371900  0.47586100  1
  N  1120  1  0.26791900  0.00963400  0.44174200  1
  N  1126  1  0.29499500  0.03534200  0.47697900  1
  N  1192  1  0.51670100  0.22380900  0.72809000  1
  N  1196  1  0.48899600  0.25850000  0.70240500  1
  N  1202  1  0.51702900  0.29307200  0.72814000  1
  N  1208  1  0.54486600  0.25827000  0.75375600  1
  N  1274  1  0.01671000  0.79185600  0.72432200  1
  N  1278  1  0.98905940  0.75715200  0.74996700  1
  N  1284  1  0.01706100  0.72257600  0.72421400  1
  N  1290  1  0.04486200  0.75739400  0.69865300  1
  N  1356  1  0.02085000  0.79265600  0.22484300  1
  N  1360  1  0.04837200  0.75793400  0.25066500  1
  N  1366  1  0.02040800  0.72339800  0.22483200  1
  N  1372  1  0.99262936  0.75822300  0.19920200  1
  N  1438  1  0.52106500  0.22299600  0.22767400  1
  N  1442  1  0.54859100  0.25772000  0.20192700  1
  N  1448  1  0.52062100  0.29227400  0.22772500  1
  N  1454  1  0.49288700  0.25744700  0.25331900  1
  N  1520  1  0.26662000  0.50571200  0.44141500  1
  N  1524  1  0.23862400  0.53134400  0.47604500  1
  N  1530  1  0.26646800  0.50568600  0.51072000  1
  N  1536  1  0.29462700  0.48018300  0.47597000  1
  N  1602  1  0.76652700  0.50990800  0.01093500  1
  N  1606  1  0.73859800  0.48429800  0.97628100  1
  N  1612  1  0.76649900  0.51003900  0.94164100  1
  N  1618  1  0.79458800  0.53552200  0.97641500  1
  N  1684  1  0.63660700  0.11169900  0.09682900  1
  N  1686  1  0.67280800  0.12373400  0.11303100  1
  N  1702  1  0.62129800  0.15247300  0.13785900  1
  N  1703  1  0.67670100  0.09839300  0.08584300  1
  N  1707  1  0.13632700  0.90413800  0.35556600  1
  N  1709  1  0.17253600  0.89216900  0.33939900  1
  N  1725  1  0.12104500  0.86328800  0.31461500  1
  N  1726  1  0.17639500  0.91753300  0.36654800  1
  N  1730  1  0.38309100  0.37854400  0.62444600  1
  N  1732  1  0.41913600  0.39417400  0.61130800  1
  N  1748  1  0.36676500  0.42054200  0.58512800  1
  N  1749  1  0.42350200  0.36698500  0.63656800  1
  N  1753  1  0.88317100  0.63717200  0.82796500  1
  N  1755  1  0.91920140  0.62151600  0.84111800  1
  N  1771  1  0.86682700  0.59521000  0.86732300  1
  N  1772  1  0.92359140  0.64868500  0.81583300  1
  N  1776  1  0.40725000  0.11308500  0.36076200  1
  N  1778  1  0.37091200  0.12289500  0.34330600  1
  N  1794  1  0.42156400  0.15263800  0.31833800  1
  N  1795  1  0.36956600  0.09805100  0.37252100  1
  N  1799  1  0.90729140  0.90268300  0.09166700  1
  N  1801  1  0.87095100  0.89294300  0.10911100  1
  N  1817  1  0.92152940  0.86310000  0.13408200  1
  N  1818  1  0.86964300  0.91778300  0.07990300  1
  N  1822  1  0.65476000  0.37846700  0.82968900  1
  N  1824  1  0.61767500  0.39285400  0.84189600  1
  N  1840  1  0.66765400  0.41956000  0.87096900  1
  N  1841  1  0.61730700  0.36477700  0.81577700  1
  N  1845  1  0.15478100  0.63732300  0.62262100  1
  N  1847  1  0.11769100  0.62287700  0.61040700  1
  N  1863  1  0.16764100  0.59622100  0.58132500  1
  N  1864  1  0.11734400  0.65096700  0.63654600  1
  N  1868  1  0.90358040  0.90131600  0.85782600  1
  N  1870  1  0.86697300  0.89215600  0.84045000  1
  N  1886  1  0.91697240  0.86174400  0.81522500  1
  N  1887  1  0.86632500  0.91696900  0.86974100  1
  N  1891  1  0.40325400  0.11442900  0.59465700  1
  N  1893  1  0.36668400  0.12359300  0.61201800  1
  N  1909  1  0.41676000  0.15396800  0.63725600  1
  N  1910  1  0.36596100  0.09880700  0.58273600  1
  N  1914  1  0.15173100  0.63719800  0.33034200  1
  N  1916  1  0.11541100  0.62107900  0.34218700  1
  N  1932  1  0.16674200  0.59588700  0.37091400  1
  N  1933  1  0.11173800  0.64838400  0.31694600  1
  N  1937  1  0.65183600  0.37838900  0.12210300  1
  N  1939  1  0.61551200  0.39452000  0.11026700  1
  N  1955  1  0.66679200  0.41965200  0.08146400  1
  N  1956  1  0.61185900  0.36723400  0.13553800  1
  N  1960  1  0.13219500  0.90324100  0.59324500  1
  N  1962  1  0.16790400  0.89348100  0.61165600  1
  N  1978  1  0.11652500  0.86333700  0.63501500  1
  N  1979  1  0.17219200  0.91807100  0.58385000  1
  N  1983  1  0.63252000  0.11251100  0.85904900  1
  N  1985  1  0.66819200  0.12231100  0.84064900  1
  N  2001  1  0.61676400  0.15241700  0.81730600  1
  N  2002  1  0.67252500  0.09771600  0.86844400  1
  N  2006  1  0.88093200  0.64228600  0.12125500  1
  N  2008  1  0.91718140  0.62474700  0.11147900  1
  N  2024  1  0.86645300  0.60007700  0.08152200  1
  N  2025  1  0.91866140  0.65386000  0.13640000  1
  N  2029  1  0.38116800  0.37337600  0.33122600  1
  N  2031  1  0.41742600  0.39092300  0.34105900  1
  N  2047  1  0.36671500  0.41557000  0.37098400  1
  N  2048  1  0.41887800  0.36180600  0.31610200  1
  N  2052  1  0.54398900  0.00617600  0.94127800  1
  N  2056  1  0.51726700  0.03219800  0.97648000  1
  N  2062  1  0.54542500  0.00631900  0.01062400  1
  N  2068  1  0.57257200  0.98059500  0.97540200  1
  N  2134  1  0.04364600  0.00966200  0.51107800  1
  N  2138  1  0.01691500  0.98371900  0.47586100  1
  N  2144  1  0.04516900  0.00963400  0.44174200  1
  N  2150  1  0.07224500  0.03534200  0.47697900  1
  N  2216  1  0.29395100  0.22380900  0.72809000  1
  N  2220  1  0.26624600  0.25850000  0.70240500  1
  N  2226  1  0.29427900  0.29307200  0.72814000  1
  N  2232  1  0.32211600  0.25827000  0.75375600  1
  N  2298  1  0.79396000  0.79185600  0.72432200  1
  N  2302  1  0.76630900  0.75715200  0.74996700  1
  N  2308  1  0.79431100  0.72257600  0.72421400  1
  N  2314  1  0.82211200  0.75739400  0.69865300  1
  N  2380  1  0.79810000  0.79265600  0.22484300  1
  N  2384  1  0.82562200  0.75793400  0.25066500  1
  N  2390  1  0.79765800  0.72339800  0.22483200  1
  N  2396  1  0.76987900  0.75822300  0.19920200  1
  N  2462  1  0.29831500  0.22299600  0.22767400  1
  N  2466  1  0.32584100  0.25772000  0.20192700  1
  N  2472  1  0.29787100  0.29227400  0.22772500  1
  N  2478  1  0.27013700  0.25744700  0.25331900  1
  N  2544  1  0.04387000  0.50571200  0.44141500  1
  N  2548  1  0.01587400  0.53134400  0.47604500  1
  N  2554  1  0.04371800  0.50568600  0.51072000  1
  N  2560  1  0.07187700  0.48018300  0.47597000  1
  N  2626  1  0.54377700  0.50990800  0.01093500  1
  N  2630  1  0.51584800  0.48429800  0.97628100  1
  N  2636  1  0.54374900  0.51003900  0.94164100  1
  N  2642  1  0.57183800  0.53552200  0.97641500  1
  N  2708  1  0.41385700  0.11169900  0.09682900  1
  N  2710  1  0.45005800  0.12373400  0.11303100  1
  N  2726  1  0.39854800  0.15247300  0.13785900  1
  N  2727  1  0.45395100  0.09839300  0.08584300  1
  N  2731  1  0.91357670  0.90413800  0.35556600  1
  N  2733  1  0.94978570  0.89216900  0.33939900  1
  N  2749  1  0.89829500  0.86328800  0.31461500  1
  N  2750  1  0.95364470  0.91753300  0.36654800  1
  N  2754  1  0.16034100  0.37854400  0.62444600  1
  N  2756  1  0.19638600  0.39417400  0.61130800  1
  N  2772  1  0.14401500  0.42054200  0.58512800  1
  N  2773  1  0.20075200  0.36698500  0.63656800  1
  N  2777  1  0.66042100  0.63717200  0.82796500  1
  N  2779  1  0.69645100  0.62151600  0.84111800  1
  N  2795  1  0.64407700  0.59521000  0.86732300  1
  N  2796  1  0.70084100  0.64868500  0.81583300  1
  N  2800  1  0.18450000  0.11308500  0.36076200  1
  N  2802  1  0.14816200  0.12289500  0.34330600  1
  N  2818  1  0.19881400  0.15263800  0.31833800  1
  N  2819  1  0.14681600  0.09805100  0.37252100  1
  N  2823  1  0.68454100  0.90268300  0.09166700  1
  N  2825  1  0.64820100  0.89294300  0.10911100  1
  N  2841  1  0.69877900  0.86310000  0.13408200  1
  N  2842  1  0.64689300  0.91778300  0.07990300  1
  N  2846  1  0.43201000  0.37846700  0.82968900  1
  N  2848  1  0.39492500  0.39285400  0.84189600  1
  N  2864  1  0.44490400  0.41956000  0.87096900  1
  N  2865  1  0.39455700  0.36477700  0.81577700  1
  N  2869  1  0.93203070  0.63732300  0.62262100  1
  N  2871  1  0.89494100  0.62287700  0.61040700  1
  N  2887  1  0.94489070  0.59622100  0.58132500  1
  N  2888  1  0.89459400  0.65096700  0.63654600  1
  N  2892  1  0.68083000  0.90131600  0.85782600  1
  N  2894  1  0.64422300  0.89215600  0.84045000  1
  N  2910  1  0.69422200  0.86174400  0.81522500  1
  N  2911  1  0.64357500  0.91696900  0.86974100  1
  N  2915  1  0.18050400  0.11442900  0.59465700  1
  N  2917  1  0.14393400  0.12359300  0.61201800  1
  N  2933  1  0.19401000  0.15396800  0.63725600  1
  N  2934  1  0.14321100  0.09880700  0.58273600  1
  N  2938  1  0.92898070  0.63719800  0.33034200  1
  N  2940  1  0.89266100  0.62107900  0.34218700  1
  N  2956  1  0.94399170  0.59588700  0.37091400  1
  N  2957  1  0.88898800  0.64838400  0.31694600  1
  N  2961  1  0.42908600  0.37838900  0.12210300  1
  N  2963  1  0.39276200  0.39452000  0.11026700  1
  N  2979  1  0.44404200  0.41965200  0.08146400  1
  N  2980  1  0.38910900  0.36723400  0.13553800  1
  N  2984  1  0.90944470  0.90324100  0.59324500  1
  N  2986  1  0.94515370  0.89348100  0.61165600  1
  N  3002  1  0.89377500  0.86333700  0.63501500  1
  N  3003  1  0.94944170  0.91807100  0.58385000  1
  N  3007  1  0.40977000  0.11251100  0.85904900  1
  N  3009  1  0.44544200  0.12231100  0.84064900  1
  N  3025  1  0.39401400  0.15241700  0.81730600  1
  N  3026  1  0.44977500  0.09771600  0.86844400  1
  N  3030  1  0.65818200  0.64228600  0.12125500  1
  N  3032  1  0.69443100  0.62474700  0.11147900  1
  N  3048  1  0.64370300  0.60007700  0.08152200  1
  N  3049  1  0.69591100  0.65386000  0.13640000  1
  N  3053  1  0.15841800  0.37337600  0.33122600  1
  N  3055  1  0.19467600  0.39092300  0.34105900  1
  N  3071  1  0.14396500  0.41557000  0.37098400  1
  N  3072  1  0.19612800  0.36180600  0.31610200  1
  N  3076  1  0.32123800  0.00617600  0.94127800  1
  N  3080  1  0.29451600  0.03219800  0.97648000  1
  N  3086  1  0.32267400  0.00631900  0.01062400  1
  N  3092  1  0.34982100  0.98059500  0.97540200  1
  N  3158  1  0.82089500  0.00966200  0.51107800  1
  N  3162  1  0.79416400  0.98371900  0.47586100  1
  N  3168  1  0.82241800  0.00963400  0.44174200  1
  N  3174  1  0.84949400  0.03534200  0.47697900  1
  N  3240  1  0.07120000  0.22380900  0.72809000  1
  N  3244  1  0.04349500  0.25850000  0.70240500  1
  N  3250  1  0.07152800  0.29307200  0.72814000  1
  N  3256  1  0.09936500  0.25827000  0.75375600  1
  N  3322  1  0.57120900  0.79185600  0.72432200  1
  N  3326  1  0.54355800  0.75715200  0.74996700  1
  N  3332  1  0.57156000  0.72257600  0.72421400  1
  N  3338  1  0.59936100  0.75739400  0.69865300  1
  N  3404  1  0.57534900  0.79265600  0.22484300  1
  N  3408  1  0.60287100  0.75793400  0.25066500  1
  N  3414  1  0.57490700  0.72339800  0.22483200  1
  N  3420  1  0.54712800  0.75822300  0.19920200  1
  N  3486  1  0.07556400  0.22299600  0.22767400  1
  N  3490  1  0.10309000  0.25772000  0.20192700  1
  N  3496  1  0.07512000  0.29227400  0.22772500  1
  N  3502  1  0.04738600  0.25744700  0.25331900  1
  N  3568  1  0.82111900  0.50571200  0.44141500  1
  N  3572  1  0.79312300  0.53134400  0.47604500  1
  N  3578  1  0.82096700  0.50568600  0.51072000  1
  N  3584  1  0.84912600  0.48018300  0.47597000  1
  N  3650  1  0.32102600  0.50990800  0.01093500  1
  N  3654  1  0.29309700  0.48429800  0.97628100  1
  N  3660  1  0.32099800  0.51003900  0.94164100  1
  N  3666  1  0.34908700  0.53552200  0.97641500  1
  N  3732  1  0.19110600  0.11169900  0.09682900  1
  N  3734  1  0.22730700  0.12373400  0.11303100  1
  N  3750  1  0.17579700  0.15247300  0.13785900  1
  N  3751  1  0.23120000  0.09839300  0.08584300  1
  N  3755  1  0.69082600  0.90413800  0.35556600  1
  N  3757  1  0.72703500  0.89216900  0.33939900  1
  N  3773  1  0.67554400  0.86328800  0.31461500  1
  N  3774  1  0.73089400  0.91753300  0.36654800  1
  N  3778  1  0.93759010  0.37854400  0.62444600  1
  N  3780  1  0.97363510  0.39417400  0.61130800  1
  N  3796  1  0.92126410  0.42054200  0.58512800  1
  N  3797  1  0.97800110  0.36698500  0.63656800  1
  N  3801  1  0.43767000  0.63717200  0.82796500  1
  N  3803  1  0.47370000  0.62151600  0.84111800  1
  N  3819  1  0.42132600  0.59521000  0.86732300  1
  N  3820  1  0.47809000  0.64868500  0.81583300  1
  N  3824  1  0.96174910  0.11308500  0.36076200  1
  N  3826  1  0.92541110  0.12289500  0.34330600  1
  N  3842  1  0.97606310  0.15263800  0.31833800  1
  N  3843  1  0.92406510  0.09805100  0.37252100  1
  N  3847  1  0.46179000  0.90268300  0.09166700  1
  N  3849  1  0.42545000  0.89294300  0.10911100  1
  N  3865  1  0.47602800  0.86310000  0.13408200  1
  N  3866  1  0.42414200  0.91778300  0.07990300  1
  N  3870  1  0.20925900  0.37846700  0.82968900  1
  N  3872  1  0.17217400  0.39285400  0.84189600  1
  N  3888  1  0.22215300  0.41956000  0.87096900  1
  N  3889  1  0.17180600  0.36477700  0.81577700  1
  N  3893  1  0.70928000  0.63732300  0.62262100  1
  N  3895  1  0.67219000  0.62287700  0.61040700  1
  N  3911  1  0.72214000  0.59622100  0.58132500  1
  N  3912  1  0.67184300  0.65096700  0.63654600  1
  N  3916  1  0.45807900  0.90131600  0.85782600  1
  N  3918  1  0.42147200  0.89215600  0.84045000  1
  N  3934  1  0.47147100  0.86174400  0.81522500  1
  N  3935  1  0.42082400  0.91696900  0.86974100  1
  N  3939  1  0.95775310  0.11442900  0.59465700  1
  N  3941  1  0.92118310  0.12359300  0.61201800  1
  N  3957  1  0.97125910  0.15396800  0.63725600  1
  N  3958  1  0.92046010  0.09880700  0.58273600  1
  N  3962  1  0.70623000  0.63719800  0.33034200  1
  N  3964  1  0.66991000  0.62107900  0.34218700  1
  N  3980  1  0.72124100  0.59588700  0.37091400  1
  N  3981  1  0.66623700  0.64838400  0.31694600  1
  N  3985  1  0.20633500  0.37838900  0.12210300  1
  N  3987  1  0.17001100  0.39452000  0.11026700  1
  N  4003  1  0.22129100  0.41965200  0.08146400  1
  N  4004  1  0.16635800  0.36723400  0.13553800  1
  N  4008  1  0.68669400  0.90324100  0.59324500  1
  N  4010  1  0.72240300  0.89348100  0.61165600  1
  N  4026  1  0.67102400  0.86333700  0.63501500  1
  N  4027  1  0.72669100  0.91807100  0.58385000  1
  N  4031  1  0.18701900  0.11251100  0.85904900  1
  N  4033  1  0.22269100  0.12231100  0.84064900  1
  N  4049  1  0.17126300  0.15241700  0.81730600  1
  N  4050  1  0.22702400  0.09771600  0.86844400  1
  N  4054  1  0.43543100  0.64228600  0.12125500  1
  N  4056  1  0.47168000  0.62474700  0.11147900  1
  N  4072  1  0.42095200  0.60007700  0.08152200  1
  N  4073  1  0.47316000  0.65386000  0.13640000  1
  N  4077  1  0.93566710  0.37337600  0.33122600  1
  N  4079  1  0.97192510  0.39092300  0.34105900  1
  N  4095  1  0.92121410  0.41557000  0.37098400  1
  N  4096  1  0.97337710  0.36180600  0.31610200  1
  O  676  1  0.82091200  0.12583500  0.10615200  1
  O  699  1  0.32065200  0.88985800  0.34626500  1
  O  722  1  0.56690100  0.39041500  0.61333200  1
  O  745  1  0.06697600  0.62535200  0.83909100  1
  O  768  1  0.66792500  0.12839500  0.35149700  1
  O  791  1  0.16792100  0.88728900  0.10093900  1
  O  814  1  0.91539100  0.38955400  0.84387100  1
  O  837  1  0.41539500  0.62630300  0.60846700  1
  O  860  1  0.16388500  0.88547500  0.84838300  1
  O  883  1  0.66359400  0.13028000  0.60411800  1
  O  906  1  0.41284700  0.62762900  0.34455400  1
  O  929  1  0.91292500  0.38792300  0.10785700  1
  O  952  1  0.31678700  0.88768400  0.60124900  1
  O  975  1  0.81709900  0.12804500  0.85104900  1
  O  998  1  0.06574100  0.63321500  0.10581800  1
  O  1021  1  0.56598800  0.38242000  0.34660300  1
  O  1700  1  0.59816100  0.12583500  0.10615200  1
  O  1723  1  0.09790100  0.88985800  0.34626500  1
  O  1746  1  0.34415000  0.39041500  0.61333200  1
  O  1769  1  0.84422500  0.62535200  0.83909100  1
  O  1792  1  0.44517400  0.12839500  0.35149700  1
  O  1815  1  0.94517040  0.88728900  0.10093900  1
  O  1838  1  0.69264000  0.38955400  0.84387100  1
  O  1861  1  0.19264400  0.62630300  0.60846700  1
  O  1884  1  0.94113440  0.88547500  0.84838300  1
  O  1907  1  0.44084300  0.13028000  0.60411800  1
  O  1930  1  0.19009600  0.62762900  0.34455400  1
  O  1953  1  0.69017400  0.38792300  0.10785700  1
  O  1976  1  0.09403600  0.88768400  0.60124900  1
  O  1999  1  0.59434800  0.12804500  0.85104900  1
  O  2022  1  0.84299000  0.63321500  0.10581800  1
  O  2045  1  0.34323700  0.38242000  0.34660300  1
  O  2724  1  0.37541100  0.12583500  0.10615200  1
  O  2747  1  0.87515100  0.88985800  0.34626500  1
  O  2770  1  0.12140000  0.39041500  0.61333200  1
  O  2793  1  0.62147500  0.62535200  0.83909100  1
  O  2816  1  0.22242400  0.12839500  0.35149700  1
  O  2839  1  0.72242000  0.88728900  0.10093900  1
  O  2862  1  0.46989000  0.38955400  0.84387100  1
  O  2885  1  0.96989370  0.62630300  0.60846700  1
  O  2908  1  0.71838400  0.88547500  0.84838300  1
  O  2931  1  0.21809300  0.13028000  0.60411800  1
  O  2954  1  0.96734570  0.62762900  0.34455400  1
  O  2977  1  0.46742400  0.38792300  0.10785700  1
  O  3000  1  0.87128600  0.88768400  0.60124900  1
  O  3023  1  0.37159800  0.12804500  0.85104900  1
  O  3046  1  0.62024000  0.63321500  0.10581800  1
  O  3069  1  0.12048700  0.38242000  0.34660300  1
  O  3748  1  0.15266000  0.12583500  0.10615200  1
  O  3771  1  0.65240000  0.88985800  0.34626500  1
  O  3794  1  0.89864900  0.39041500  0.61333200  1
  O  3817  1  0.39872400  0.62535200  0.83909100  1
  O  3840  1  0.99967309  0.12839500  0.35149700  1
  O  3863  1  0.49966900  0.88728900  0.10093900  1
  O  3886  1  0.24713900  0.38955400  0.84387100  1
  O  3909  1  0.74714300  0.62630300  0.60846700  1
  O  3932  1  0.49563300  0.88547500  0.84838300  1
  O  3955  1  0.99534209  0.13028000  0.60411800  1
  O  3978  1  0.74459500  0.62762900  0.34455400  1
  O  4001  1  0.24467300  0.38792300  0.10785700  1
  O  4024  1  0.64853500  0.88768400  0.60124900  1
  O  4047  1  0.14884700  0.12804500  0.85104900  1
  O  4070  1  0.39748900  0.63321500  0.10581800  1
  O  4093  1  0.89773600  0.38242000  0.34660300  1
