# generated using pymatgen
data_H9(C10N)2
_symmetry_space_group_name_H-M   'P 1'
_cell_length_a   30.01920000
_cell_length_b   37.69790000
_cell_length_c   37.82230000
_cell_angle_alpha   90.00000000
_cell_angle_beta   90.00000000
_cell_angle_gamma   90.00000000
_symmetry_Int_Tables_number   1
_chemical_formula_structural   H9(C10N)2
_chemical_formula_sum   'H288 C640 N64'
_cell_volume   42802.01426374
_cell_formula_units_Z   32
loop_
 _symmetry_equiv_pos_site_id
 _symmetry_equiv_pos_as_xyz
  1  'x, y, z'
loop_
 _atom_site_type_symbol
 _atom_site_label
 _atom_site_symmetry_multiplicity
 _atom_site_fract_x
 _atom_site_fract_y
 _atom_site_fract_z
 _atom_site_occupancy
  H  4  1  0.99901500  0.52498700  0.85310500  1
  H  6  1  0.92792700  0.45643100  0.94293600  1
  H  17  1  0.80553300  0.48172700  0.87929800  1
  H  18  1  0.75840900  0.44455000  0.84392900  1
  H  19  1  0.88197000  0.50109700  0.89714700  1
  H  20  1  0.99260200  0.45117600  0.84981200  1
  H  24  1  0.92802300  0.45620600  0.00547600  1
  H  35  1  0.80570500  0.48156500  0.06944300  1
  H  36  1  0.75848900  0.44475400  0.10511800  1
  H  37  1  0.88220300  0.50066200  0.05144100  1
  H  38  1  0.99269700  0.45053700  0.09877500  1
  H  44  1  0.81942100  0.30521900  0.79386400  1
  H  45  1  0.81976100  0.24325500  0.79367000  1
  H  50  1  0.75012700  0.39714100  0.79817000  1
  H  51  1  0.86616200  0.35377600  0.75261700  1
  H  57  1  0.81917000  0.30573600  0.15548200  1
  H  58  1  0.81949500  0.24378300  0.15571200  1
  H  63  1  0.75010500  0.39761900  0.15116700  1
  H  64  1  0.86608400  0.35415500  0.19673300  1
  H  69  1  0.92993100  0.09384600  0.94355500  1
  H  76  1  0.99873600  0.09820700  0.85209800  1
  H  78  1  0.88297500  0.05196800  0.89521800  1
  H  81  1  0.99016200  0.14431300  0.80506000  1
  H  88  1  0.94282000  0.17983800  0.76822200  1
  H  89  1  0.86628100  0.19757600  0.74903200  1
  H  90  1  0.75592900  0.14943300  0.79855000  1
  H  91  1  0.74944400  0.15290500  0.72509100  1
  H  93  1  0.86608500  0.19813300  0.20038400  1
  H  96  1  0.92986400  0.09389400  0.00615000  1
  H  103  1  0.99854400  0.09841900  0.09764900  1
  H  108  1  0.88279000  0.05217000  0.05453700  1
  H  113  1  0.94261800  0.18031200  0.18126900  1
  H  114  1  0.98996100  0.14465500  0.14455500  1
  H  115  1  0.75572600  0.14992600  0.15094300  1
  H  121  1  0.74006000  0.44369000  0.60575900  1
  H  129  1  0.57104100  0.45561400  0.50559900  1
  H  130  1  0.57122100  0.45590300  0.44385700  1
  H  136  1  0.69307400  0.48046200  0.56985400  1
  H  137  1  0.61669900  0.49970400  0.55169000  1
  H  138  1  0.50590000  0.44996400  0.59897500  1
  H  151  1  0.69330700  0.48179600  0.37903800  1
  H  152  1  0.74024700  0.44505100  0.34306500  1
  H  153  1  0.61693200  0.50068800  0.39763300  1
  H  154  1  0.50610300  0.45038600  0.35098600  1
  H  155  1  0.49975300  0.52426500  0.35405800  1
  H  163  1  0.74902300  0.39538500  0.72513800  1
  H  165  1  0.67869900  0.30506500  0.65658900  1
  H  166  1  0.67851600  0.24312500  0.65679200  1
  H  171  1  0.74815400  0.39673300  0.65201000  1
  H  172  1  0.63191200  0.35372800  0.69758300  1
  H  173  1  0.74906100  0.39597700  0.22427500  1
  H  182  1  0.67883400  0.30570700  0.29301000  1
  H  183  1  0.67852000  0.24375600  0.29275900  1
  H  188  1  0.74827700  0.39779700  0.29710500  1
  H  189  1  0.63195600  0.35412100  0.25230100  1
  H  202  1  0.55600400  0.17869700  0.68168500  1
  H  203  1  0.50917700  0.14321500  0.64439800  1
  H  204  1  0.63227200  0.19682500  0.70117600  1
  H  205  1  0.74331900  0.14997900  0.65141500  1
  H  214  1  0.57041800  0.09345300  0.44338100  1
  H  215  1  0.57051500  0.09348000  0.50516000  1
  H  220  1  0.50125600  0.09750100  0.59695500  1
  H  221  1  0.61760100  0.05243800  0.55361000  1
  H  222  1  0.50047600  0.02447600  0.59516200  1
  H  223  1  0.74920500  0.15349900  0.22434400  1
  H  234  1  0.50102300  0.09748300  0.35179200  1
  H  239  1  0.61738800  0.05227600  0.39496800  1
  H  244  1  0.55581400  0.17924900  0.26759100  1
  H  245  1  0.50896100  0.14346700  0.30458000  1
  H  246  1  0.63212200  0.19753900  0.24829000  1
  H  247  1  0.74310800  0.15044600  0.29791900  1
  H  248  1  0.50021300  0.02431700  0.35354800  1
  H  251  1  0.32017200  0.80515400  0.65522500  1
  H  262  1  0.44321600  0.86857600  0.68067300  1
  H  263  1  0.49056300  0.90410400  0.64383700  1
  H  264  1  0.36667500  0.85083600  0.69985700  1
  H  265  1  0.25632900  0.89898300  0.65033600  1
  H  266  1  0.24985700  0.89550800  0.72380300  1
  H  269  1  0.43027800  0.95451800  0.44356400  1
  H  270  1  0.43034100  0.95456700  0.50534200  1
  H  275  1  0.49913700  0.95020700  0.59679900  1
  H  276  1  0.38337800  0.99644500  0.55367300  1
  H  281  1  0.31990900  0.80462900  0.29399900  1
  H  288  1  0.49895400  0.94999700  0.35205900  1
  H  293  1  0.38319800  0.99624700  0.39516900  1
  H  298  1  0.44303000  0.86810400  0.26844200  1
  H  299  1  0.49037300  0.90376000  0.30515300  1
  H  300  1  0.36649500  0.85028000  0.24932600  1
  H  301  1  0.25613600  0.89848300  0.29877100  1
  H  307  1  0.31983200  0.74319100  0.65503700  1
  H  314  1  0.25053300  0.65127500  0.65072700  1
  H  316  1  0.36656900  0.69463800  0.69628200  1
  H  319  1  0.25881400  0.60387400  0.60496100  1
  H  324  1  0.31958900  0.74267700  0.29422300  1
  H  331  1  0.25051300  0.65080300  0.29854600  1
  H  333  1  0.36649900  0.69425900  0.25298000  1
  H  336  1  0.25889400  0.60366500  0.34459000  1
  H  342  1  0.49943000  0.52342700  0.59579100  1
  H  344  1  0.42833300  0.59197700  0.50596300  1
  H  345  1  0.42842200  0.59220000  0.44424100  1
  H  351  1  0.30593400  0.56669500  0.56959500  1
  H  352  1  0.38236900  0.54731400  0.55175100  1
  H  353  1  0.49300400  0.59723000  0.59908300  1
  H  360  1  0.30610400  0.56685100  0.38027000  1
  H  361  1  0.38259800  0.54775200  0.39827000  1
  H  362  1  0.49310100  0.59786600  0.35093800  1
  H  366  1  0.07093100  0.95493700  0.94373600  1
  H  373  1  0.00167200  0.95091100  0.85194700  1
  H  375  1  0.11801800  0.99597000  0.89529600  1
  H  378  1  0.00959700  0.90520000  0.80450100  1
  H  382  1  0.17893200  0.80529200  0.79211000  1
  H  388  1  0.05642400  0.86971600  0.76721600  1
  H  389  1  0.13269500  0.85159000  0.74772300  1
  H  390  1  0.24374100  0.89843300  0.79749400  1
  H  391  1  0.24961400  0.89491400  0.22537000  1
  H  395  1  0.13253200  0.85087500  0.20142100  1
  H  396  1  0.07083100  0.95496300  0.00633200  1
  H  397  1  0.17892200  0.80465700  0.15695800  1
  H  404  1  0.00143200  0.95093300  0.09791800  1
  H  409  1  0.11780100  0.99613900  0.05474300  1
  H  414  1  0.05622400  0.86916500  0.18211700  1
  H  415  1  0.00937400  0.90494500  0.14512900  1
  H  416  1  0.24351700  0.89796600  0.15179100  1
  H  422  1  0.24045900  0.60472100  0.84314900  1
  H  429  1  0.24943700  0.65302800  0.72376900  1
  H  431  1  0.17910900  0.74335100  0.79231100  1
  H  436  1  0.24856400  0.65167600  0.79689800  1
  H  437  1  0.13232900  0.69468900  0.75131600  1
  H  438  1  0.24947400  0.65243700  0.22543600  1
  H  446  1  0.17923900  0.74270700  0.15670600  1
  H  453  1  0.24867800  0.65062200  0.15260800  1
  H  455  1  0.13235900  0.69429600  0.19741500  1
  H  458  1  0.24064600  0.60336500  0.10664600  1
  H  465  1  0.07143800  0.59281000  0.94329700  1
  H  471  1  0.19346600  0.56795200  0.87905000  1
  H  472  1  0.11708500  0.54871500  0.89720900  1
  H  473  1  0.00629600  0.59846300  0.84991900  1
  H  474  1  0.00016700  0.52415100  0.09565800  1
  H  478  1  0.07162400  0.59251600  0.00585600  1
  H  484  1  0.19370300  0.56662300  0.07067500  1
  H  485  1  0.11732500  0.54773300  0.05208000  1
  H  486  1  0.00649900  0.59803600  0.09873000  1
  H  487  1  0.00089300  0.02475700  0.85373400  1
  H  493  1  0.00062000  0.02491400  0.09616500  1
  H  500  1  0.59927100  0.52498700  0.85310500  1
  H  502  1  0.52818300  0.45643100  0.94293600  1
  H  513  1  0.40578900  0.48172700  0.87929800  1
  H  514  1  0.35866500  0.44455000  0.84392900  1
  H  515  1  0.48222600  0.50109700  0.89714700  1
  H  516  1  0.59285800  0.45117600  0.84981200  1
  H  520  1  0.52827900  0.45620600  0.00547600  1
  H  531  1  0.40596100  0.48156500  0.06944300  1
  H  532  1  0.35874500  0.44475400  0.10511800  1
  H  533  1  0.48245900  0.50066200  0.05144100  1
  H  534  1  0.59295300  0.45053700  0.09877500  1
  H  540  1  0.41967700  0.30521900  0.79386400  1
  H  541  1  0.42001700  0.24325500  0.79367000  1
  H  546  1  0.35038300  0.39714100  0.79817000  1
  H  547  1  0.46641800  0.35377600  0.75261700  1
  H  553  1  0.41942600  0.30573600  0.15548200  1
  H  554  1  0.41975100  0.24378300  0.15571200  1
  H  559  1  0.35036100  0.39761900  0.15116700  1
  H  560  1  0.46634000  0.35415500  0.19673300  1
  H  565  1  0.53018700  0.09384600  0.94355500  1
  H  572  1  0.59899200  0.09820700  0.85209800  1
  H  574  1  0.48323100  0.05196800  0.89521800  1
  H  577  1  0.59041800  0.14431300  0.80506000  1
  H  584  1  0.54307600  0.17983800  0.76822200  1
  H  585  1  0.46653700  0.19757600  0.74903200  1
  H  586  1  0.35618500  0.14943300  0.79855000  1
  H  587  1  0.34970000  0.15290500  0.72509100  1
  H  589  1  0.46634100  0.19813300  0.20038400  1
  H  592  1  0.53012000  0.09389400  0.00615000  1
  H  599  1  0.59880000  0.09841900  0.09764900  1
  H  604  1  0.48304600  0.05217000  0.05453700  1
  H  609  1  0.54287400  0.18031200  0.18126900  1
  H  610  1  0.59021700  0.14465500  0.14455500  1
  H  611  1  0.35598200  0.14992600  0.15094300  1
  H  617  1  0.34031600  0.44369000  0.60575900  1
  H  625  1  0.17129700  0.45561400  0.50559900  1
  H  626  1  0.17147700  0.45590300  0.44385700  1
  H  632  1  0.29333000  0.48046200  0.56985400  1
  H  633  1  0.21695500  0.49970400  0.55169000  1
  H  634  1  0.10615600  0.44996400  0.59897500  1
  H  647  1  0.29356300  0.48179600  0.37903800  1
  H  648  1  0.34050300  0.44505100  0.34306500  1
  H  649  1  0.21718800  0.50068800  0.39763300  1
  H  650  1  0.10635900  0.45038600  0.35098600  1
  H  651  1  0.10000900  0.52426500  0.35405800  1
  H  659  1  0.34927900  0.39538500  0.72513800  1
  H  661  1  0.27895500  0.30506500  0.65658900  1
  H  662  1  0.27877200  0.24312500  0.65679200  1
  H  667  1  0.34841000  0.39673300  0.65201000  1
  H  668  1  0.23216800  0.35372800  0.69758300  1
  H  669  1  0.34931700  0.39597700  0.22427500  1
  H  678  1  0.27909000  0.30570700  0.29301000  1
  H  679  1  0.27877600  0.24375600  0.29275900  1
  H  684  1  0.34853300  0.39779700  0.29710500  1
  H  685  1  0.23221200  0.35412100  0.25230100  1
  H  698  1  0.15626000  0.17869700  0.68168500  1
  H  699  1  0.10943300  0.14321500  0.64439800  1
  H  700  1  0.23252800  0.19682500  0.70117600  1
  H  701  1  0.34357500  0.14997900  0.65141500  1
  H  710  1  0.17067400  0.09345300  0.44338100  1
  H  711  1  0.17077100  0.09348000  0.50516000  1
  H  716  1  0.10151200  0.09750100  0.59695500  1
  H  717  1  0.21785700  0.05243800  0.55361000  1
  H  718  1  0.10073200  0.02447600  0.59516200  1
  H  719  1  0.34946100  0.15349900  0.22434400  1
  H  730  1  0.10127900  0.09748300  0.35179200  1
  H  735  1  0.21764400  0.05227600  0.39496800  1
  H  740  1  0.15607000  0.17924900  0.26759100  1
  H  741  1  0.10921700  0.14346700  0.30458000  1
  H  742  1  0.23237800  0.19753900  0.24829000  1
  H  743  1  0.34336400  0.15044600  0.29791900  1
  H  744  1  0.10046900  0.02431700  0.35354800  1
  H  747  1  0.92042780  0.80515400  0.65522500  1
  H  758  1  0.04347200  0.86857600  0.68067300  1
  H  759  1  0.09081900  0.90410400  0.64383700  1
  H  760  1  0.96693080  0.85083600  0.69985700  1
  H  761  1  0.85658500  0.89898300  0.65033600  1
  H  762  1  0.85011300  0.89550800  0.72380300  1
  H  765  1  0.03053400  0.95451800  0.44356400  1
  H  766  1  0.03059700  0.95456700  0.50534200  1
  H  771  1  0.09939300  0.95020700  0.59679900  1
  H  772  1  0.98363380  0.99644500  0.55367300  1
  H  777  1  0.92016480  0.80462900  0.29399900  1
  H  784  1  0.09921000  0.94999700  0.35205900  1
  H  789  1  0.98345380  0.99624700  0.39516900  1
  H  794  1  0.04328600  0.86810400  0.26844200  1
  H  795  1  0.09062900  0.90376000  0.30515300  1
  H  796  1  0.96675080  0.85028000  0.24932600  1
  H  797  1  0.85639200  0.89848300  0.29877100  1
  H  803  1  0.92008780  0.74319100  0.65503700  1
  H  810  1  0.85078900  0.65127500  0.65072700  1
  H  812  1  0.96682480  0.69463800  0.69628200  1
  H  815  1  0.85907000  0.60387400  0.60496100  1
  H  820  1  0.91984480  0.74267700  0.29422300  1
  H  827  1  0.85076900  0.65080300  0.29854600  1
  H  829  1  0.96675480  0.69425900  0.25298000  1
  H  832  1  0.85915000  0.60366500  0.34459000  1
  H  838  1  0.09968600  0.52342700  0.59579100  1
  H  840  1  0.02858900  0.59197700  0.50596300  1
  H  841  1  0.02867800  0.59220000  0.44424100  1
  H  847  1  0.90618980  0.56669500  0.56959500  1
  H  848  1  0.98262480  0.54731400  0.55175100  1
  H  849  1  0.09326000  0.59723000  0.59908300  1
  H  856  1  0.90635980  0.56685100  0.38027000  1
  H  857  1  0.98285380  0.54775200  0.39827000  1
  H  858  1  0.09335700  0.59786600  0.35093800  1
  H  862  1  0.67118700  0.95493700  0.94373600  1
  H  869  1  0.60192800  0.95091100  0.85194700  1
  H  871  1  0.71827400  0.99597000  0.89529600  1
  H  874  1  0.60985300  0.90520000  0.80450100  1
  H  878  1  0.77918800  0.80529200  0.79211000  1
  H  884  1  0.65668000  0.86971600  0.76721600  1
  H  885  1  0.73295100  0.85159000  0.74772300  1
  H  886  1  0.84399700  0.89843300  0.79749400  1
  H  887  1  0.84987000  0.89491400  0.22537000  1
  H  891  1  0.73278800  0.85087500  0.20142100  1
  H  892  1  0.67108700  0.95496300  0.00633200  1
  H  893  1  0.77917800  0.80465700  0.15695800  1
  H  900  1  0.60168800  0.95093300  0.09791800  1
  H  905  1  0.71805700  0.99613900  0.05474300  1
  H  910  1  0.65648000  0.86916500  0.18211700  1
  H  911  1  0.60963000  0.90494500  0.14512900  1
  H  912  1  0.84377300  0.89796600  0.15179100  1
  H  918  1  0.84071500  0.60472100  0.84314900  1
  H  925  1  0.84969300  0.65302800  0.72376900  1
  H  927  1  0.77936500  0.74335100  0.79231100  1
  H  932  1  0.84882000  0.65167600  0.79689800  1
  H  933  1  0.73258500  0.69468900  0.75131600  1
  H  934  1  0.84973000  0.65243700  0.22543600  1
  H  942  1  0.77949500  0.74270700  0.15670600  1
  H  949  1  0.84893400  0.65062200  0.15260800  1
  H  951  1  0.73261500  0.69429600  0.19741500  1
  H  954  1  0.84090200  0.60336500  0.10664600  1
  H  961  1  0.67169400  0.59281000  0.94329700  1
  H  967  1  0.79372200  0.56795200  0.87905000  1
  H  968  1  0.71734100  0.54871500  0.89720900  1
  H  969  1  0.60655200  0.59846300  0.84991900  1
  H  970  1  0.60042300  0.52415100  0.09565800  1
  H  974  1  0.67188000  0.59251600  0.00585600  1
  H  980  1  0.79395900  0.56662300  0.07067500  1
  H  981  1  0.71758100  0.54773300  0.05208000  1
  H  982  1  0.60675500  0.59803600  0.09873000  1
  H  983  1  0.60114900  0.02475700  0.85373400  1
  H  989  1  0.60087600  0.02491400  0.09616500  1
  C  1  1  0.94655100  0.47530500  0.99232700  1
  C  2  1  0.97097300  0.50099100  0.89826300  1
  C  3  1  0.97170600  0.50037500  0.93591900  1
  C  5  1  0.94650400  0.47543500  0.95536400  1
  C  7  1  0.85804400  0.41510000  0.81441400  1
  C  8  1  0.81097000  0.41771600  0.81752000  1
  C  9  1  0.88580600  0.43683900  0.83542000  1
  C  10  1  0.95904200  0.45465700  0.85283200  1
  C  11  1  0.94205000  0.47946200  0.87737300  1
  C  12  1  0.89526700  0.48295500  0.87994500  1
  C  14  1  0.86663900  0.46154800  0.85939100  1
  C  15  1  0.81986200  0.46409500  0.86213400  1
  C  16  1  0.79225200  0.44227100  0.84145100  1
  C  21  1  0.99907000  0.52490200  0.88025600  1
  C  22  1  0.97120300  0.50043900  0.05037800  1
  C  23  1  0.97183000  0.50009200  0.01271700  1
  C  25  1  0.85805800  0.41511600  0.13458200  1
  C  26  1  0.81098800  0.41789100  0.13157600  1
  C  27  1  0.88586900  0.43661100  0.11337500  1
  C  28  1  0.95914700  0.45408600  0.09576400  1
  C  29  1  0.94222200  0.47888300  0.07118300  1
  C  30  1  0.89545000  0.48249600  0.06864200  1
  C  32  1  0.86676300  0.46126400  0.08932000  1
  C  33  1  0.81999100  0.46396700  0.08666300  1
  C  34  1  0.79232700  0.44236700  0.10753400  1
  C  39  1  0.77643200  0.23608200  0.74961700  1
  C  40  1  0.80134200  0.25567700  0.77460100  1
  C  41  1  0.77605700  0.31231400  0.74983500  1
  C  42  1  0.77640800  0.35009100  0.74954600  1
  C  43  1  0.80108700  0.29277200  0.77476100  1
  C  46  1  0.80349200  0.37131200  0.77223000  1
  C  47  1  0.85045900  0.37033900  0.77002000  1
  C  49  1  0.78412200  0.39558700  0.79622600  1
  C  52  1  0.77634600  0.35064600  0.19988700  1
  C  53  1  0.77626300  0.23665000  0.19982900  1
  C  54  1  0.77594000  0.31287400  0.19959700  1
  C  55  1  0.80112300  0.25622100  0.17479900  1
  C  56  1  0.80089000  0.29331100  0.17463200  1
  C  59  1  0.80343900  0.37180300  0.17716000  1
  C  60  1  0.85040700  0.37068600  0.17928300  1
  C  62  1  0.78409900  0.39599000  0.15306600  1
  C  65  1  0.97271600  0.04921500  0.89888300  1
  C  66  1  0.97315700  0.04957300  0.93652900  1
  C  67  1  0.94825800  0.07468900  0.95598400  1
  C  68  1  0.94821800  0.07472000  0.99295600  1
  C  70  1  0.94552300  0.07190900  0.87775700  1
  C  71  1  0.89856800  0.06953400  0.87875600  1
  C  73  1  0.89070900  0.11422400  0.83432000  1
  C  74  1  0.93776700  0.11750500  0.83170100  1
  C  75  1  0.96475100  0.09613300  0.85364600  1
  C  77  1  0.86281400  0.13532100  0.81277400  1
  C  80  1  0.95633600  0.14169800  0.80733300  1
  C  82  1  0.77729200  0.19829500  0.74903400  1
  C  83  1  0.78947100  0.15261600  0.79510800  1
  C  84  1  0.80631100  0.17742400  0.77050400  1
  C  85  1  0.85308200  0.18020400  0.76705100  1
  C  86  1  0.88183500  0.15956600  0.78826700  1
  C  87  1  0.92859600  0.16248100  0.78571500  1
  C  92  1  0.77709600  0.19886500  0.20040000  1
  C  94  1  0.97254900  0.04933400  0.05094900  1
  C  95  1  0.97307300  0.04963100  0.01329900  1
  C  97  1  0.94534000  0.07208600  0.07201300  1
  C  98  1  0.89838300  0.06975500  0.07097700  1
  C  100  1  0.89050900  0.11457100  0.11529400  1
  C  101  1  0.93756900  0.11782100  0.11794100  1
  C  102  1  0.96455900  0.09636600  0.09607800  1
  C  104  1  0.86261100  0.13574000  0.13677100  1
  C  105  1  0.78926800  0.15312000  0.15437500  1
  C  106  1  0.80610700  0.17797300  0.17893700  1
  C  107  1  0.85288000  0.18073400  0.18239200  1
  C  110  1  0.88163100  0.16003500  0.16123000  1
  C  111  1  0.92839300  0.16292200  0.16380500  1
  C  112  1  0.95613400  0.14206600  0.14226000  1
  C  116  1  0.64030700  0.41438600  0.63516200  1
  C  117  1  0.68739300  0.41705000  0.63222800  1
  C  118  1  0.61263100  0.43584400  0.61380700  1
  C  120  1  0.70620800  0.44137700  0.60811500  1
  C  122  1  0.49973000  0.52395800  0.45595900  1
  C  123  1  0.52728300  0.49974100  0.43686400  1
  C  124  1  0.55258300  0.47485900  0.45630200  1
  C  125  1  0.49966000  0.52380900  0.49389400  1
  C  126  1  0.52713900  0.49943400  0.51286100  1
  C  127  1  0.52768900  0.49974900  0.55052700  1
  C  128  1  0.55247600  0.47469000  0.49327200  1
  C  131  1  0.53946800  0.45341800  0.59599000  1
  C  132  1  0.55654000  0.47810600  0.57136700  1
  C  133  1  0.60333400  0.48160500  0.56890500  1
  C  134  1  0.63188900  0.46036800  0.58969700  1
  C  135  1  0.67867800  0.46295900  0.58711400  1
  C  139  1  0.52794200  0.50033800  0.39920600  1
  C  140  1  0.49977000  0.52420200  0.38120900  1
  C  141  1  0.64046000  0.41519300  0.31430700  1
  C  142  1  0.68754900  0.41804700  0.31700600  1
  C  143  1  0.61281400  0.43665300  0.33568600  1
  C  144  1  0.53967500  0.45398600  0.35378900  1
  C  145  1  0.55678400  0.47880700  0.37826400  1
  C  146  1  0.60356700  0.48250200  0.38051100  1
  C  148  1  0.63209900  0.46134700  0.35961100  1
  C  149  1  0.67888900  0.46416100  0.36192700  1
  C  150  1  0.70639200  0.44259800  0.34088100  1
  C  156  1  0.74911500  0.25514400  0.72523600  1
  C  157  1  0.74906000  0.29320200  0.72524100  1
  C  158  1  0.74901900  0.36813700  0.72518600  1
  C  159  1  0.72189200  0.23602600  0.70083000  1
  C  160  1  0.69689300  0.25557400  0.67586800  1
  C  161  1  0.72164900  0.35002700  0.70086400  1
  C  162  1  0.72203900  0.31225300  0.70062600  1
  C  164  1  0.69704600  0.29266400  0.67571200  1
  C  167  1  0.69466400  0.37115900  0.67803900  1
  C  168  1  0.64768900  0.37015600  0.68009600  1
  C  170  1  0.71415000  0.39518900  0.65386300  1
  C  174  1  0.74900600  0.25573600  0.22423800  1
  C  175  1  0.72179900  0.23663900  0.24866800  1
  C  176  1  0.69688000  0.25620300  0.27366900  1
  C  177  1  0.74898700  0.29379600  0.22423800  1
  C  178  1  0.72205500  0.31287700  0.24889500  1
  C  179  1  0.72169800  0.35065900  0.24864700  1
  C  180  1  0.74902900  0.36873100  0.22426500  1
  C  181  1  0.69711500  0.29329500  0.27385400  1
  C  184  1  0.69476000  0.37184300  0.27148000  1
  C  185  1  0.64777200  0.37069700  0.26962400  1
  C  187  1  0.71427000  0.39612600  0.29540000  1
  C  190  1  0.74933000  0.18014300  0.72515200  1
  C  191  1  0.72125700  0.19823900  0.70131400  1
  C  192  1  0.60905000  0.11416300  0.61499200  1
  C  193  1  0.56195000  0.11707800  0.61756400  1
  C  194  1  0.63664300  0.13523300  0.63681500  1
  C  195  1  0.70973100  0.15287300  0.65482800  1
  C  196  1  0.69253300  0.17730700  0.67964900  1
  C  197  1  0.64572300  0.17971300  0.68302800  1
  C  199  1  0.61727500  0.15908600  0.66154100  1
  C  200  1  0.57047800  0.16163500  0.66403400  1
  C  201  1  0.54303900  0.14088100  0.64215000  1
  C  206  1  0.50047600  0.02439400  0.49332300  1
  C  207  1  0.52738900  0.04917500  0.51231700  1
  C  208  1  0.52783600  0.04890700  0.54997400  1
  C  209  1  0.50050000  0.02445500  0.56800400  1
  C  210  1  0.55221000  0.07427700  0.49278300  1
  C  211  1  0.50042600  0.02436700  0.45539000  1
  C  212  1  0.52728300  0.04913000  0.43633300  1
  C  213  1  0.55214700  0.07426100  0.45580300  1
  C  216  1  0.55478800  0.07180000  0.57111000  1
  C  217  1  0.60177500  0.06979700  0.57015000  1
  C  219  1  0.53526400  0.09571100  0.59539200  1
  C  224  1  0.52764200  0.04880400  0.39867800  1
  C  225  1  0.50028000  0.02432800  0.38070700  1
  C  226  1  0.72111400  0.19885500  0.24816300  1
  C  227  1  0.74913100  0.18073700  0.22429600  1
  C  228  1  0.55457200  0.07167200  0.37751000  1
  C  229  1  0.60155500  0.06967500  0.37847500  1
  C  231  1  0.60881700  0.11432200  0.33392200  1
  C  232  1  0.56172000  0.11720500  0.33131000  1
  C  233  1  0.53503100  0.09568400  0.35333700  1
  C  235  1  0.63641900  0.13557300  0.31229200  1
  C  236  1  0.70952400  0.15337200  0.29450600  1
  C  237  1  0.69235400  0.17792800  0.26979300  1
  C  238  1  0.64555000  0.18035000  0.26637700  1
  C  241  1  0.61707500  0.15957100  0.28769800  1
  C  242  1  0.57027500  0.16208100  0.28514900  1
  C  243  1  0.54282300  0.14115400  0.30686100  1
  C  249  1  0.27683300  0.81233000  0.69927300  1
  C  250  1  0.27768200  0.85011500  0.69984600  1
  C  252  1  0.39111000  0.93419000  0.61457100  1
  C  253  1  0.43816600  0.93091000  0.61719400  1
  C  254  1  0.36321400  0.91309500  0.63611700  1
  C  255  1  0.28986800  0.89579300  0.65377600  1
  C  256  1  0.30670700  0.87098800  0.67838300  1
  C  257  1  0.35347700  0.86821100  0.68184100  1
  C  259  1  0.38223200  0.88884900  0.66062300  1
  C  260  1  0.42899500  0.88593600  0.66318000  1
  C  261  1  0.45673400  0.90671500  0.64156100  1
  C  267  1  0.44866300  0.97372500  0.49291000  1
  C  268  1  0.44861600  0.97370200  0.45594000  1
  C  271  1  0.44592500  0.97650800  0.57113900  1
  C  272  1  0.39897100  0.97888500  0.57014200  1
  C  274  1  0.46515200  0.95228200  0.59524900  1
  C  277  1  0.47356000  0.99884400  0.51236700  1
  C  278  1  0.47347400  0.99878600  0.43641200  1
  C  279  1  0.27750600  0.84954700  0.24931100  1
  C  280  1  0.27667000  0.81176300  0.24988700  1
  C  282  1  0.44575100  0.97632400  0.37770000  1
  C  283  1  0.39879100  0.97865500  0.37873700  1
  C  285  1  0.39092000  0.93384500  0.33441400  1
  C  286  1  0.43798000  0.93059700  0.33176500  1
  C  287  1  0.46496900  0.95205100  0.35363300  1
  C  289  1  0.36302100  0.91267500  0.31293700  1
  C  290  1  0.28967800  0.89529700  0.29533100  1
  C  291  1  0.30651700  0.87044100  0.27077400  1
  C  292  1  0.35329100  0.86767700  0.26731800  1
  C  295  1  0.38204200  0.88838100  0.28847800  1
  C  296  1  0.42880600  0.88549300  0.28590300  1
  C  297  1  0.45654400  0.90635300  0.30744600  1
  C  302  1  0.47295400  0.99908200  0.39876500  1
  C  303  1  0.30173400  0.79273200  0.67428200  1
  C  304  1  0.27646000  0.73609600  0.69905800  1
  C  305  1  0.27681300  0.69832000  0.69935200  1
  C  306  1  0.30148400  0.75563800  0.67412900  1
  C  308  1  0.30389900  0.67709300  0.67667500  1
  C  309  1  0.35086500  0.67808300  0.67887200  1
  C  311  1  0.35845100  0.63331600  0.63448000  1
  C  312  1  0.31137400  0.63070400  0.63137400  1
  C  313  1  0.28452800  0.65282900  0.65267100  1
  C  315  1  0.38620900  0.61157500  0.61347400  1
  C  318  1  0.29265600  0.60614800  0.60744300  1
  C  320  1  0.30153400  0.79219100  0.27491200  1
  C  321  1  0.27675600  0.69776600  0.24982600  1
  C  322  1  0.27635000  0.73553900  0.25011400  1
  C  323  1  0.30129400  0.75510100  0.27508400  1
  C  325  1  0.30385200  0.67660800  0.27254600  1
  C  326  1  0.35081900  0.67772500  0.27042500  1
  C  328  1  0.35846700  0.63330100  0.31513200  1
  C  329  1  0.31139700  0.63052800  0.31814000  1
  C  330  1  0.28450800  0.65242900  0.29664800  1
  C  332  1  0.38627300  0.61180300  0.33633900  1
  C  335  1  0.29272900  0.60605500  0.34218200  1
  C  337  1  0.49948400  0.52351200  0.56864300  1
  C  338  1  0.47223100  0.54831700  0.43699900  1
  C  339  1  0.44695400  0.57310400  0.45657200  1
  C  340  1  0.47136800  0.54741200  0.55063500  1
  C  341  1  0.47211100  0.54803600  0.51298000  1
  C  343  1  0.44689700  0.57296800  0.49353400  1
  C  346  1  0.45944600  0.59374700  0.59606900  1
  C  347  1  0.44245000  0.56894700  0.57152500  1
  C  348  1  0.39566700  0.56545900  0.56895000  1
  C  349  1  0.36704200  0.58686800  0.58950400  1
  C  350  1  0.32026500  0.58432400  0.58675700  1
  C  354  1  0.47159200  0.54796200  0.39933800  1
  C  355  1  0.45954900  0.59432200  0.35395500  1
  C  356  1  0.44262000  0.56953000  0.37853600  1
  C  357  1  0.39585000  0.56591500  0.38106900  1
  C  358  1  0.36716500  0.58715200  0.36039300  1
  C  359  1  0.32039200  0.58444900  0.36304800  1
  C  363  1  0.47312400  0.00001300  0.55001200  1
  C  364  1  0.05261600  0.97413300  0.95611300  1
  C  365  1  0.05257300  0.97416100  0.99309200  1
  C  367  1  0.05520800  0.97662100  0.87778300  1
  C  368  1  0.10219100  0.97862200  0.87874600  1
  C  370  1  0.10947000  0.93424800  0.83391300  1
  C  371  1  0.06237000  0.93133300  0.83133800  1
  C  372  1  0.03568000  0.95270500  0.85350700  1
  C  374  1  0.13706200  0.91317600  0.81209100  1
  C  377  1  0.04345900  0.90753000  0.80675600  1
  C  379  1  0.24974000  0.86827000  0.72374200  1
  C  380  1  0.22168500  0.85017500  0.74759400  1
  C  381  1  0.22231100  0.81238700  0.74807300  1
  C  383  1  0.21015200  0.89553400  0.79408100  1
  C  384  1  0.19295300  0.87111100  0.76925100  1
  C  385  1  0.14614300  0.86870200  0.76587100  1
  C  386  1  0.11769800  0.88932800  0.78736300  1
  C  387  1  0.07089800  0.88677900  0.78486800  1
  C  392  1  0.22221100  0.81177300  0.20104300  1
  C  393  1  0.22152200  0.84955800  0.20155000  1
  C  394  1  0.24953700  0.86767500  0.22541700  1
  C  398  1  0.05498500  0.97674600  0.07220600  1
  C  399  1  0.10196800  0.97873400  0.07123300  1
  C  401  1  0.10923000  0.93409200  0.11578900  1
  C  402  1  0.06213000  0.93120900  0.11840100  1
  C  403  1  0.03544400  0.95273100  0.09637400  1
  C  405  1  0.13682900  0.91284000  0.13741900  1
  C  406  1  0.20993600  0.89504300  0.15521000  1
  C  407  1  0.19276300  0.87048500  0.17991800  1
  C  408  1  0.14596000  0.86806300  0.18333400  1
  C  411  1  0.11748500  0.88884300  0.16201300  1
  C  412  1  0.07068500  0.88633100  0.16455900  1
  C  413  1  0.04323200  0.90726200  0.14285200  1
  C  417  1  0.14071000  0.63402700  0.81373500  1
  C  418  1  0.18779600  0.63136100  0.81667300  1
  C  419  1  0.11303100  0.61257000  0.83508900  1
  C  421  1  0.20660800  0.60703100  0.84078600  1
  C  423  1  0.24952400  0.79326800  0.72365800  1
  C  424  1  0.24946700  0.75520900  0.72365500  1
  C  425  1  0.24943000  0.68027400  0.72371900  1
  C  426  1  0.19730700  0.79284100  0.77303400  1
  C  427  1  0.22206500  0.69838600  0.74804200  1
  C  428  1  0.22245100  0.73616000  0.74827500  1
  C  430  1  0.19746700  0.75575200  0.77319500  1
  C  432  1  0.19507800  0.67725500  0.77086600  1
  C  433  1  0.14810200  0.67826300  0.76881000  1
  C  435  1  0.21455900  0.65322200  0.79504100  1
  C  439  1  0.24941400  0.79267700  0.22547500  1
  C  440  1  0.24939400  0.75461800  0.22547500  1
  C  441  1  0.22245800  0.73553600  0.20081800  1
  C  442  1  0.22210500  0.69775500  0.20106700  1
  C  443  1  0.24944000  0.67968200  0.22544600  1
  C  444  1  0.19729700  0.79221000  0.17603600  1
  C  445  1  0.19751000  0.75511700  0.17586700  1
  C  447  1  0.19516200  0.67656800  0.17824100  1
  C  448  1  0.14817500  0.67771700  0.18009500  1
  C  450  1  0.14086000  0.63322900  0.13540700  1
  C  451  1  0.18795000  0.63037500  0.13270700  1
  C  452  1  0.21466900  0.65229400  0.15431400  1
  C  454  1  0.11321100  0.61176900  0.11402800  1
  C  457  1  0.20679100  0.60582400  0.10883000  1
  C  459  1  0.00013700  0.52445900  0.99293800  1
  C  460  1  0.05296900  0.57357000  0.99259400  1
  C  461  1  0.00006700  0.52460700  0.95500400  1
  C  462  1  0.02753200  0.54899100  0.93603700  1
  C  463  1  0.02807200  0.54868000  0.89837000  1
  C  464  1  0.05286900  0.57373500  0.95562400  1
  C  466  1  0.03986400  0.59500400  0.85290100  1
  C  467  1  0.05693400  0.57031300  0.87752700  1
  C  468  1  0.10372700  0.56681400  0.87999400  1
  C  469  1  0.13228500  0.58804600  0.85920200  1
  C  470  1  0.17907200  0.58545400  0.86178800  1
  C  475  1  0.02768200  0.54868000  0.01285000  1
  C  476  1  0.02833500  0.54809200  0.05050700  1
  C  477  1  0.00018300  0.52421200  0.06850500  1
  C  479  1  0.04007100  0.59443900  0.09592200  1
  C  480  1  0.05718000  0.56961800  0.07145000  1
  C  481  1  0.10396300  0.56591700  0.06920300  1
  C  482  1  0.13249500  0.58707500  0.09010000  1
  C  483  1  0.17928500  0.58425800  0.08778700  1
  C  488  1  0.00088900  0.02484000  0.95557200  1
  C  489  1  0.02779900  0.00005600  0.93657900  1
  C  490  1  0.02824900  0.00032400  0.89892200  1
  C  491  1  0.00091300  0.02477900  0.88089100  1
  C  492  1  0.00084300  0.02486900  0.99350500  1
  C  494  1  0.02769900  0.00010300  0.01337800  1
  C  495  1  0.02805900  0.00043000  0.05103600  1
  C  496  1  0.00069300  0.02490600  0.06900700  1
  C  497  1  0.54680700  0.47530500  0.99232700  1
  C  498  1  0.57122900  0.50099100  0.89826300  1
  C  499  1  0.57196200  0.50037500  0.93591900  1
  C  501  1  0.54676000  0.47543500  0.95536400  1
  C  503  1  0.45830000  0.41510000  0.81441400  1
  C  504  1  0.41122600  0.41771600  0.81752000  1
  C  505  1  0.48606200  0.43683900  0.83542000  1
  C  506  1  0.55929800  0.45465700  0.85283200  1
  C  507  1  0.54230600  0.47946200  0.87737300  1
  C  508  1  0.49552300  0.48295500  0.87994500  1
  C  510  1  0.46689500  0.46154800  0.85939100  1
  C  511  1  0.42011800  0.46409500  0.86213400  1
  C  512  1  0.39250800  0.44227100  0.84145100  1
  C  517  1  0.59932600  0.52490200  0.88025600  1
  C  518  1  0.57145900  0.50043900  0.05037800  1
  C  519  1  0.57208600  0.50009200  0.01271700  1
  C  521  1  0.45831400  0.41511600  0.13458200  1
  C  522  1  0.41124400  0.41789100  0.13157600  1
  C  523  1  0.48612500  0.43661100  0.11337500  1
  C  524  1  0.55940300  0.45408600  0.09576400  1
  C  525  1  0.54247800  0.47888300  0.07118300  1
  C  526  1  0.49570600  0.48249600  0.06864200  1
  C  528  1  0.46701900  0.46126400  0.08932000  1
  C  529  1  0.42024700  0.46396700  0.08666300  1
  C  530  1  0.39258300  0.44236700  0.10753400  1
  C  535  1  0.37668800  0.23608200  0.74961700  1
  C  536  1  0.40159800  0.25567700  0.77460100  1
  C  537  1  0.37631300  0.31231400  0.74983500  1
  C  538  1  0.37666400  0.35009100  0.74954600  1
  C  539  1  0.40134300  0.29277200  0.77476100  1
  C  542  1  0.40374800  0.37131200  0.77223000  1
  C  543  1  0.45071500  0.37033900  0.77002000  1
  C  545  1  0.38437800  0.39558700  0.79622600  1
  C  548  1  0.37660200  0.35064600  0.19988700  1
  C  549  1  0.37651900  0.23665000  0.19982900  1
  C  550  1  0.37619600  0.31287400  0.19959700  1
  C  551  1  0.40137900  0.25622100  0.17479900  1
  C  552  1  0.40114600  0.29331100  0.17463200  1
  C  555  1  0.40369500  0.37180300  0.17716000  1
  C  556  1  0.45066300  0.37068600  0.17928300  1
  C  558  1  0.38435500  0.39599000  0.15306600  1
  C  561  1  0.57297200  0.04921500  0.89888300  1
  C  562  1  0.57341300  0.04957300  0.93652900  1
  C  563  1  0.54851400  0.07468900  0.95598400  1
  C  564  1  0.54847400  0.07472000  0.99295600  1
  C  566  1  0.54577900  0.07190900  0.87775700  1
  C  567  1  0.49882400  0.06953400  0.87875600  1
  C  569  1  0.49096500  0.11422400  0.83432000  1
  C  570  1  0.53802300  0.11750500  0.83170100  1
  C  571  1  0.56500700  0.09613300  0.85364600  1
  C  573  1  0.46307000  0.13532100  0.81277400  1
  C  576  1  0.55659200  0.14169800  0.80733300  1
  C  578  1  0.37754800  0.19829500  0.74903400  1
  C  579  1  0.38972700  0.15261600  0.79510800  1
  C  580  1  0.40656700  0.17742400  0.77050400  1
  C  581  1  0.45333800  0.18020400  0.76705100  1
  C  582  1  0.48209100  0.15956600  0.78826700  1
  C  583  1  0.52885200  0.16248100  0.78571500  1
  C  588  1  0.37735200  0.19886500  0.20040000  1
  C  590  1  0.57280500  0.04933400  0.05094900  1
  C  591  1  0.57332900  0.04963100  0.01329900  1
  C  593  1  0.54559600  0.07208600  0.07201300  1
  C  594  1  0.49863900  0.06975500  0.07097700  1
  C  596  1  0.49076500  0.11457100  0.11529400  1
  C  597  1  0.53782500  0.11782100  0.11794100  1
  C  598  1  0.56481500  0.09636600  0.09607800  1
  C  600  1  0.46286700  0.13574000  0.13677100  1
  C  601  1  0.38952400  0.15312000  0.15437500  1
  C  602  1  0.40636300  0.17797300  0.17893700  1
  C  603  1  0.45313600  0.18073400  0.18239200  1
  C  606  1  0.48188700  0.16003500  0.16123000  1
  C  607  1  0.52864900  0.16292200  0.16380500  1
  C  608  1  0.55639000  0.14206600  0.14226000  1
  C  612  1  0.24056300  0.41438600  0.63516200  1
  C  613  1  0.28764900  0.41705000  0.63222800  1
  C  614  1  0.21288700  0.43584400  0.61380700  1
  C  616  1  0.30646400  0.44137700  0.60811500  1
  C  618  1  0.09998600  0.52395800  0.45595900  1
  C  619  1  0.12753900  0.49974100  0.43686400  1
  C  620  1  0.15283900  0.47485900  0.45630200  1
  C  621  1  0.09991600  0.52380900  0.49389400  1
  C  622  1  0.12739500  0.49943400  0.51286100  1
  C  623  1  0.12794500  0.49974900  0.55052700  1
  C  624  1  0.15273200  0.47469000  0.49327200  1
  C  627  1  0.13972400  0.45341800  0.59599000  1
  C  628  1  0.15679600  0.47810600  0.57136700  1
  C  629  1  0.20359000  0.48160500  0.56890500  1
  C  630  1  0.23214500  0.46036800  0.58969700  1
  C  631  1  0.27893400  0.46295900  0.58711400  1
  C  635  1  0.12819800  0.50033800  0.39920600  1
  C  636  1  0.10002600  0.52420200  0.38120900  1
  C  637  1  0.24071600  0.41519300  0.31430700  1
  C  638  1  0.28780500  0.41804700  0.31700600  1
  C  639  1  0.21307000  0.43665300  0.33568600  1
  C  640  1  0.13993100  0.45398600  0.35378900  1
  C  641  1  0.15704000  0.47880700  0.37826400  1
  C  642  1  0.20382300  0.48250200  0.38051100  1
  C  644  1  0.23235500  0.46134700  0.35961100  1
  C  645  1  0.27914500  0.46416100  0.36192700  1
  C  646  1  0.30664800  0.44259800  0.34088100  1
  C  652  1  0.34937100  0.25514400  0.72523600  1
  C  653  1  0.34931600  0.29320200  0.72524100  1
  C  654  1  0.34927500  0.36813700  0.72518600  1
  C  655  1  0.32214800  0.23602600  0.70083000  1
  C  656  1  0.29714900  0.25557400  0.67586800  1
  C  657  1  0.32190500  0.35002700  0.70086400  1
  C  658  1  0.32229500  0.31225300  0.70062600  1
  C  660  1  0.29730200  0.29266400  0.67571200  1
  C  663  1  0.29492000  0.37115900  0.67803900  1
  C  664  1  0.24794500  0.37015600  0.68009600  1
  C  666  1  0.31440600  0.39518900  0.65386300  1
  C  670  1  0.34926200  0.25573600  0.22423800  1
  C  671  1  0.32205500  0.23663900  0.24866800  1
  C  672  1  0.29713600  0.25620300  0.27366900  1
  C  673  1  0.34924300  0.29379600  0.22423800  1
  C  674  1  0.32231100  0.31287700  0.24889500  1
  C  675  1  0.32195400  0.35065900  0.24864700  1
  C  676  1  0.34928500  0.36873100  0.22426500  1
  C  677  1  0.29737100  0.29329500  0.27385400  1
  C  680  1  0.29501600  0.37184300  0.27148000  1
  C  681  1  0.24802800  0.37069700  0.26962400  1
  C  683  1  0.31452600  0.39612600  0.29540000  1
  C  686  1  0.34958600  0.18014300  0.72515200  1
  C  687  1  0.32151300  0.19823900  0.70131400  1
  C  688  1  0.20930600  0.11416300  0.61499200  1
  C  689  1  0.16220600  0.11707800  0.61756400  1
  C  690  1  0.23689900  0.13523300  0.63681500  1
  C  691  1  0.30998700  0.15287300  0.65482800  1
  C  692  1  0.29278900  0.17730700  0.67964900  1
  C  693  1  0.24597900  0.17971300  0.68302800  1
  C  695  1  0.21753100  0.15908600  0.66154100  1
  C  696  1  0.17073400  0.16163500  0.66403400  1
  C  697  1  0.14329500  0.14088100  0.64215000  1
  C  702  1  0.10073200  0.02439400  0.49332300  1
  C  703  1  0.12764500  0.04917500  0.51231700  1
  C  704  1  0.12809200  0.04890700  0.54997400  1
  C  705  1  0.10075600  0.02445500  0.56800400  1
  C  706  1  0.15246600  0.07427700  0.49278300  1
  C  707  1  0.10068200  0.02436700  0.45539000  1
  C  708  1  0.12753900  0.04913000  0.43633300  1
  C  709  1  0.15240300  0.07426100  0.45580300  1
  C  712  1  0.15504400  0.07180000  0.57111000  1
  C  713  1  0.20203100  0.06979700  0.57015000  1
  C  715  1  0.13552000  0.09571100  0.59539200  1
  C  720  1  0.12789800  0.04880400  0.39867800  1
  C  721  1  0.10053600  0.02432800  0.38070700  1
  C  722  1  0.32137000  0.19885500  0.24816300  1
  C  723  1  0.34938700  0.18073700  0.22429600  1
  C  724  1  0.15482800  0.07167200  0.37751000  1
  C  725  1  0.20181100  0.06967500  0.37847500  1
  C  727  1  0.20907300  0.11432200  0.33392200  1
  C  728  1  0.16197600  0.11720500  0.33131000  1
  C  729  1  0.13528700  0.09568400  0.35333700  1
  C  731  1  0.23667500  0.13557300  0.31229200  1
  C  732  1  0.30978000  0.15337200  0.29450600  1
  C  733  1  0.29261000  0.17792800  0.26979300  1
  C  734  1  0.24580600  0.18035000  0.26637700  1
  C  737  1  0.21733100  0.15957100  0.28769800  1
  C  738  1  0.17053100  0.16208100  0.28514900  1
  C  739  1  0.14307900  0.14115400  0.30686100  1
  C  745  1  0.87708900  0.81233000  0.69927300  1
  C  746  1  0.87793800  0.85011500  0.69984600  1
  C  748  1  0.99136584  0.93419000  0.61457100  1
  C  749  1  0.03842200  0.93091000  0.61719400  1
  C  750  1  0.96346980  0.91309500  0.63611700  1
  C  751  1  0.89012400  0.89579300  0.65377600  1
  C  752  1  0.90696280  0.87098800  0.67838300  1
  C  753  1  0.95373280  0.86821100  0.68184100  1
  C  755  1  0.98248780  0.88884900  0.66062300  1
  C  756  1  0.02925100  0.88593600  0.66318000  1
  C  757  1  0.05699000  0.90671500  0.64156100  1
  C  763  1  0.04891900  0.97372500  0.49291000  1
  C  764  1  0.04887200  0.97370200  0.45594000  1
  C  767  1  0.04618100  0.97650800  0.57113900  1
  C  768  1  0.99922684  0.97888500  0.57014200  1
  C  770  1  0.06540800  0.95228200  0.59524900  1
  C  773  1  0.07381600  0.99884400  0.51236700  1
  C  774  1  0.07373000  0.99878600  0.43641200  1
  C  775  1  0.87776200  0.84954700  0.24931100  1
  C  776  1  0.87692600  0.81176300  0.24988700  1
  C  778  1  0.04600700  0.97632400  0.37770000  1
  C  779  1  0.99904684  0.97865500  0.37873700  1
  C  781  1  0.99117584  0.93384500  0.33441400  1
  C  782  1  0.03823600  0.93059700  0.33176500  1
  C  783  1  0.06522500  0.95205100  0.35363300  1
  C  785  1  0.96327680  0.91267500  0.31293700  1
  C  786  1  0.88993400  0.89529700  0.29533100  1
  C  787  1  0.90677280  0.87044100  0.27077400  1
  C  788  1  0.95354680  0.86767700  0.26731800  1
  C  791  1  0.98229780  0.88838100  0.28847800  1
  C  792  1  0.02906200  0.88549300  0.28590300  1
  C  793  1  0.05680000  0.90635300  0.30744600  1
  C  798  1  0.07321000  0.99908200  0.39876500  1
  C  799  1  0.90198980  0.79273200  0.67428200  1
  C  800  1  0.87671600  0.73609600  0.69905800  1
  C  801  1  0.87706900  0.69832000  0.69935200  1
  C  802  1  0.90173980  0.75563800  0.67412900  1
  C  804  1  0.90415480  0.67709300  0.67667500  1
  C  805  1  0.95112080  0.67808300  0.67887200  1
  C  807  1  0.95870680  0.63331600  0.63448000  1
  C  808  1  0.91162980  0.63070400  0.63137400  1
  C  809  1  0.88478400  0.65282900  0.65267100  1
  C  811  1  0.98646480  0.61157500  0.61347400  1
  C  814  1  0.89291200  0.60614800  0.60744300  1
  C  816  1  0.90178980  0.79219100  0.27491200  1
  C  817  1  0.87701200  0.69776600  0.24982600  1
  C  818  1  0.87660600  0.73553900  0.25011400  1
  C  819  1  0.90154980  0.75510100  0.27508400  1
  C  821  1  0.90410780  0.67660800  0.27254600  1
  C  822  1  0.95107480  0.67772500  0.27042500  1
  C  824  1  0.95872280  0.63330100  0.31513200  1
  C  825  1  0.91165280  0.63052800  0.31814000  1
  C  826  1  0.88476400  0.65242900  0.29664800  1
  C  828  1  0.98652880  0.61180300  0.33633900  1
  C  831  1  0.89298500  0.60605500  0.34218200  1
  C  833  1  0.09974000  0.52351200  0.56864300  1
  C  834  1  0.07248700  0.54831700  0.43699900  1
  C  835  1  0.04721000  0.57310400  0.45657200  1
  C  836  1  0.07162400  0.54741200  0.55063500  1
  C  837  1  0.07236700  0.54803600  0.51298000  1
  C  839  1  0.04715300  0.57296800  0.49353400  1
  C  842  1  0.05970200  0.59374700  0.59606900  1
  C  843  1  0.04270600  0.56894700  0.57152500  1
  C  844  1  0.99592284  0.56545900  0.56895000  1
  C  845  1  0.96729780  0.58686800  0.58950400  1
  C  846  1  0.92052080  0.58432400  0.58675700  1
  C  850  1  0.07184800  0.54796200  0.39933800  1
  C  851  1  0.05980500  0.59432200  0.35395500  1
  C  852  1  0.04287600  0.56953000  0.37853600  1
  C  853  1  0.99610584  0.56591500  0.38106900  1
  C  854  1  0.96742080  0.58715200  0.36039300  1
  C  855  1  0.92064780  0.58444900  0.36304800  1
  C  859  1  0.07338000  0.00001300  0.55001200  1
  C  860  1  0.65287200  0.97413300  0.95611300  1
  C  861  1  0.65282900  0.97416100  0.99309200  1
  C  863  1  0.65546400  0.97662100  0.87778300  1
  C  864  1  0.70244700  0.97862200  0.87874600  1
  C  866  1  0.70972600  0.93424800  0.83391300  1
  C  867  1  0.66262600  0.93133300  0.83133800  1
  C  868  1  0.63593600  0.95270500  0.85350700  1
  C  870  1  0.73731800  0.91317600  0.81209100  1
  C  873  1  0.64371500  0.90753000  0.80675600  1
  C  875  1  0.84999600  0.86827000  0.72374200  1
  C  876  1  0.82194100  0.85017500  0.74759400  1
  C  877  1  0.82256700  0.81238700  0.74807300  1
  C  879  1  0.81040800  0.89553400  0.79408100  1
  C  880  1  0.79320900  0.87111100  0.76925100  1
  C  881  1  0.74639900  0.86870200  0.76587100  1
  C  882  1  0.71795400  0.88932800  0.78736300  1
  C  883  1  0.67115400  0.88677900  0.78486800  1
  C  888  1  0.82246700  0.81177300  0.20104300  1
  C  889  1  0.82177800  0.84955800  0.20155000  1
  C  890  1  0.84979300  0.86767500  0.22541700  1
  C  894  1  0.65524100  0.97674600  0.07220600  1
  C  895  1  0.70222400  0.97873400  0.07123300  1
  C  897  1  0.70948600  0.93409200  0.11578900  1
  C  898  1  0.66238600  0.93120900  0.11840100  1
  C  899  1  0.63570000  0.95273100  0.09637400  1
  C  901  1  0.73708500  0.91284000  0.13741900  1
  C  902  1  0.81019200  0.89504300  0.15521000  1
  C  903  1  0.79301900  0.87048500  0.17991800  1
  C  904  1  0.74621600  0.86806300  0.18333400  1
  C  907  1  0.71774100  0.88884300  0.16201300  1
  C  908  1  0.67094100  0.88633100  0.16455900  1
  C  909  1  0.64348800  0.90726200  0.14285200  1
  C  913  1  0.74096600  0.63402700  0.81373500  1
  C  914  1  0.78805200  0.63136100  0.81667300  1
  C  915  1  0.71328700  0.61257000  0.83508900  1
  C  917  1  0.80686400  0.60703100  0.84078600  1
  C  919  1  0.84978000  0.79326800  0.72365800  1
  C  920  1  0.84972300  0.75520900  0.72365500  1
  C  921  1  0.84968600  0.68027400  0.72371900  1
  C  922  1  0.79756300  0.79284100  0.77303400  1
  C  923  1  0.82232100  0.69838600  0.74804200  1
  C  924  1  0.82270700  0.73616000  0.74827500  1
  C  926  1  0.79772300  0.75575200  0.77319500  1
  C  928  1  0.79533400  0.67725500  0.77086600  1
  C  929  1  0.74835800  0.67826300  0.76881000  1
  C  931  1  0.81481500  0.65322200  0.79504100  1
  C  935  1  0.84967000  0.79267700  0.22547500  1
  C  936  1  0.84965000  0.75461800  0.22547500  1
  C  937  1  0.82271400  0.73553600  0.20081800  1
  C  938  1  0.82236100  0.69775500  0.20106700  1
  C  939  1  0.84969600  0.67968200  0.22544600  1
  C  940  1  0.79755300  0.79221000  0.17603600  1
  C  941  1  0.79776600  0.75511700  0.17586700  1
  C  943  1  0.79541800  0.67656800  0.17824100  1
  C  944  1  0.74843100  0.67771700  0.18009500  1
  C  946  1  0.74111600  0.63322900  0.13540700  1
  C  947  1  0.78820600  0.63037500  0.13270700  1
  C  948  1  0.81492500  0.65229400  0.15431400  1
  C  950  1  0.71346700  0.61176900  0.11402800  1
  C  953  1  0.80704700  0.60582400  0.10883000  1
  C  955  1  0.60039300  0.52445900  0.99293800  1
  C  956  1  0.65322500  0.57357000  0.99259400  1
  C  957  1  0.60032300  0.52460700  0.95500400  1
  C  958  1  0.62778800  0.54899100  0.93603700  1
  C  959  1  0.62832800  0.54868000  0.89837000  1
  C  960  1  0.65312500  0.57373500  0.95562400  1
  C  962  1  0.64012000  0.59500400  0.85290100  1
  C  963  1  0.65719000  0.57031300  0.87752700  1
  C  964  1  0.70398300  0.56681400  0.87999400  1
  C  965  1  0.73254100  0.58804600  0.85920200  1
  C  966  1  0.77932800  0.58545400  0.86178800  1
  C  971  1  0.62793800  0.54868000  0.01285000  1
  C  972  1  0.62859100  0.54809200  0.05050700  1
  C  973  1  0.60043900  0.52421200  0.06850500  1
  C  975  1  0.64032700  0.59443900  0.09592200  1
  C  976  1  0.65743600  0.56961800  0.07145000  1
  C  977  1  0.70421900  0.56591700  0.06920300  1
  C  978  1  0.73275100  0.58707500  0.09010000  1
  C  979  1  0.77954100  0.58425800  0.08778700  1
  C  984  1  0.60114500  0.02484000  0.95557200  1
  C  985  1  0.62805500  0.00005600  0.93657900  1
  C  986  1  0.62850500  0.00032400  0.89892200  1
  C  987  1  0.60116900  0.02477900  0.88089100  1
  C  988  1  0.60109900  0.02486900  0.99350500  1
  C  990  1  0.62795500  0.00010300  0.01337800  1
  C  991  1  0.62831500  0.00043000  0.05103600  1
  C  992  1  0.60094900  0.02490600  0.06900700  1
  N  13  1  0.93092700  0.43455200  0.83315700  1
  N  31  1  0.93097900  0.43416200  0.11556900  1
  N  48  1  0.87562000  0.39169800  0.79087100  1
  N  61  1  0.87560200  0.39181500  0.15823500  1
  N  72  1  0.87327900  0.09045100  0.85755900  1
  N  79  1  0.81770600  0.13288000  0.81505000  1
  N  99  1  0.87308800  0.09075000  0.09209600  1
  N  109  1  0.81750000  0.13332000  0.13448700  1
  N  119  1  0.56750700  0.43350400  0.61592200  1
  N  147  1  0.56769000  0.43411700  0.33379800  1
  N  169  1  0.62262200  0.39123400  0.65889700  1
  N  186  1  0.62273800  0.39183100  0.29079400  1
  N  198  1  0.68178500  0.13314500  0.63461800  1
  N  218  1  0.62678600  0.09071600  0.59156400  1
  N  230  1  0.62656200  0.09075000  0.35721500  1
  N  240  1  0.68155600  0.13350100  0.31455000  1
  N  258  1  0.31810600  0.91553300  0.63383800  1
  N  273  1  0.37368100  0.95796500  0.59133400  1
  N  284  1  0.37349800  0.95766600  0.35761200  1
  N  294  1  0.31791000  0.91509300  0.31522100  1
  N  310  1  0.37602600  0.65672100  0.65802200  1
  N  317  1  0.43133100  0.61385900  0.61574000  1
  N  327  1  0.37601300  0.65659900  0.29147900  1
  N  334  1  0.43138400  0.61424600  0.33414700  1
  N  369  1  0.12720500  0.95769600  0.85734100  1
  N  376  1  0.18220700  0.91526400  0.81429000  1
  N  400  1  0.12697500  0.95766300  0.09249300  1
  N  410  1  0.18196700  0.91491400  0.13516400  1
  N  420  1  0.06791000  0.61491500  0.83297200  1
  N  434  1  0.12303100  0.65718200  0.79000100  1
  N  449  1  0.12313800  0.65658800  0.15892200  1
  N  456  1  0.06809000  0.61430700  0.11591800  1
  N  509  1  0.53118300  0.43455200  0.83315700  1
  N  527  1  0.53123500  0.43416200  0.11556900  1
  N  544  1  0.47587600  0.39169800  0.79087100  1
  N  557  1  0.47585800  0.39181500  0.15823500  1
  N  568  1  0.47353500  0.09045100  0.85755900  1
  N  575  1  0.41796200  0.13288000  0.81505000  1
  N  595  1  0.47334400  0.09075000  0.09209600  1
  N  605  1  0.41775600  0.13332000  0.13448700  1
  N  615  1  0.16776300  0.43350400  0.61592200  1
  N  643  1  0.16794600  0.43411700  0.33379800  1
  N  665  1  0.22287800  0.39123400  0.65889700  1
  N  682  1  0.22299400  0.39183100  0.29079400  1
  N  694  1  0.28204100  0.13314500  0.63461800  1
  N  714  1  0.22704200  0.09071600  0.59156400  1
  N  726  1  0.22681800  0.09075000  0.35721500  1
  N  736  1  0.28181200  0.13350100  0.31455000  1
  N  754  1  0.91836180  0.91553300  0.63383800  1
  N  769  1  0.97393680  0.95796500  0.59133400  1
  N  780  1  0.97375380  0.95766600  0.35761200  1
  N  790  1  0.91816580  0.91509300  0.31522100  1
  N  806  1  0.97628180  0.65672100  0.65802200  1
  N  813  1  0.03158700  0.61385900  0.61574000  1
  N  823  1  0.97626880  0.65659900  0.29147900  1
  N  830  1  0.03164000  0.61424600  0.33414700  1
  N  865  1  0.72746100  0.95769600  0.85734100  1
  N  872  1  0.78246300  0.91526400  0.81429000  1
  N  896  1  0.72723100  0.95766300  0.09249300  1
  N  906  1  0.78222300  0.91491400  0.13516400  1
  N  916  1  0.66816600  0.61491500  0.83297200  1
  N  930  1  0.72328700  0.65718200  0.79000100  1
  N  945  1  0.72339400  0.65658800  0.15892200  1
  N  952  1  0.66834600  0.61430700  0.11591800  1
