# generated using pymatgen
data_H9C14(NO)2
_symmetry_space_group_name_H-M   'P 1'
_cell_length_a   34.76670000
_cell_length_b   34.76670000
_cell_length_c   42.82580000
_cell_angle_alpha   90.00000000
_cell_angle_beta   90.00000000
_cell_angle_gamma   90.00000000
_symmetry_Int_Tables_number   1
_chemical_formula_structural   H9C14(NO)2
_chemical_formula_sum   'H288 C448 N64 O64'
_cell_volume   51764.54782096
_cell_formula_units_Z   32
loop_
 _symmetry_equiv_pos_site_id
 _symmetry_equiv_pos_as_xyz
  1  'x, y, z'
loop_
 _atom_site_type_symbol
 _atom_site_label
 _atom_site_symmetry_multiplicity
 _atom_site_fract_x
 _atom_site_fract_y
 _atom_site_fract_z
 _atom_site_occupancy
  H  7  1  0.11097800  0.24466400  0.08484300  1
  H  16  1  0.02089300  0.32954800  0.07019500  1
  H  17  1  0.04163800  0.15667800  0.01749700  1
  H  18  1  0.09301500  0.41451700  0.14067800  1
  H  19  1  0.99230300  0.26651900  0.07821100  1
  H  20  1  0.09452300  0.27594800  0.13480100  1
  H  25  1  0.99232000  0.39620100  0.10416700  1
  H  26  1  0.95055900  0.21220500  0.06325500  1
  H  27  1  0.11203800  0.15590000  0.07585200  1
  H  28  1  0.12737200  0.31541100  0.17345100  1
  H  35  1  0.89228400  0.76217100  0.08725600  1
  H  44  1  0.97244200  0.67169400  0.06861500  1
  H  45  1  0.96311400  0.84463500  0.01656400  1
  H  46  1  0.89483000  0.59385000  0.13727600  1
  H  47  1  0.00900500  0.73332500  0.07729400  1
  H  48  1  0.91247300  0.73176900  0.13845500  1
  H  53  1  0.96684400  0.60028100  0.06856200  1
  H  54  1  0.05331400  0.78256200  0.05979400  1
  H  55  1  0.89639500  0.85118200  0.07603200  1
  H  56  1  0.87863300  0.69543500  0.17834600  1
  H  63  1  0.24505800  0.89212600  0.91960900  1
  H  72  1  0.33044800  0.98159400  0.93393200  1
  H  73  1  0.15767300  0.96235400  0.98687200  1
  H  74  1  0.41466700  0.90914500  0.86300000  1
  H  75  1  0.26746300  0.01074100  0.92558600  1
  H  76  1  0.27612400  0.90855300  0.86929100  1
  H  81  1  0.39696300  0.01017000  0.90092800  1
  H  82  1  0.21311100  0.05272000  0.93990500  1
  H  83  1  0.15596900  0.89203100  0.92890200  1
  H  84  1  0.31524400  0.87569700  0.83036800  1
  H  91  1  0.76273000  0.11083400  0.91552900  1
  H  100  1  0.67269200  0.03018500  0.93456700  1
  H  101  1  0.84643000  0.04048400  0.98559200  1
  H  102  1  0.59413100  0.10803500  0.86666600  1
  H  103  1  0.73441200  0.99400800  0.92590100  1
  H  104  1  0.73205600  0.09068200  0.86462500  1
  H  109  1  0.60129300  0.03533000  0.93495700  1
  H  110  1  0.78482800  0.94994300  0.94295900  1
  H  111  1  0.85197300  0.10709800  0.92633600  1
  H  112  1  0.69536000  0.12463900  0.82505300  1
  H  119  1  0.60885000  0.25958900  0.58653400  1
  H  128  1  0.51966400  0.17537600  0.56946200  1
  H  129  1  0.54102600  0.34781300  0.51836900  1
  H  130  1  0.58856900  0.08864500  0.63978900  1
  H  131  1  0.49018400  0.23833300  0.57857800  1
  H  132  1  0.59037800  0.22791500  0.63664400  1
  H  137  1  0.49007800  0.10756400  0.60147600  1
  H  138  1  0.44898400  0.29323700  0.56343300  1
  H  139  1  0.61112500  0.34788400  0.57737800  1
  H  140  1  0.62312800  0.18787100  0.67519300  1
  H  147  1  0.39441200  0.74096400  0.58853500  1
  H  156  1  0.47466700  0.83033400  0.56806800  1
  H  157  1  0.46465400  0.65610500  0.51938500  1
  H  158  1  0.39647100  0.90978400  0.63469900  1
  H  159  1  0.51138000  0.76879300  0.57819300  1
  H  160  1  0.41550700  0.77246600  0.63956700  1
  H  165  1  0.46986600  0.90169300  0.56657200  1
  H  166  1  0.55518900  0.71654700  0.56282900  1
  H  167  1  0.39863100  0.65078600  0.57769600  1
  H  168  1  0.37858900  0.81144300  0.67786200  1
  H  175  1  0.74506600  0.60964300  0.41818700  1
  H  184  1  0.82927300  0.52040300  0.43450600  1
  H  185  1  0.65721500  0.54111800  0.48628600  1
  H  186  1  0.91559100  0.58895100  0.36364700  1
  H  187  1  0.76616700  0.49086300  0.42515000  1
  H  188  1  0.77630000  0.59124100  0.36764300  1
  H  193  1  0.89693500  0.49098400  0.40112000  1
  H  194  1  0.71072600  0.44978900  0.43946800  1
  H  195  1  0.65689300  0.61220300  0.42755000  1
  H  196  1  0.81589500  0.62359900  0.32863800  1
  H  203  1  0.26330700  0.39526600  0.41425700  1
  H  212  1  0.17422100  0.47573400  0.43521900  1
  H  213  1  0.34812900  0.46427700  0.48419800  1
  H  214  1  0.09451000  0.39765000  0.36878000  1
  H  215  1  0.23580500  0.51216800  0.42561500  1
  H  216  1  0.23179400  0.41664300  0.36351900  1
  H  221  1  0.10283500  0.47091900  0.43686500  1
  H  222  1  0.28715500  0.55576400  0.44248800  1
  H  223  1  0.35280000  0.39819700  0.42495600  1
  H  224  1  0.19268900  0.37972800  0.32535500  1
  H  230  1  0.01340700  0.54964900  0.05792900  1
  H  231  1  0.03834000  0.48587000  0.05076800  1
  H  233  1  0.00009700  0.45542700  0.14088300  1
  H  235  1  0.99003900  0.53385500  0.16835600  1
  H  243  1  0.55077100  0.98848300  0.94540600  1
  H  244  1  0.48711200  0.96324000  0.95260700  1
  H  246  1  0.45588400  0.00285500  0.86306300  1
  H  248  1  0.53411700  0.01357600  0.83532500  1
  H  256  1  0.51422500  0.95467700  0.55541000  1
  H  257  1  0.53799400  0.01897200  0.54834900  1
  H  259  1  0.49900600  0.04850500  0.63846000  1
  H  261  1  0.49052100  0.96999700  0.66591100  1
  H  269  1  0.04954100  0.51473400  0.44833200  1
  H  270  1  0.98516900  0.53826800  0.45545200  1
  H  272  1  0.95606100  0.50047000  0.36491300  1
  H  274  1  0.03472700  0.49245100  0.33757900  1
  H  282  1  0.16374100  0.33618400  0.22020300  1
  H  283  1  0.18569400  0.35778800  0.27043000  1
  H  285  1  0.08172500  0.41832800  0.28316800  1
  H  287  1  0.03246200  0.37921000  0.23619400  1
  H  295  1  0.84088200  0.66998300  0.22428100  1
  H  296  1  0.82052900  0.64638500  0.27431800  1
  H  298  1  0.92531900  0.58635700  0.28373100  1
  H  300  1  0.97297400  0.62746800  0.23662400  1
  H  308  1  0.33574100  0.83960800  0.78334000  1
  H  309  1  0.35702800  0.81801500  0.73292000  1
  H  311  1  0.41753400  0.92205100  0.72044400  1
  H  313  1  0.37874400  0.97099500  0.76779400  1
  H  321  1  0.66988500  0.16247300  0.77928000  1
  H  322  1  0.64608300  0.18304200  0.72937500  1
  H  324  1  0.58543300  0.07859100  0.72007900  1
  H  326  1  0.62660800  0.03064500  0.76697900  1
  H  334  1  0.10656100  0.09634700  0.04570400  1
  H  335  1  0.13461000  0.04092700  0.02165000  1
  H  337  1  0.20197900  0.11286300  0.96414700  1
  H  339  1  0.19770500  0.18563400  0.99977500  1
  H  347  1  0.90075200  0.90838600  0.04308200  1
  H  348  1  0.87255600  0.96321700  0.01830200  1
  H  350  1  0.79808200  0.89036900  0.96776400  1
  H  352  1  0.80288600  0.81977300  0.00611900  1
  H  360  1  0.09737000  0.89952700  0.96103900  1
  H  361  1  0.04188300  0.87137900  0.98493400  1
  H  363  1  0.11354500  0.79835300  0.03793900  1
  H  365  1  0.18538500  0.80302100  0.00117800  1
  H  373  1  0.90971200  0.10415000  0.95783800  1
  H  374  1  0.96443100  0.13218300  0.98287600  1
  H  376  1  0.89109400  0.20233200  0.03690100  1
  H  378  1  0.81990200  0.19805500  0.99929200  1
  H  386  1  0.60700600  0.40776100  0.54738500  1
  H  387  1  0.63501500  0.46282800  0.52276900  1
  H  389  1  0.70026500  0.39004300  0.46436900  1
  H  391  1  0.69602800  0.31735000  0.50021200  1
  H  399  1  0.40171800  0.59441600  0.54437900  1
  H  400  1  0.37344900  0.54034200  0.51861900  1
  H  402  1  0.30000200  0.61475200  0.46859600  1
  H  404  1  0.30486600  0.68449400  0.50804200  1
  H  412  1  0.59727500  0.60664600  0.45845700  1
  H  413  1  0.54223100  0.63478000  0.48301000  1
  H  415  1  0.61505400  0.70257400  0.53944500  1
  H  417  1  0.68739300  0.69802700  0.50300200  1
  H  425  1  0.41034400  0.39991700  0.45659400  1
  H  426  1  0.46453100  0.37181800  0.48232300  1
  H  428  1  0.38999900  0.30301100  0.53641000  1
  H  430  1  0.31924800  0.30736600  0.49819500  1
  H  439  1  0.11097800  0.35971700  0.52850100  1
  H  448  1  0.02089300  0.44460100  0.51385300  1
  H  449  1  0.04163800  0.27173100  0.46115500  1
  H  450  1  0.09301500  0.52957000  0.58433600  1
  H  451  1  0.99230300  0.38157200  0.52186900  1
  H  452  1  0.09452300  0.39100100  0.57845900  1
  H  457  1  0.99232000  0.51125400  0.54782500  1
  H  458  1  0.95055900  0.32725800  0.50691300  1
  H  459  1  0.11203800  0.27095300  0.51951000  1
  H  460  1  0.12737200  0.43046400  0.61710900  1
  H  467  1  0.89228400  0.87722400  0.53091400  1
  H  476  1  0.97244200  0.78674700  0.51227300  1
  H  477  1  0.96311400  0.95968800  0.46022200  1
  H  478  1  0.89483000  0.70890300  0.58093400  1
  H  479  1  0.00900500  0.84837800  0.52095200  1
  H  480  1  0.91247300  0.84682200  0.58211300  1
  H  485  1  0.96684400  0.71533400  0.51222000  1
  H  486  1  0.05331400  0.89761500  0.50345200  1
  H  487  1  0.89639500  0.96623500  0.51969000  1
  H  488  1  0.87863300  0.81048800  0.62200400  1
  H  495  1  0.24505800  0.00717862  0.36326700  1
  H  504  1  0.33044800  0.09664660  0.37759000  1
  H  505  1  0.15767300  0.07740660  0.43053000  1
  H  506  1  0.41466700  0.02419760  0.30665800  1
  H  507  1  0.26746300  0.12579400  0.36924400  1
  H  508  1  0.27612400  0.02360560  0.31294900  1
  H  513  1  0.39696300  0.12522300  0.34458600  1
  H  514  1  0.21311100  0.16777300  0.38356300  1
  H  515  1  0.15596900  0.00708362  0.37256000  1
  H  516  1  0.31524400  0.99075000  0.27402600  1
  H  523  1  0.76273000  0.22588700  0.35918700  1
  H  532  1  0.67269200  0.14523800  0.37822500  1
  H  533  1  0.84643000  0.15553700  0.42925000  1
  H  534  1  0.59413100  0.22308800  0.31032400  1
  H  535  1  0.73441200  0.10906100  0.36955900  1
  H  536  1  0.73205600  0.20573500  0.30828300  1
  H  541  1  0.60129300  0.15038300  0.37861500  1
  H  542  1  0.78482800  0.06499560  0.38661700  1
  H  543  1  0.85197300  0.22215100  0.36999400  1
  H  544  1  0.69536000  0.23969200  0.26871100  1
  H  551  1  0.60885000  0.37464200  0.03019180  1
  H  560  1  0.51966400  0.29042900  0.01311980  1
  H  561  1  0.54102600  0.46286600  0.96202700  1
  H  562  1  0.58856900  0.20369800  0.08344680  1
  H  563  1  0.49018400  0.35338600  0.02223580  1
  H  564  1  0.59037800  0.34296800  0.08030180  1
  H  569  1  0.49007800  0.22261700  0.04513380  1
  H  570  1  0.44898400  0.40829000  0.00709080  1
  H  571  1  0.61112500  0.46293700  0.02103580  1
  H  572  1  0.62312800  0.30292400  0.11885100  1
  H  579  1  0.39441200  0.85601700  0.03219280  1
  H  588  1  0.47466700  0.94538700  0.01172580  1
  H  589  1  0.46465400  0.77115800  0.96304300  1
  H  590  1  0.39647100  0.02483660  0.07835680  1
  H  591  1  0.51138000  0.88384600  0.02185080  1
  H  592  1  0.41550700  0.88751900  0.08322480  1
  H  597  1  0.46986600  0.01674560  0.01022980  1
  H  598  1  0.55518900  0.83160000  0.00648680  1
  H  599  1  0.39863100  0.76583900  0.02135380  1
  H  600  1  0.37858900  0.92649600  0.12152000  1
  H  607  1  0.74506600  0.72469600  0.86184500  1
  H  616  1  0.82927300  0.63545600  0.87816400  1
  H  617  1  0.65721500  0.65617100  0.92994400  1
  H  618  1  0.91559100  0.70400400  0.80730500  1
  H  619  1  0.76616700  0.60591600  0.86880800  1
  H  620  1  0.77630000  0.70629400  0.81130100  1
  H  625  1  0.89693500  0.60603700  0.84477800  1
  H  626  1  0.71072600  0.56484200  0.88312600  1
  H  627  1  0.65689300  0.72725600  0.87120800  1
  H  628  1  0.81589500  0.73865200  0.77229600  1
  H  635  1  0.26330700  0.51031900  0.85791500  1
  H  644  1  0.17422100  0.59078700  0.87887700  1
  H  645  1  0.34812900  0.57933000  0.92785600  1
  H  646  1  0.09451000  0.51270300  0.81243800  1
  H  647  1  0.23580500  0.62722100  0.86927300  1
  H  648  1  0.23179400  0.53169600  0.80717700  1
  H  653  1  0.10283500  0.58597200  0.88052300  1
  H  654  1  0.28715500  0.67081700  0.88614600  1
  H  655  1  0.35280000  0.51325000  0.86861400  1
  H  656  1  0.19268900  0.49478100  0.76901300  1
  H  662  1  0.01340700  0.66470200  0.50158700  1
  H  663  1  0.03834000  0.60092300  0.49442600  1
  H  665  1  0.00009700  0.57048000  0.58454100  1
  H  667  1  0.99003900  0.64890800  0.61201400  1
  H  675  1  0.55077100  0.10353600  0.38906400  1
  H  676  1  0.48711200  0.07829260  0.39626500  1
  H  678  1  0.45588400  0.11790800  0.30672100  1
  H  680  1  0.53411700  0.12862900  0.27898300  1
  H  688  1  0.51422500  0.06972960  0.99906800  1
  H  689  1  0.53799400  0.13402500  0.99200700  1
  H  691  1  0.49900600  0.16355800  0.08211780  1
  H  693  1  0.49052100  0.08504960  0.10956900  1
  H  701  1  0.04954100  0.62978700  0.89199000  1
  H  702  1  0.98516900  0.65332100  0.89911000  1
  H  704  1  0.95606100  0.61552300  0.80857100  1
  H  706  1  0.03472700  0.60750400  0.78123700  1
  H  714  1  0.16374100  0.45123700  0.66386100  1
  H  715  1  0.18569400  0.47284100  0.71408800  1
  H  717  1  0.08172500  0.53338100  0.72682600  1
  H  719  1  0.03246200  0.49426300  0.67985200  1
  H  727  1  0.84088200  0.78503600  0.66793900  1
  H  728  1  0.82052900  0.76143800  0.71797600  1
  H  730  1  0.92531900  0.70141000  0.72738900  1
  H  732  1  0.97297400  0.74252100  0.68028200  1
  H  740  1  0.33574100  0.95466100  0.22699800  1
  H  741  1  0.35702800  0.93306800  0.17657800  1
  H  743  1  0.41753400  0.03710360  0.16410200  1
  H  745  1  0.37874400  0.08604760  0.21145200  1
  H  753  1  0.66988500  0.27752600  0.22293800  1
  H  754  1  0.64608300  0.29809500  0.17303300  1
  H  756  1  0.58543300  0.19364400  0.16373700  1
  H  758  1  0.62660800  0.14569800  0.21063700  1
  H  766  1  0.10656100  0.21140000  0.48936200  1
  H  767  1  0.13461000  0.15598000  0.46530800  1
  H  769  1  0.20197900  0.22791600  0.40780500  1
  H  771  1  0.19770500  0.30068700  0.44343300  1
  H  779  1  0.90075200  0.02343860  0.48674000  1
  H  780  1  0.87255600  0.07826960  0.46196000  1
  H  782  1  0.79808200  0.00542162  0.41142200  1
  H  784  1  0.80288600  0.93482600  0.44977700  1
  H  792  1  0.09737000  0.01457960  0.40469700  1
  H  793  1  0.04188300  0.98643200  0.42859200  1
  H  795  1  0.11354500  0.91340600  0.48159700  1
  H  797  1  0.18538500  0.91807400  0.44483600  1
  H  805  1  0.90971200  0.21920300  0.40149600  1
  H  806  1  0.96443100  0.24723600  0.42653400  1
  H  808  1  0.89109400  0.31738500  0.48055900  1
  H  810  1  0.81990200  0.31310800  0.44295000  1
  H  818  1  0.60700600  0.52281400  0.99104300  1
  H  819  1  0.63501500  0.57788100  0.96642700  1
  H  821  1  0.70026500  0.50509600  0.90802700  1
  H  823  1  0.69602800  0.43240300  0.94387000  1
  H  831  1  0.40171800  0.70946900  0.98803700  1
  H  832  1  0.37344900  0.65539500  0.96227700  1
  H  834  1  0.30000200  0.72980500  0.91225400  1
  H  836  1  0.30486600  0.79954700  0.95170000  1
  H  844  1  0.59727500  0.72169900  0.90211500  1
  H  845  1  0.54223100  0.74983300  0.92666800  1
  H  847  1  0.61505400  0.81762700  0.98310300  1
  H  849  1  0.68739300  0.81308000  0.94666000  1
  H  857  1  0.41034400  0.51497000  0.90025200  1
  H  858  1  0.46453100  0.48687100  0.92598100  1
  H  860  1  0.38999900  0.41806400  0.98006800  1
  H  862  1  0.31924800  0.42241900  0.94185300  1
  C  1  1  0.05250100  0.26146100  0.08358000  1
  C  2  1  0.08395600  0.23661400  0.07782500  1
  C  3  1  0.07902100  0.20092100  0.06261000  1
  C  4  1  0.04176600  0.18959000  0.05271100  1
  C  5  1  0.00957100  0.21392300  0.05797600  1
  C  6  1  0.01559300  0.24939800  0.07348900  1
  C  9  1  0.05765000  0.29733900  0.09962800  1
  C  10  1  0.08122900  0.30020100  0.12653800  1
  C  11  1  0.08551400  0.33512800  0.14326200  1
  C  12  1  0.06607200  0.36839500  0.13208400  1
  C  13  1  0.04204900  0.36627300  0.10538700  1
  C  14  1  0.03816900  0.33086800  0.08957400  1
  C  21  1  0.97217700  0.20357400  0.04976800  1
  C  22  1  0.11032900  0.17666000  0.05997800  1
  C  23  1  0.10842800  0.33642200  0.17000500  1
  C  24  1  0.01907600  0.39662400  0.09594100  1
  C  29  1  0.94965500  0.74222100  0.08442700  1
  C  30  1  0.91935600  0.76861700  0.07931100  1
  C  31  1  0.92553500  0.80360800  0.06337500  1
  C  32  1  0.96293000  0.81273700  0.05237300  1
  C  33  1  0.99410000  0.78687600  0.05717000  1
  C  34  1  0.98667900  0.75188300  0.07308700  1
  C  37  1  0.94305100  0.70697500  0.10088600  1
  C  38  1  0.92206900  0.70632200  0.12922600  1
  C  39  1  0.91470500  0.67164000  0.14551100  1
  C  40  1  0.92805400  0.63656300  0.13233800  1
  C  41  1  0.95049200  0.63637900  0.10459100  1
  C  42  1  0.95730600  0.67170300  0.08916600  1
  C  49  1  0.03189600  0.79518900  0.04833300  1
  C  50  1  0.89537600  0.82936200  0.06105500  1
  C  51  1  0.89367400  0.67194700  0.17329000  1
  C  52  1  0.96519000  0.60269700  0.09166300  1
  C  57  1  0.26214200  0.95052100  0.92062000  1
  C  58  1  0.23717300  0.91922400  0.92656500  1
  C  59  1  0.20155700  0.92444200  0.94184300  1
  C  60  1  0.19042400  0.96182500  0.95157300  1
  C  61  1  0.21484900  0.99387600  0.94603000  1
  C  62  1  0.25026800  0.98756800  0.93051100  1
  C  65  1  0.29792000  0.94513700  0.90449600  1
  C  66  1  0.30050600  0.92164300  0.87752200  1
  C  67  1  0.33533500  0.91722800  0.86068600  1
  C  68  1  0.36878400  0.93637000  0.87185000  1
  C  69  1  0.36692600  0.96029500  0.89861700  1
  C  70  1  0.33160200  0.96437100  0.91451300  1
  C  77  1  0.20454300  0.03143300  0.95375800  1
  C  78  1  0.17706200  0.89332300  0.94451900  1
  C  79  1  0.33636500  0.89451600  0.83382400  1
  C  80  1  0.39748900  0.98294600  0.90807800  1
  C  85  1  0.74304700  0.05337800  0.91851800  1
  C  86  1  0.76936500  0.08379900  0.92345200  1
  C  87  1  0.80455100  0.07780100  0.93914600  1
  C  88  1  0.81393700  0.04046100  0.95012300  1
  C  89  1  0.78807800  0.00922800  0.94564400  1
  C  90  1  0.75292700  0.01642900  0.92990100  1
  C  93  1  0.70764500  0.05985200  0.90222900  1
  C  94  1  0.70671000  0.08096400  0.87395600  1
  C  95  1  0.67188400  0.08835100  0.85788600  1
  C  96  1  0.63694800  0.07485500  0.87119900  1
  C  97  1  0.63703700  0.05222800  0.89884800  1
  C  98  1  0.67250500  0.04542300  0.91406700  1
  C  105  1  0.79657800  0.97159600  0.95474200  1
  C  106  1  0.83016500  0.10810300  0.94128700  1
  C  107  1  0.67193000  0.10955000  0.83019100  1
  C  108  1  0.60349400  0.03731800  0.91185900  1
  C  113  1  0.55030200  0.24315900  0.58463100  1
  C  114  1  0.58198200  0.26784600  0.57929300  1
  C  115  1  0.57745700  0.30354900  0.56399800  1
  C  116  1  0.54043100  0.31507100  0.55368900  1
  C  117  1  0.50802300  0.29093900  0.55866500  1
  C  118  1  0.51360600  0.25541300  0.57419600  1
  C  121  1  0.55503400  0.20703600  0.60034800  1
  C  122  1  0.57755000  0.20370600  0.62780800  1
  C  123  1  0.58142400  0.16847100  0.64422100  1
  C  124  1  0.56242600  0.13541000  0.63203200  1
  C  125  1  0.53957900  0.13799300  0.60467500  1
  C  126  1  0.53615100  0.17368500  0.58927500  1
  C  133  1  0.47083800  0.30145800  0.55003000  1
  C  134  1  0.60898500  0.32747400  0.56119900  1
  C  135  1  0.60332400  0.16770200  0.67165800  1
  C  136  1  0.51721900  0.10776100  0.59411100  1
  C  141  1  0.45193800  0.76042000  0.58547100  1
  C  142  1  0.42145200  0.73412700  0.58072900  1
  C  143  1  0.42742300  0.69870600  0.56536900  1
  C  144  1  0.46477800  0.68907000  0.55456500  1
  C  145  1  0.49603200  0.71490200  0.55893400  1
  C  146  1  0.48891600  0.75028400  0.57431900  1
  C  149  1  0.44549500  0.79614700  0.60123800  1
  C  150  1  0.42483200  0.79767100  0.62971100  1
  C  151  1  0.41741400  0.83283700  0.64526700  1
  C  152  1  0.43048400  0.86749100  0.63110700  1
  C  153  1  0.45283000  0.86681800  0.60330200  1
  C  154  1  0.45965200  0.83100500  0.58867000  1
  C  161  1  0.53364500  0.70605200  0.55017000  1
  C  162  1  0.39708100  0.67313800  0.56331200  1
  C  163  1  0.39725100  0.83243700  0.67351600  1
  C  164  1  0.46754500  0.90012500  0.58967900  1
  C  169  1  0.76144400  0.55106700  0.41967000  1
  C  170  1  0.73683100  0.58271800  0.42531800  1
  C  171  1  0.70122500  0.57806700  0.44073900  1
  C  172  1  0.68970600  0.54094300  0.45082400  1
  C  173  1  0.71372600  0.50856100  0.44543700  1
  C  174  1  0.74917900  0.51427100  0.42983600  1
  C  177  1  0.79744700  0.55586800  0.40381000  1
  C  178  1  0.80056700  0.57837200  0.37633100  1
  C  179  1  0.83565600  0.58213100  0.35968700  1
  C  180  1  0.86877300  0.56303300  0.37168000  1
  C  181  1  0.86639500  0.54023500  0.39907700  1
  C  182  1  0.83084600  0.53691900  0.41470300  1
  C  189  1  0.70303200  0.47124400  0.45348800  1
  C  190  1  0.67727700  0.60952300  0.44370200  1
  C  191  1  0.83620800  0.60395100  0.33219700  1
  C  192  1  0.89662800  0.51770200  0.40943000  1
  C  197  1  0.24406600  0.45283800  0.41770400  1
  C  198  1  0.27024300  0.42220300  0.42223300  1
  C  199  1  0.30562000  0.42784600  0.43772600  1
  C  200  1  0.31533900  0.46500500  0.44890200  1
  C  201  1  0.28962200  0.49642300  0.44480400  1
  C  202  1  0.25427600  0.48961800  0.42925000  1
  C  205  1  0.20829300  0.44662500  0.40192600  1
  C  206  1  0.20663900  0.42600200  0.37343400  1
  C  207  1  0.17141000  0.41859300  0.35796900  1
  C  208  1  0.13682000  0.43166900  0.37222400  1
  C  209  1  0.13761500  0.45400600  0.40003200  1
  C  210  1  0.17348500  0.46078800  0.41458600  1
  C  217  1  0.29837700  0.53383200  0.45427300  1
  C  218  1  0.33092900  0.39730200  0.43987500  1
  C  219  1  0.17168600  0.39835800  0.32975000  1
  C  220  1  0.10435600  0.46869300  0.41375000  1
  C  225  1  0.02064400  0.46460500  0.09485700  1
  C  226  1  0.02495900  0.49265800  0.07133500  1
  C  227  1  0.01014400  0.53001000  0.07549600  1
  C  228  1  0.99137300  0.54027500  0.10360000  1
  C  229  1  0.98857200  0.51266800  0.12777000  1
  C  232  1  0.00271400  0.47509800  0.12323600  1
  C  238  1  0.46547400  0.98160600  0.90882100  1
  C  239  1  0.49371100  0.97698000  0.93215700  1
  C  240  1  0.53098800  0.99198600  0.92797700  1
  C  241  1  0.54098900  0.01122000  0.90002000  1
  C  242  1  0.51319800  0.01433200  0.87601600  1
  C  245  1  0.47569600  0.00002500  0.88058500  1
  C  251  1  0.51987400  0.03980100  0.59246300  1
  C  252  1  0.52477500  0.01186800  0.56891400  1
  C  253  1  0.51065800  0.97422200  0.57300700  1
  C  254  1  0.49215200  0.96356500  0.60111600  1
  C  255  1  0.48872000  0.99108000  0.62529800  1
  C  258  1  0.50208700  0.02892100  0.62080300  1
  C  264  1  0.96454600  0.52073400  0.41111900  1
  C  265  1  0.99238000  0.52535600  0.43478400  1
  C  266  1  0.03007900  0.51140600  0.43064400  1
  C  267  1  0.04087400  0.49330800  0.40239500  1
  C  268  1  0.01346100  0.49015800  0.37811300  1
  C  271  1  0.97557700  0.50338100  0.38264100  1
  C  277  1  0.13562100  0.38997400  0.28146100  1
  C  278  1  0.15900600  0.36586700  0.26286000  1
  C  279  1  0.14606400  0.35316000  0.23338700  1
  C  280  1  0.10930500  0.36386500  0.22213000  1
  C  281  1  0.08579400  0.38762100  0.24095700  1
  C  284  1  0.09912100  0.40079400  0.27010800  1
  C  290  1  0.87125600  0.61444700  0.28379800  1
  C  291  1  0.84716400  0.63899600  0.26618500  1
  C  292  1  0.85914600  0.65284600  0.23678900  1
  C  293  1  0.89564400  0.64285900  0.22457300  1
  C  294  1  0.91986800  0.61864100  0.24239300  1
  C  297  1  0.90749400  0.60434500  0.27148600  1
  C  303  1  0.38916200  0.86815800  0.72199900  1
  C  304  1  0.36516200  0.84464400  0.74058600  1
  C  305  1  0.35263900  0.85737500  0.77017300  1
  C  306  1  0.36342500  0.89405100  0.78156100  1
  C  307  1  0.38707400  0.91769100  0.76275500  1
  C  310  1  0.40006900  0.90456900  0.73348700  1
  C  316  1  0.61380000  0.13251000  0.71996500  1
  C  317  1  0.63858800  0.15643600  0.73750600  1
  C  318  1  0.65257000  0.14432300  0.76682500  1
  C  319  1  0.64244500  0.10786800  0.77904600  1
  C  320  1  0.61799600  0.08380000  0.76129300  1
  C  323  1  0.60358300  0.09630200  0.73227500  1
  C  329  1  0.17102100  0.07158300  0.99068700  1
  C  330  1  0.14349000  0.06767000  0.01467300  1
  C  331  1  0.12716400  0.10025800  0.02896000  1
  C  332  1  0.13841200  0.13774400  0.01990700  1
  C  333  1  0.16600500  0.14183100  0.99585700  1
  C  336  1  0.18206800  0.10906300  0.98142600  1
  C  342  1  0.83246600  0.93204900  0.99086700  1
  C  343  1  0.86216100  0.93642700  0.01302900  1
  C  344  1  0.87859300  0.90419500  0.02775200  1
  C  345  1  0.86536200  0.86663300  0.02096200  1
  C  346  1  0.83563300  0.86208600  0.99870100  1
  C  349  1  0.81944800  0.89448800  0.98380600  1
  C  355  1  0.07237400  0.83192500  0.01345800  1
  C  356  1  0.06855300  0.86125800  0.99090900  1
  C  357  1  0.10116000  0.87766700  0.97672400  1
  C  358  1  0.13856000  0.86482100  0.98450200  1
  C  359  1  0.14257500  0.83555200  0.00721400  1
  C  362  1  0.10978900  0.81934700  0.02152400  1
  C  368  1  0.93298700  0.16993300  0.01221600  1
  C  369  1  0.93753500  0.14162900  0.98891300  1
  C  370  1  0.90535200  0.12531500  0.97403400  1
  C  371  1  0.86766000  0.13738800  0.98173500  1
  C  372  1  0.86295800  0.16577300  0.00510300  1
  C  375  1  0.89531000  0.18179500  0.02017400  1
  C  381  1  0.67034800  0.43172300  0.49128500  1
  C  382  1  0.64349500  0.43597700  0.51573800  1
  C  383  1  0.62719500  0.40359000  0.53035300  1
  C  384  1  0.63781400  0.36596500  0.52117600  1
  C  385  1  0.66480000  0.36154100  0.49671400  1
  C  388  1  0.68082400  0.39410400  0.48195700  1
  C  394  1  0.33388800  0.57237200  0.49133200  1
  C  395  1  0.36328100  0.56731000  0.51366000  1
  C  396  1  0.37976600  0.59910500  0.52894900  1
  C  397  1  0.36683900  0.63689700  0.52262100  1
  C  398  1  0.33739500  0.64212000  0.50020700  1
  C  401  1  0.32117800  0.61015800  0.48472100  1
  C  407  1  0.57335900  0.67155600  0.51337900  1
  C  408  1  0.56907600  0.64383700  0.48957600  1
  C  409  1  0.60143400  0.62743900  0.47500500  1
  C  410  1  0.63905400  0.63874600  0.48363300  1
  C  411  1  0.64351200  0.66655700  0.50747200  1
  C  414  1  0.61097200  0.68270500  0.52217800  1
  C  420  1  0.43243900  0.33473700  0.51176100  1
  C  421  1  0.43749000  0.36264000  0.48821000  1
  C  422  1  0.40561500  0.37899200  0.47292300  1
  C  423  1  0.36773700  0.36736600  0.48047400  1
  C  424  1  0.36253600  0.33932200  0.50404600  1
  C  427  1  0.39458100  0.32326300  0.51951800  1
  C  433  1  0.05250100  0.37651400  0.52723800  1
  C  434  1  0.08395600  0.35166700  0.52148300  1
  C  435  1  0.07902100  0.31597400  0.50626800  1
  C  436  1  0.04176600  0.30464300  0.49636900  1
  C  437  1  0.00957100  0.32897600  0.50163400  1
  C  438  1  0.01559300  0.36445100  0.51714700  1
  C  441  1  0.05765000  0.41239200  0.54328600  1
  C  442  1  0.08122900  0.41525400  0.57019600  1
  C  443  1  0.08551400  0.45018100  0.58692000  1
  C  444  1  0.06607200  0.48344800  0.57574200  1
  C  445  1  0.04204900  0.48132600  0.54904500  1
  C  446  1  0.03816900  0.44592100  0.53323200  1
  C  453  1  0.97217700  0.31862700  0.49342600  1
  C  454  1  0.11032900  0.29171300  0.50363600  1
  C  455  1  0.10842800  0.45147500  0.61366300  1
  C  456  1  0.01907600  0.51167700  0.53959900  1
  C  461  1  0.94965500  0.85727400  0.52808500  1
  C  462  1  0.91935600  0.88367000  0.52296900  1
  C  463  1  0.92553500  0.91866100  0.50703300  1
  C  464  1  0.96293000  0.92779000  0.49603100  1
  C  465  1  0.99410000  0.90192900  0.50082800  1
  C  466  1  0.98667900  0.86693600  0.51674500  1
  C  469  1  0.94305100  0.82202800  0.54454400  1
  C  470  1  0.92206900  0.82137500  0.57288400  1
  C  471  1  0.91470500  0.78669300  0.58916900  1
  C  472  1  0.92805400  0.75161600  0.57599600  1
  C  473  1  0.95049200  0.75143200  0.54824900  1
  C  474  1  0.95730600  0.78675600  0.53282400  1
  C  481  1  0.03189600  0.91024200  0.49199100  1
  C  482  1  0.89537600  0.94441500  0.50471300  1
  C  483  1  0.89367400  0.78700000  0.61694800  1
  C  484  1  0.96519000  0.71775000  0.53532100  1
  C  489  1  0.26214200  0.06557360  0.36427800  1
  C  490  1  0.23717300  0.03427660  0.37022300  1
  C  491  1  0.20155700  0.03949460  0.38550100  1
  C  492  1  0.19042400  0.07687760  0.39523100  1
  C  493  1  0.21484900  0.10892900  0.38968800  1
  C  494  1  0.25026800  0.10262100  0.37416900  1
  C  497  1  0.29792000  0.06018960  0.34815400  1
  C  498  1  0.30050600  0.03669560  0.32118000  1
  C  499  1  0.33533500  0.03228060  0.30434400  1
  C  500  1  0.36878400  0.05142260  0.31550800  1
  C  501  1  0.36692600  0.07534760  0.34227500  1
  C  502  1  0.33160200  0.07942360  0.35817100  1
  C  509  1  0.20454300  0.14648600  0.39741600  1
  C  510  1  0.17706200  0.00837562  0.38817700  1
  C  511  1  0.33636500  0.00956862  0.27748200  1
  C  512  1  0.39748900  0.09799860  0.35173600  1
  C  517  1  0.74304700  0.16843100  0.36217600  1
  C  518  1  0.76936500  0.19885200  0.36711000  1
  C  519  1  0.80455100  0.19285400  0.38280400  1
  C  520  1  0.81393700  0.15551400  0.39378100  1
  C  521  1  0.78807800  0.12428100  0.38930200  1
  C  522  1  0.75292700  0.13148200  0.37355900  1
  C  525  1  0.70764500  0.17490500  0.34588700  1
  C  526  1  0.70671000  0.19601700  0.31761400  1
  C  527  1  0.67188400  0.20340400  0.30154400  1
  C  528  1  0.63694800  0.18990800  0.31485700  1
  C  529  1  0.63703700  0.16728100  0.34250600  1
  C  530  1  0.67250500  0.16047600  0.35772500  1
  C  537  1  0.79657800  0.08664860  0.39840000  1
  C  538  1  0.83016500  0.22315600  0.38494500  1
  C  539  1  0.67193000  0.22460300  0.27384900  1
  C  540  1  0.60349400  0.15237100  0.35551700  1
  C  545  1  0.55030200  0.35821200  0.02828880  1
  C  546  1  0.58198200  0.38289900  0.02295080  1
  C  547  1  0.57745700  0.41860200  0.00765580  1
  C  548  1  0.54043100  0.43012400  0.99734700  1
  C  549  1  0.50802300  0.40599200  0.00232280  1
  C  550  1  0.51360600  0.37046600  0.01785380  1
  C  553  1  0.55503400  0.32208900  0.04400580  1
  C  554  1  0.57755000  0.31875900  0.07146580  1
  C  555  1  0.58142400  0.28352400  0.08787880  1
  C  556  1  0.56242600  0.25046300  0.07568980  1
  C  557  1  0.53957900  0.25304600  0.04833280  1
  C  558  1  0.53615100  0.28873800  0.03293280  1
  C  565  1  0.47083800  0.41651100  0.99368800  1
  C  566  1  0.60898500  0.44252700  0.00485680  1
  C  567  1  0.60332400  0.28275500  0.11531600  1
  C  568  1  0.51721900  0.22281400  0.03776880  1
  C  573  1  0.45193800  0.87547300  0.02912880  1
  C  574  1  0.42145200  0.84918000  0.02438680  1
  C  575  1  0.42742300  0.81375900  0.00902680  1
  C  576  1  0.46477800  0.80412300  0.99822300  1
  C  577  1  0.49603200  0.82995500  0.00259180  1
  C  578  1  0.48891600  0.86533700  0.01797680  1
  C  581  1  0.44549500  0.91120000  0.04489580  1
  C  582  1  0.42483200  0.91272400  0.07336880  1
  C  583  1  0.41741400  0.94789000  0.08892480  1
  C  584  1  0.43048400  0.98254400  0.07476480  1
  C  585  1  0.45283000  0.98187100  0.04695980  1
  C  586  1  0.45965200  0.94605800  0.03232780  1
  C  593  1  0.53364500  0.82110500  0.99382800  1
  C  594  1  0.39708100  0.78819100  0.00696980  1
  C  595  1  0.39725100  0.94749000  0.11717400  1
  C  596  1  0.46754500  0.01517760  0.03333680  1
  C  601  1  0.76144400  0.66612000  0.86332800  1
  C  602  1  0.73683100  0.69777100  0.86897600  1
  C  603  1  0.70122500  0.69312000  0.88439700  1
  C  604  1  0.68970600  0.65599600  0.89448200  1
  C  605  1  0.71372600  0.62361400  0.88909500  1
  C  606  1  0.74917900  0.62932400  0.87349400  1
  C  609  1  0.79744700  0.67092100  0.84746800  1
  C  610  1  0.80056700  0.69342500  0.81998900  1
  C  611  1  0.83565600  0.69718400  0.80334500  1
  C  612  1  0.86877300  0.67808600  0.81533800  1
  C  613  1  0.86639500  0.65528800  0.84273500  1
  C  614  1  0.83084600  0.65197200  0.85836100  1
  C  621  1  0.70303200  0.58629700  0.89714600  1
  C  622  1  0.67727700  0.72457600  0.88736000  1
  C  623  1  0.83620800  0.71900400  0.77585500  1
  C  624  1  0.89662800  0.63275500  0.85308800  1
  C  629  1  0.24406600  0.56789100  0.86136200  1
  C  630  1  0.27024300  0.53725600  0.86589100  1
  C  631  1  0.30562000  0.54289900  0.88138400  1
  C  632  1  0.31533900  0.58005800  0.89256000  1
  C  633  1  0.28962200  0.61147600  0.88846200  1
  C  634  1  0.25427600  0.60467100  0.87290800  1
  C  637  1  0.20829300  0.56167800  0.84558400  1
  C  638  1  0.20663900  0.54105500  0.81709200  1
  C  639  1  0.17141000  0.53364600  0.80162700  1
  C  640  1  0.13682000  0.54672200  0.81588200  1
  C  641  1  0.13761500  0.56905900  0.84369000  1
  C  642  1  0.17348500  0.57584100  0.85824400  1
  C  649  1  0.29837700  0.64888500  0.89793100  1
  C  650  1  0.33092900  0.51235500  0.88353300  1
  C  651  1  0.17168600  0.51341100  0.77340800  1
  C  652  1  0.10435600  0.58374600  0.85740800  1
  C  657  1  0.02064400  0.57965800  0.53851500  1
  C  658  1  0.02495900  0.60771100  0.51499300  1
  C  659  1  0.01014400  0.64506300  0.51915400  1
  C  660  1  0.99137300  0.65532800  0.54725800  1
  C  661  1  0.98857200  0.62772100  0.57142800  1
  C  664  1  0.00271400  0.59015100  0.56689400  1
  C  670  1  0.46547400  0.09665860  0.35247900  1
  C  671  1  0.49371100  0.09203260  0.37581500  1
  C  672  1  0.53098800  0.10703900  0.37163500  1
  C  673  1  0.54098900  0.12627300  0.34367800  1
  C  674  1  0.51319800  0.12938500  0.31967400  1
  C  677  1  0.47569600  0.11507800  0.32424300  1
  C  683  1  0.51987400  0.15485400  0.03612080  1
  C  684  1  0.52477500  0.12692100  0.01257180  1
  C  685  1  0.51065800  0.08927460  0.01666480  1
  C  686  1  0.49215200  0.07861760  0.04477380  1
  C  687  1  0.48872000  0.10613300  0.06895580  1
  C  690  1  0.50208700  0.14397400  0.06446080  1
  C  696  1  0.96454600  0.63578700  0.85477700  1
  C  697  1  0.99238000  0.64040900  0.87844200  1
  C  698  1  0.03007900  0.62645900  0.87430200  1
  C  699  1  0.04087400  0.60836100  0.84605300  1
  C  700  1  0.01346100  0.60521100  0.82177100  1
  C  703  1  0.97557700  0.61843400  0.82629900  1
  C  709  1  0.13562100  0.50502700  0.72511900  1
  C  710  1  0.15900600  0.48092000  0.70651800  1
  C  711  1  0.14606400  0.46821300  0.67704500  1
  C  712  1  0.10930500  0.47891800  0.66578800  1
  C  713  1  0.08579400  0.50267400  0.68461500  1
  C  716  1  0.09912100  0.51584700  0.71376600  1
  C  722  1  0.87125600  0.72950000  0.72745600  1
  C  723  1  0.84716400  0.75404900  0.70984300  1
  C  724  1  0.85914600  0.76789900  0.68044700  1
  C  725  1  0.89564400  0.75791200  0.66823100  1
  C  726  1  0.91986800  0.73369400  0.68605100  1
  C  729  1  0.90749400  0.71939800  0.71514400  1
  C  735  1  0.38916200  0.98321100  0.16565700  1
  C  736  1  0.36516200  0.95969700  0.18424400  1
  C  737  1  0.35263900  0.97242800  0.21383100  1
  C  738  1  0.36342500  0.00910362  0.22521900  1
  C  739  1  0.38707400  0.03274360  0.20641300  1
  C  742  1  0.40006900  0.01962160  0.17714500  1
  C  748  1  0.61380000  0.24756300  0.16362300  1
  C  749  1  0.63858800  0.27148900  0.18116400  1
  C  750  1  0.65257000  0.25937600  0.21048300  1
  C  751  1  0.64244500  0.22292100  0.22270400  1
  C  752  1  0.61799600  0.19885300  0.20495100  1
  C  755  1  0.60358300  0.21135500  0.17593300  1
  C  761  1  0.17102100  0.18663600  0.43434500  1
  C  762  1  0.14349000  0.18272300  0.45833100  1
  C  763  1  0.12716400  0.21531100  0.47261800  1
  C  764  1  0.13841200  0.25279700  0.46356500  1
  C  765  1  0.16600500  0.25688400  0.43951500  1
  C  768  1  0.18206800  0.22411600  0.42508400  1
  C  774  1  0.83246600  0.04710160  0.43452500  1
  C  775  1  0.86216100  0.05147960  0.45668700  1
  C  776  1  0.87859300  0.01924760  0.47141000  1
  C  777  1  0.86536200  0.98168600  0.46462000  1
  C  778  1  0.83563300  0.97713900  0.44235900  1
  C  781  1  0.81944800  0.00954062  0.42746400  1
  C  787  1  0.07237400  0.94697800  0.45711600  1
  C  788  1  0.06855300  0.97631100  0.43456700  1
  C  789  1  0.10116000  0.99272000  0.42038200  1
  C  790  1  0.13856000  0.97987400  0.42816000  1
  C  791  1  0.14257500  0.95060500  0.45087200  1
  C  794  1  0.10978900  0.93440000  0.46518200  1
  C  800  1  0.93298700  0.28498600  0.45587400  1
  C  801  1  0.93753500  0.25668200  0.43257100  1
  C  802  1  0.90535200  0.24036800  0.41769200  1
  C  803  1  0.86766000  0.25244100  0.42539300  1
  C  804  1  0.86295800  0.28082600  0.44876100  1
  C  807  1  0.89531000  0.29684800  0.46383200  1
  C  813  1  0.67034800  0.54677600  0.93494300  1
  C  814  1  0.64349500  0.55103000  0.95939600  1
  C  815  1  0.62719500  0.51864300  0.97401100  1
  C  816  1  0.63781400  0.48101800  0.96483400  1
  C  817  1  0.66480000  0.47659400  0.94037200  1
  C  820  1  0.68082400  0.50915700  0.92561500  1
  C  826  1  0.33388800  0.68742500  0.93499000  1
  C  827  1  0.36328100  0.68236300  0.95731800  1
  C  828  1  0.37976600  0.71415800  0.97260700  1
  C  829  1  0.36683900  0.75195000  0.96627900  1
  C  830  1  0.33739500  0.75717300  0.94386500  1
  C  833  1  0.32117800  0.72521100  0.92837900  1
  C  839  1  0.57335900  0.78660900  0.95703700  1
  C  840  1  0.56907600  0.75889000  0.93323400  1
  C  841  1  0.60143400  0.74249200  0.91866300  1
  C  842  1  0.63905400  0.75379900  0.92729100  1
  C  843  1  0.64351200  0.78161000  0.95113000  1
  C  846  1  0.61097200  0.79775800  0.96583600  1
  C  852  1  0.43243900  0.44979000  0.95541900  1
  C  853  1  0.43749000  0.47769300  0.93186800  1
  C  854  1  0.40561500  0.49404500  0.91658100  1
  C  855  1  0.36773700  0.48241900  0.92413200  1
  C  856  1  0.36253600  0.45437500  0.94770400  1
  C  859  1  0.39458100  0.43831600  0.96317600  1
  N  236  1  0.03492300  0.42963200  0.09002700  1
  N  237  1  0.97664100  0.57485700  0.10908400  1
  N  249  1  0.43059900  0.96708600  0.91361700  1
  N  250  1  0.57550400  0.02607800  0.89450700  1
  N  262  1  0.53349900  0.07506700  0.58775500  1
  N  263  1  0.47794000  0.92881900  0.60660100  1
  N  275  1  0.92920200  0.53412000  0.41590300  1
  N  276  1  0.07563100  0.47914200  0.39688700  1
  N  288  1  0.14504600  0.40348900  0.30937600  1
  N  289  1  0.09531000  0.35403100  0.19439400  1
  N  301  1  0.86233300  0.59929400  0.31130500  1
  N  302  1  0.90846900  0.65347600  0.19663100  1
  N  314  1  0.40254300  0.85891300  0.69400200  1
  N  315  1  0.35380100  0.90782500  0.80941800  1
  N  327  1  0.59855800  0.14155500  0.69251400  1
  N  328  1  0.65323400  0.09491100  0.80690300  1
  N  340  1  0.18454500  0.03924200  0.97821100  1
  N  341  1  0.12275400  0.16938600  0.03201000  1
  N  353  1  0.81924900  0.96405400  0.97766200  1
  N  354  1  0.88099800  0.83524700  0.03352500  1
  N  366  1  0.04001800  0.81871700  0.02612000  1
  N  367  1  0.17019200  0.88057200  0.97246200  1
  N  379  1  0.96496300  0.18350300  0.02523600  1
  N  380  1  0.83630000  0.12192700  0.96898800  1
  N  392  1  0.68386400  0.46387500  0.47846600  1
  N  393  1  0.62202300  0.33447800  0.53341400  1
  N  405  1  0.32058000  0.54074700  0.47762100  1
  N  406  1  0.38250400  0.66792300  0.53574400  1
  N  418  1  0.54121300  0.68467500  0.52644600  1
  N  419  1  0.67048600  0.62275700  0.47147500  1
  N  431  1  0.46413900  0.32114600  0.52520200  1
  N  432  1  0.33661800  0.38291800  0.46742100  1
  N  668  1  0.03492300  0.54468500  0.53368500  1
  N  669  1  0.97664100  0.68991000  0.55274200  1
  N  681  1  0.43059900  0.08213860  0.35727500  1
  N  682  1  0.57550400  0.14113100  0.33816500  1
  N  694  1  0.53349900  0.19012000  0.03141280  1
  N  695  1  0.47794000  0.04387160  0.05025880  1
  N  707  1  0.92920200  0.64917300  0.85956100  1
  N  708  1  0.07563100  0.59419500  0.84054500  1
  N  720  1  0.14504600  0.51854200  0.75303400  1
  N  721  1  0.09531000  0.46908400  0.63805200  1
  N  733  1  0.86233300  0.71434700  0.75496300  1
  N  734  1  0.90846900  0.76852900  0.64028900  1
  N  746  1  0.40254300  0.97396600  0.13766000  1
  N  747  1  0.35380100  0.02287760  0.25307600  1
  N  759  1  0.59855800  0.25660800  0.13617200  1
  N  760  1  0.65323400  0.20996400  0.25056100  1
  N  772  1  0.18454500  0.15429500  0.42186900  1
  N  773  1  0.12275400  0.28443900  0.47566800  1
  N  785  1  0.81924900  0.07910660  0.42132000  1
  N  786  1  0.88099800  0.95030000  0.47718300  1
  N  798  1  0.04001800  0.93377000  0.46977800  1
  N  799  1  0.17019200  0.99562500  0.41612000  1
  N  811  1  0.96496300  0.29855600  0.46889400  1
  N  812  1  0.83630000  0.23698000  0.41264600  1
  N  824  1  0.68386400  0.57892800  0.92212400  1
  N  825  1  0.62202300  0.44953100  0.97707200  1
  N  837  1  0.32058000  0.65580000  0.92127900  1
  N  838  1  0.38250400  0.78297600  0.97940200  1
  N  850  1  0.54121300  0.79972800  0.97010400  1
  N  851  1  0.67048600  0.73781000  0.91513300  1
  N  863  1  0.46413900  0.43619900  0.96886000  1
  N  864  1  0.33661800  0.49797100  0.91107900  1
  O  8  1  0.03678400  0.15390600  0.04001000  1
  O  15  1  0.06891400  0.40252300  0.14772000  1
  O  36  1  0.96891500  0.84782200  0.03889400  1
  O  43  1  0.91911500  0.60259400  0.14665800  1
  O  64  1  0.15482200  0.96707700  0.96434600  1
  O  71  1  0.40282200  0.93338100  0.85610000  1
  O  92  1  0.84924000  0.03455100  0.96325300  1
  O  99  1  0.60284700  0.08384400  0.85710700  1
  O  120  1  0.53584300  0.35072000  0.54082100  1
  O  127  1  0.56461200  0.10079800  0.64698100  1
  O  148  1  0.47075200  0.65361900  0.54172200  1
  O  155  1  0.42106900  0.90209000  0.64415300  1
  O  176  1  0.65414300  0.53622000  0.46380400  1
  O  183  1  0.90325200  0.56506100  0.35651600  1
  O  204  1  0.35076900  0.47058500  0.46191000  1
  O  211  1  0.10216000  0.42224300  0.35929000  1
  O  234  1  0.97071600  0.52098400  0.15524900  1
  O  247  1  0.52126000  0.03264400  0.84868400  1
  O  260  1  0.47095900  0.98241100  0.65274900  1
  O  273  1  0.02223900  0.47273400  0.35054300  1
  O  286  1  0.05069100  0.39982800  0.23091700  1
  O  299  1  0.95466600  0.60693100  0.23132400  1
  O  312  1  0.39936800  0.95270700  0.77291900  1
  O  325  1  0.60618300  0.04903800  0.77236600  1
  O  338  1  0.17701300  0.17724000  0.98568500  1
  O  351  1  0.82266600  0.82651500  0.99065000  1
  O  364  1  0.17796000  0.82304600  0.01622800  1
  O  377  1  0.82730300  0.17763700  0.01399700  1
  O  390  1  0.67517200  0.32600400  0.48639100  1
  O  403  1  0.32472400  0.67794200  0.49258400  1
  O  416  1  0.67907200  0.67753600  0.51730900  1
  O  429  1  0.32668900  0.32788000  0.51279600  1
  O  440  1  0.03678400  0.26895900  0.48366800  1
  O  447  1  0.06891400  0.51757600  0.59137800  1
  O  468  1  0.96891500  0.96287500  0.48255200  1
  O  475  1  0.91911500  0.71764700  0.59031600  1
  O  496  1  0.15482200  0.08212960  0.40800400  1
  O  503  1  0.40282200  0.04843360  0.29975800  1
  O  524  1  0.84924000  0.14960400  0.40691100  1
  O  531  1  0.60284700  0.19889700  0.30076500  1
  O  552  1  0.53584300  0.46577300  0.98447900  1
  O  559  1  0.56461200  0.21585100  0.09063880  1
  O  580  1  0.47075200  0.76867200  0.98538000  1
  O  587  1  0.42106900  0.01714260  0.08781080  1
  O  608  1  0.65414300  0.65127300  0.90746200  1
  O  615  1  0.90325200  0.68011400  0.80017400  1
  O  636  1  0.35076900  0.58563800  0.90556800  1
  O  643  1  0.10216000  0.53729600  0.80294800  1
  O  666  1  0.97071600  0.63603700  0.59890700  1
  O  679  1  0.52126000  0.14769700  0.29234200  1
  O  692  1  0.47095900  0.09746360  0.09640680  1
  O  705  1  0.02223900  0.58778700  0.79420100  1
  O  718  1  0.05069100  0.51488100  0.67457500  1
  O  731  1  0.95466600  0.72198400  0.67498200  1
  O  744  1  0.39936800  0.06775960  0.21657700  1
  O  757  1  0.60618300  0.16409100  0.21602400  1
  O  770  1  0.17701300  0.29229300  0.42934300  1
  O  783  1  0.82266600  0.94156800  0.43430800  1
  O  796  1  0.17796000  0.93809900  0.45988600  1
  O  809  1  0.82730300  0.29269000  0.45765500  1
  O  822  1  0.67517200  0.44105700  0.93004900  1
  O  835  1  0.32472400  0.79299500  0.93624200  1
  O  848  1  0.67907200  0.79258900  0.96096700  1
  O  861  1  0.32668900  0.44293300  0.95645400  1
