# generated using pymatgen
data_H3C6N
_symmetry_space_group_name_H-M   'P 1'
_cell_length_a   36.69340000
_cell_length_b   38.08450000
_cell_length_c   65.85040000
_cell_angle_alpha   90.00000000
_cell_angle_beta   89.99830000
_cell_angle_gamma   90.00000000
_symmetry_Int_Tables_number   1
_chemical_formula_structural   H3C6N
_chemical_formula_sum   'H432 C864 N144'
_cell_volume   92022.62776237
_cell_formula_units_Z   144
loop_
 _symmetry_equiv_pos_site_id
 _symmetry_equiv_pos_as_xyz
  1  'x, y, z'
loop_
 _atom_site_type_symbol
 _atom_site_label
 _atom_site_symmetry_multiplicity
 _atom_site_fract_x
 _atom_site_fract_y
 _atom_site_fract_z
 _atom_site_occupancy
  H  90  1  0.16945400  0.17076800  0.33261800  1
  H  91  1  0.12372500  0.20667900  0.34793800  1
  H  92  1  0.14457300  0.21426800  0.27520000  1
  H  93  1  0.95010000  0.33339300  0.43768800  1
  H  94  1  0.04947400  0.27734700  0.44051700  1
  H  95  1  0.04612900  0.27730200  0.47664500  1
  H  96  1  0.94728200  0.33418900  0.47386100  1
  H  97  1  0.88346700  0.40185700  0.33585300  1
  H  98  1  0.87843100  0.36864900  0.26472300  1
  H  99  1  0.92416400  0.34371700  0.28603000  1
  H  100  1  0.83754300  0.42679800  0.31441400  1
  H  107  1  0.04967400  0.27087700  0.37600100  1
  H  108  1  0.95700100  0.33652500  0.37405200  1
  H  109  1  0.00648900  0.30287400  0.31952100  1
  H  110  1  0.09878000  0.25031800  0.29049500  1
  H  121  1  0.18836000  0.14224600  0.29961200  1
  H  122  1  0.96801100  0.30714600  0.50565700  1
  H  123  1  0.81617700  0.39525800  0.26456500  1
  H  141  1  0.84346300  0.17015200  0.68181600  1
  H  142  1  0.88898300  0.20581900  0.66611900  1
  H  143  1  0.86934700  0.21429700  0.73894100  1
  H  144  1  0.06380400  0.33320400  0.57624300  1
  H  145  1  0.96451400  0.27704700  0.57324200  1
  H  146  1  0.96803000  0.27705200  0.53712100  1
  H  147  1  0.06678900  0.33404700  0.54007000  1
  H  148  1  0.13133500  0.39708300  0.67846600  1
  H  149  1  0.13769100  0.36258300  0.74941400  1
  H  150  1  0.09036300  0.33939300  0.72841000  1
  H  151  1  0.17869500  0.42014000  0.69948800  1
  H  158  1  0.96336200  0.27072400  0.63752900  1
  H  159  1  0.05664500  0.33554100  0.64010600  1
  H  160  1  0.00631200  0.30141700  0.69430200  1
  H  161  1  0.91494100  0.25011500  0.72326800  1
  H  172  1  0.82528200  0.14205600  0.71509800  1
  H  173  1  0.04616700  0.30692800  0.50821300  1
  H  174  1  0.20030500  0.39045000  0.74993000  1
  H  192  1  0.83892800  0.93405700  0.68173300  1
  H  193  1  0.88778900  0.90155300  0.66704700  1
  H  194  1  0.86543400  0.89328500  0.73953300  1
  H  195  1  0.06265000  0.77355100  0.57732400  1
  H  196  1  0.96270800  0.82829300  0.57346100  1
  H  197  1  0.96682500  0.82768600  0.53736400  1
  H  198  1  0.06630400  0.77218300  0.54117900  1
  H  199  1  0.12844000  0.70504000  0.67809700  1
  H  200  1  0.13507200  0.73704800  0.74933900  1
  H  201  1  0.08903800  0.76249900  0.72846900  1
  H  202  1  0.17470100  0.67953400  0.69912600  1
  H  209  1  0.96271300  0.83754600  0.63890900  1
  H  210  1  0.05402600  0.77021100  0.64070300  1
  H  211  1  0.00617000  0.80556200  0.69530000  1
  H  212  1  0.91448900  0.86076000  0.72484100  1
  H  223  1  0.79746300  0.94260400  0.71059100  1
  H  224  1  0.04614600  0.79840600  0.50901700  1
  H  225  1  0.19747400  0.71060200  0.74876800  1
  H  243  1  0.17606700  0.93524700  0.33243500  1
  H  244  1  0.12763100  0.90259600  0.34739700  1
  H  245  1  0.14923300  0.89363700  0.27486400  1
  H  246  1  0.95197500  0.77376400  0.43719000  1
  H  247  1  0.05183100  0.82861000  0.44123400  1
  H  248  1  0.04753700  0.82794100  0.47732500  1
  H  249  1  0.94814600  0.77233300  0.47333400  1
  H  250  1  0.88521900  0.70958800  0.33600900  1
  H  251  1  0.87729700  0.74309000  0.26498200  1
  H  252  1  0.92485900  0.76681600  0.28559100  1
  H  253  1  0.83760600  0.68592800  0.31534800  1
  H  260  1  0.05273400  0.83774300  0.37596600  1
  H  261  1  0.96079700  0.77121400  0.37362300  1
  H  262  1  0.00939800  0.80699500  0.31932200  1
  H  263  1  0.10058500  0.86095900  0.28984800  1
  H  274  1  0.21605600  0.94575500  0.30351300  1
  H  275  1  0.96819100  0.79859000  0.50556200  1
  H  276  1  0.81481700  0.71508600  0.26495500  1
  H  294  1  0.66878800  0.16571800  0.83202600  1
  H  295  1  0.62460300  0.20354700  0.84722200  1
  H  296  1  0.64608600  0.20981300  0.77456800  1
  H  297  1  0.45094000  0.33235100  0.93692500  1
  H  298  1  0.55089500  0.27754600  0.94034500  1
  H  299  1  0.54715000  0.27792200  0.97646600  1
  H  300  1  0.44765600  0.33348700  0.97307500  1
  H  301  1  0.38341000  0.39855100  0.83585300  1
  H  302  1  0.37600800  0.36757500  0.76449900  1
  H  303  1  0.42200000  0.34147800  0.78517300  1
  H  304  1  0.33726800  0.42468700  0.81505700  1
  H  311  1  0.55218700  0.27089500  0.87528700  1
  H  312  1  0.45786200  0.33421200  0.87311400  1
  H  313  1  0.50797700  0.30089900  0.81872100  1
  H  314  1  0.60175400  0.24771500  0.78972800  1
  H  325  1  0.68821900  0.13629100  0.79885100  1
  H  326  1  0.46810600  0.30713800  0.00509000  1
  H  327  1  0.31460200  0.39606700  0.76456400  1
  H  345  1  0.34374000  0.16452600  0.18248200  1
  H  346  1  0.38731000  0.20235100  0.16675900  1
  H  347  1  0.36781000  0.20940300  0.23958100  1
  H  348  1  0.56242600  0.33189600  0.07673800  1
  H  349  1  0.46264200  0.27687900  0.07276000  1
  H  350  1  0.46692600  0.27742800  0.03667900  1
  H  351  1  0.56622700  0.33323000  0.04058200  1
  H  352  1  0.63026600  0.39255900  0.17707700  1
  H  353  1  0.63092300  0.37133800  0.24982600  1
  H  354  1  0.58927200  0.33967600  0.22876300  1
  H  355  1  0.67186200  0.42419400  0.19819700  1
  H  362  1  0.45937700  0.27056200  0.13781800  1
  H  363  1  0.55555800  0.33124200  0.14031900  1
  H  364  1  0.50482900  0.29788000  0.19454500  1
  H  365  1  0.41156500  0.24732500  0.22388700  1
  H  376  1  0.32568300  0.13541000  0.21604800  1
  H  377  1  0.54609600  0.30687800  0.00835800  1
  H  378  1  0.66753700  0.42855200  0.25190100  1
  H  396  1  0.34379800  0.93277900  0.18214500  1
  H  397  1  0.38918700  0.89647000  0.16689300  1
  H  398  1  0.36816400  0.88937300  0.23963300  1
  H  399  1  0.56420500  0.77222300  0.07684200  1
  H  400  1  0.46462600  0.82786500  0.07403200  1
  H  401  1  0.46788300  0.82781200  0.03789400  1
  H  402  1  0.56696000  0.77136900  0.04067600  1
  H  403  1  0.63285500  0.70599600  0.17859600  1
  H  404  1  0.63857800  0.73774400  0.24990700  1
  H  405  1  0.59291900  0.76345000  0.22883300  1
  H  406  1  0.67865400  0.68029500  0.19976900  1
  H  413  1  0.46359000  0.83294500  0.13873400  1
  H  414  1  0.55867300  0.77058400  0.14063900  1
  H  415  1  0.50818400  0.80268100  0.19517900  1
  H  416  1  0.41372000  0.85287500  0.22438400  1
  H  427  1  0.32621100  0.96212700  0.21506800  1
  H  428  1  0.54618300  0.79821700  0.00887500  1
  H  429  1  0.69975000  0.70916500  0.25056400  1
  H  447  1  0.67239400  0.93371100  0.83178900  1
  H  448  1  0.62744000  0.89760700  0.84757300  1
  H  449  1  0.64649300  0.88958000  0.77467700  1
  H  450  1  0.45089900  0.77265100  0.93796200  1
  H  451  1  0.55030100  0.82852600  0.94132600  1
  H  452  1  0.54649900  0.82832200  0.97742800  1
  H  453  1  0.44761700  0.77161900  0.97413500  1
  H  454  1  0.38213700  0.71199300  0.83703800  1
  H  455  1  0.38280700  0.73359800  0.76429400  1
  H  456  1  0.42403800  0.76524900  0.78567100  1
  H  457  1  0.34099300  0.68042900  0.81561700  1
  H  464  1  0.55331500  0.83323700  0.87664000  1
  H  465  1  0.45638200  0.77357000  0.87437400  1
  H  466  1  0.50745900  0.80580100  0.82001100  1
  H  467  1  0.60134300  0.85325600  0.79046700  1
  H  478  1  0.68878900  0.96261800  0.79856800  1
  H  479  1  0.46807300  0.79851100  0.00614400  1
  H  480  1  0.34681200  0.67490700  0.76252100  1
  H  570  1  0.16945400  0.32831200  0.43892000  1
  H  571  1  0.12372500  0.36422300  0.45424000  1
  H  572  1  0.14457300  0.37181200  0.38150200  1
  H  573  1  0.95010000  0.49093700  0.54399000  1
  H  574  1  0.04947400  0.43489100  0.54681900  1
  H  575  1  0.04612900  0.43484600  0.58294700  1
  H  576  1  0.94728200  0.49173300  0.58016300  1
  H  577  1  0.88346700  0.55940100  0.44215500  1
  H  578  1  0.87843100  0.52619300  0.37102500  1
  H  579  1  0.92416400  0.50126100  0.39233200  1
  H  580  1  0.83754300  0.58434200  0.42071600  1
  H  587  1  0.04967400  0.42842100  0.48230300  1
  H  588  1  0.95700100  0.49406900  0.48035400  1
  H  589  1  0.00648900  0.46041800  0.42582300  1
  H  590  1  0.09878000  0.40786200  0.39679700  1
  H  601  1  0.18836000  0.29979000  0.40591400  1
  H  602  1  0.96801100  0.46469000  0.61195900  1
  H  603  1  0.81617700  0.55280200  0.37086700  1
  H  621  1  0.84346300  0.32769600  0.78811800  1
  H  622  1  0.88898300  0.36336300  0.77242100  1
  H  623  1  0.86934700  0.37184100  0.84524300  1
  H  624  1  0.06380400  0.49074800  0.68254500  1
  H  625  1  0.96451400  0.43459100  0.67954400  1
  H  626  1  0.96803000  0.43459600  0.64342300  1
  H  627  1  0.06678900  0.49159100  0.64637200  1
  H  628  1  0.13133500  0.55462700  0.78476800  1
  H  629  1  0.13769100  0.52012700  0.85571600  1
  H  630  1  0.09036300  0.49693700  0.83471200  1
  H  631  1  0.17869500  0.57768400  0.80579000  1
  H  638  1  0.96336200  0.42826800  0.74383100  1
  H  639  1  0.05664500  0.49308500  0.74640800  1
  H  640  1  0.00631200  0.45896100  0.80060400  1
  H  641  1  0.91494100  0.40765900  0.82957000  1
  H  652  1  0.82528200  0.29960000  0.82140000  1
  H  653  1  0.04616700  0.46447200  0.61451500  1
  H  654  1  0.20030500  0.54799400  0.85623200  1
  H  672  1  0.83892800  0.09160140  0.78803500  1
  H  673  1  0.88778900  0.05909740  0.77334900  1
  H  674  1  0.86543400  0.05082940  0.84583500  1
  H  675  1  0.06265000  0.93109500  0.68362600  1
  H  676  1  0.96270800  0.98583700  0.67976300  1
  H  677  1  0.96682500  0.98523000  0.64366600  1
  H  678  1  0.06630400  0.92972700  0.64748100  1
  H  679  1  0.12844000  0.86258400  0.78439900  1
  H  680  1  0.13507200  0.89459200  0.85564100  1
  H  681  1  0.08903800  0.92004300  0.83477100  1
  H  682  1  0.17470100  0.83707800  0.80542800  1
  H  689  1  0.96271300  0.99509000  0.74521100  1
  H  690  1  0.05402600  0.92775500  0.74700500  1
  H  691  1  0.00617000  0.96310600  0.80160200  1
  H  692  1  0.91448900  0.01830440  0.83114300  1
  H  703  1  0.79746300  0.10014800  0.81689300  1
  H  704  1  0.04614600  0.95595000  0.61531900  1
  H  705  1  0.19747400  0.86814600  0.85507000  1
  H  723  1  0.17606700  0.09279140  0.43873700  1
  H  724  1  0.12763100  0.06014040  0.45369900  1
  H  725  1  0.14923300  0.05118140  0.38116600  1
  H  726  1  0.95197500  0.93130800  0.54349200  1
  H  727  1  0.05183100  0.98615400  0.54753600  1
  H  728  1  0.04753700  0.98548500  0.58362700  1
  H  729  1  0.94814600  0.92987700  0.57963600  1
  H  730  1  0.88521900  0.86713200  0.44231100  1
  H  731  1  0.87729700  0.90063400  0.37128400  1
  H  732  1  0.92485900  0.92436000  0.39189300  1
  H  733  1  0.83760600  0.84347200  0.42165000  1
  H  740  1  0.05273400  0.99528700  0.48226800  1
  H  741  1  0.96079700  0.92875800  0.47992500  1
  H  742  1  0.00939800  0.96453900  0.42562400  1
  H  743  1  0.10058500  0.01850340  0.39615000  1
  H  754  1  0.21605600  0.10329900  0.40981500  1
  H  755  1  0.96819100  0.95613400  0.61186400  1
  H  756  1  0.81481700  0.87263000  0.37125700  1
  H  774  1  0.66878800  0.32326200  0.93832800  1
  H  775  1  0.62460300  0.36109100  0.95352400  1
  H  776  1  0.64608600  0.36735700  0.88087000  1
  H  777  1  0.45094000  0.48989500  0.04322660  1
  H  778  1  0.55089500  0.43509000  0.04664660  1
  H  779  1  0.54715000  0.43546600  0.08276760  1
  H  780  1  0.44765600  0.49103100  0.07937660  1
  H  781  1  0.38341000  0.55609500  0.94215500  1
  H  782  1  0.37600800  0.52511900  0.87080100  1
  H  783  1  0.42200000  0.49902200  0.89147500  1
  H  784  1  0.33726800  0.58223100  0.92135900  1
  H  791  1  0.55218700  0.42843900  0.98158900  1
  H  792  1  0.45786200  0.49175600  0.97941600  1
  H  793  1  0.50797700  0.45844300  0.92502300  1
  H  794  1  0.60175400  0.40525900  0.89603000  1
  H  805  1  0.68821900  0.29383500  0.90515300  1
  H  806  1  0.46810600  0.46468200  0.11139200  1
  H  807  1  0.31460200  0.55361100  0.87086600  1
  H  825  1  0.34374000  0.32207000  0.28878400  1
  H  826  1  0.38731000  0.35989500  0.27306100  1
  H  827  1  0.36781000  0.36694700  0.34588300  1
  H  828  1  0.56242600  0.48944000  0.18304000  1
  H  829  1  0.46264200  0.43442300  0.17906200  1
  H  830  1  0.46692600  0.43497200  0.14298100  1
  H  831  1  0.56622700  0.49077400  0.14688400  1
  H  832  1  0.63026600  0.55010300  0.28337900  1
  H  833  1  0.63092300  0.52888200  0.35612800  1
  H  834  1  0.58927200  0.49722000  0.33506500  1
  H  835  1  0.67186200  0.58173800  0.30449900  1
  H  842  1  0.45937700  0.42810600  0.24412000  1
  H  843  1  0.55555800  0.48878600  0.24662100  1
  H  844  1  0.50482900  0.45542400  0.30084700  1
  H  845  1  0.41156500  0.40486900  0.33018900  1
  H  856  1  0.32568300  0.29295400  0.32235000  1
  H  857  1  0.54609600  0.46442200  0.11466000  1
  H  858  1  0.66753700  0.58609600  0.35820300  1
  H  876  1  0.34379800  0.09032340  0.28844700  1
  H  877  1  0.38918700  0.05401440  0.27319500  1
  H  878  1  0.36816400  0.04691740  0.34593500  1
  H  879  1  0.56420500  0.92976700  0.18314400  1
  H  880  1  0.46462600  0.98540900  0.18033400  1
  H  881  1  0.46788300  0.98535600  0.14419600  1
  H  882  1  0.56696000  0.92891300  0.14697800  1
  H  883  1  0.63285500  0.86354000  0.28489800  1
  H  884  1  0.63857800  0.89528800  0.35620900  1
  H  885  1  0.59291900  0.92099400  0.33513500  1
  H  886  1  0.67865400  0.83783900  0.30607100  1
  H  893  1  0.46359000  0.99048900  0.24503600  1
  H  894  1  0.55867300  0.92812800  0.24694100  1
  H  895  1  0.50818400  0.96022500  0.30148100  1
  H  896  1  0.41372000  0.01041940  0.33068600  1
  H  907  1  0.32621100  0.11967100  0.32137000  1
  H  908  1  0.54618300  0.95576100  0.11517700  1
  H  909  1  0.69975000  0.86670900  0.35686600  1
  H  927  1  0.67239400  0.09125540  0.93809100  1
  H  928  1  0.62744000  0.05515140  0.95387500  1
  H  929  1  0.64649300  0.04712440  0.88097900  1
  H  930  1  0.45089900  0.93019500  0.04426360  1
  H  931  1  0.55030100  0.98607000  0.04762760  1
  H  932  1  0.54649900  0.98586600  0.08372960  1
  H  933  1  0.44761700  0.92916300  0.08043660  1
  H  934  1  0.38213700  0.86953700  0.94334000  1
  H  935  1  0.38280700  0.89114200  0.87059600  1
  H  936  1  0.42403800  0.92279300  0.89197300  1
  H  937  1  0.34099300  0.83797300  0.92191900  1
  H  944  1  0.55331500  0.99078100  0.98294200  1
  H  945  1  0.45638200  0.93111400  0.98067600  1
  H  946  1  0.50745900  0.96334500  0.92631300  1
  H  947  1  0.60134300  0.01080040  0.89676900  1
  H  958  1  0.68878900  0.12016200  0.90487000  1
  H  959  1  0.46807300  0.95605500  0.11244600  1
  H  960  1  0.34681200  0.83245100  0.86882300  1
  H  1050  1  0.16945400  0.48585700  0.54522100  1
  H  1051  1  0.12372500  0.52176800  0.56054100  1
  H  1052  1  0.14457300  0.52935700  0.48780300  1
  H  1053  1  0.95010000  0.64848200  0.65029100  1
  H  1054  1  0.04947400  0.59243600  0.65312000  1
  H  1055  1  0.04612900  0.59239100  0.68924800  1
  H  1056  1  0.94728200  0.64927800  0.68646400  1
  H  1057  1  0.88346700  0.71694600  0.54845600  1
  H  1058  1  0.87843100  0.68373800  0.47732600  1
  H  1059  1  0.92416400  0.65880600  0.49863300  1
  H  1060  1  0.83754300  0.74188700  0.52701700  1
  H  1067  1  0.04967400  0.58596600  0.58860400  1
  H  1068  1  0.95700100  0.65161400  0.58665500  1
  H  1069  1  0.00648900  0.61796300  0.53212400  1
  H  1070  1  0.09878000  0.56540700  0.50309800  1
  H  1081  1  0.18836000  0.45733500  0.51221500  1
  H  1082  1  0.96801100  0.62223500  0.71826000  1
  H  1083  1  0.81617700  0.71034700  0.47716800  1
  H  1101  1  0.84346300  0.48524100  0.89441900  1
  H  1102  1  0.88898300  0.52090800  0.87872200  1
  H  1103  1  0.86934700  0.52938600  0.95154400  1
  H  1104  1  0.06380400  0.64829300  0.78884600  1
  H  1105  1  0.96451400  0.59213600  0.78584500  1
  H  1106  1  0.96803000  0.59214100  0.74972400  1
  H  1107  1  0.06678900  0.64913600  0.75267300  1
  H  1108  1  0.13133500  0.71217200  0.89106900  1
  H  1109  1  0.13769100  0.67767200  0.96201700  1
  H  1110  1  0.09036300  0.65448200  0.94101300  1
  H  1111  1  0.17869500  0.73522900  0.91209100  1
  H  1118  1  0.96336200  0.58581300  0.85013200  1
  H  1119  1  0.05664500  0.65063000  0.85270900  1
  H  1120  1  0.00631200  0.61650600  0.90690500  1
  H  1121  1  0.91494100  0.56520400  0.93587100  1
  H  1132  1  0.82528200  0.45714500  0.92770100  1
  H  1133  1  0.04616700  0.62201700  0.72081600  1
  H  1134  1  0.20030500  0.70553900  0.96253300  1
  H  1152  1  0.83892800  0.24914600  0.89433600  1
  H  1153  1  0.88778900  0.21664200  0.87965000  1
  H  1154  1  0.86543400  0.20837400  0.95213600  1
  H  1155  1  0.06265000  0.08863980  0.78992700  1
  H  1156  1  0.96270800  0.14338200  0.78606400  1
  H  1157  1  0.96682500  0.14277500  0.74996700  1
  H  1158  1  0.06630400  0.08727180  0.75378200  1
  H  1159  1  0.12844000  0.02012880  0.89070000  1
  H  1160  1  0.13507200  0.05213680  0.96194200  1
  H  1161  1  0.08903800  0.07758780  0.94107200  1
  H  1162  1  0.17470100  0.99462300  0.91172900  1
  H  1169  1  0.96271300  0.15263500  0.85151200  1
  H  1170  1  0.05402600  0.08529980  0.85330600  1
  H  1171  1  0.00617000  0.12065100  0.90790300  1
  H  1172  1  0.91448900  0.17584900  0.93744400  1
  H  1183  1  0.79746300  0.25769300  0.92319400  1
  H  1184  1  0.04614600  0.11349500  0.72162000  1
  H  1185  1  0.19747400  0.02569080  0.96137100  1
  H  1203  1  0.17606700  0.25033600  0.54503800  1
  H  1204  1  0.12763100  0.21768500  0.56000000  1
  H  1205  1  0.14923300  0.20872600  0.48746700  1
  H  1206  1  0.95197500  0.08885280  0.64979300  1
  H  1207  1  0.05183100  0.14369900  0.65383700  1
  H  1208  1  0.04753700  0.14303000  0.68992800  1
  H  1209  1  0.94814600  0.08742180  0.68593700  1
  H  1210  1  0.88521900  0.02467680  0.54861200  1
  H  1211  1  0.87729700  0.05817880  0.47758500  1
  H  1212  1  0.92485900  0.08190480  0.49819400  1
  H  1213  1  0.83760600  0.00101682  0.52795100  1
  H  1220  1  0.05273400  0.15283200  0.58856900  1
  H  1221  1  0.96079700  0.08630280  0.58622600  1
  H  1222  1  0.00939800  0.12208400  0.53192500  1
  H  1223  1  0.10058500  0.17604800  0.50245100  1
  H  1234  1  0.21605600  0.26084400  0.51611600  1
  H  1235  1  0.96819100  0.11367900  0.71816500  1
  H  1236  1  0.81481700  0.03017480  0.47755800  1
  H  1254  1  0.66878800  0.48080700  0.04462910  1
  H  1255  1  0.62460300  0.51863600  0.05982510  1
  H  1256  1  0.64608600  0.52490200  0.98717100  1
  H  1257  1  0.45094000  0.64744000  0.14952800  1
  H  1258  1  0.55089500  0.59263500  0.15294800  1
  H  1259  1  0.54715000  0.59301100  0.18906900  1
  H  1260  1  0.44765600  0.64857600  0.18567800  1
  H  1261  1  0.38341000  0.71364000  0.04845610  1
  H  1262  1  0.37600800  0.68266400  0.97710200  1
  H  1263  1  0.42200000  0.65656700  0.99777600  1
  H  1264  1  0.33726800  0.73977600  0.02766010  1
  H  1271  1  0.55218700  0.58598400  0.08789010  1
  H  1272  1  0.45786200  0.64930100  0.08571710  1
  H  1273  1  0.50797700  0.61598800  0.03132410  1
  H  1274  1  0.60175400  0.56280400  0.00233111  1
  H  1285  1  0.68821900  0.45138000  0.01145410  1
  H  1286  1  0.46810600  0.62222700  0.21769300  1
  H  1287  1  0.31460200  0.71115600  0.97716700  1
  H  1305  1  0.34374000  0.47961500  0.39508500  1
  H  1306  1  0.38731000  0.51744000  0.37936200  1
  H  1307  1  0.36781000  0.52449200  0.45218400  1
  H  1308  1  0.56242600  0.64698500  0.28934100  1
  H  1309  1  0.46264200  0.59196800  0.28536300  1
  H  1310  1  0.46692600  0.59251700  0.24928200  1
  H  1311  1  0.56622700  0.64831900  0.25318500  1
  H  1312  1  0.63026600  0.70764800  0.38968000  1
  H  1313  1  0.63092300  0.68642700  0.46242900  1
  H  1314  1  0.58927200  0.65476500  0.44136600  1
  H  1315  1  0.67186200  0.73928300  0.41080000  1
  H  1322  1  0.45937700  0.58565100  0.35042100  1
  H  1323  1  0.55555800  0.64633100  0.35292200  1
  H  1324  1  0.50482900  0.61296900  0.40714800  1
  H  1325  1  0.41156500  0.56241400  0.43649000  1
  H  1336  1  0.32568300  0.45049900  0.42865100  1
  H  1337  1  0.54609600  0.62196700  0.22096100  1
  H  1338  1  0.66753700  0.74364100  0.46450400  1
  H  1356  1  0.34379800  0.24786800  0.39474800  1
  H  1357  1  0.38918700  0.21155900  0.37949600  1
  H  1358  1  0.36816400  0.20446200  0.45223600  1
  H  1359  1  0.56420500  0.08731180  0.28944500  1
  H  1360  1  0.46462600  0.14295400  0.28663500  1
  H  1361  1  0.46788300  0.14290100  0.25049700  1
  H  1362  1  0.56696000  0.08645780  0.25327900  1
  H  1363  1  0.63285500  0.02108480  0.39119900  1
  H  1364  1  0.63857800  0.05283280  0.46251000  1
  H  1365  1  0.59291900  0.07853880  0.44143600  1
  H  1366  1  0.67865400  0.99538400  0.41237200  1
  H  1373  1  0.46359000  0.14803400  0.35133700  1
  H  1374  1  0.55867300  0.08567280  0.35324200  1
  H  1375  1  0.50818400  0.11777000  0.40778200  1
  H  1376  1  0.41372000  0.16796400  0.43698700  1
  H  1387  1  0.32621100  0.27721600  0.42767100  1
  H  1388  1  0.54618300  0.11330600  0.22147800  1
  H  1389  1  0.69975000  0.02425380  0.46316700  1
  H  1407  1  0.67239400  0.24880000  0.04439210  1
  H  1408  1  0.62744000  0.21269600  0.06017610  1
  H  1409  1  0.64649300  0.20466900  0.98728000  1
  H  1410  1  0.45089900  0.08773980  0.15056500  1
  H  1411  1  0.55030100  0.14361500  0.15392900  1
  H  1412  1  0.54649900  0.14341100  0.19003100  1
  H  1413  1  0.44761700  0.08670780  0.18673800  1
  H  1414  1  0.38213700  0.02708180  0.04964110  1
  H  1415  1  0.38280700  0.04868680  0.97689700  1
  H  1416  1  0.42403800  0.08033780  0.99827400  1
  H  1417  1  0.34099300  0.99551800  0.02822010  1
  H  1424  1  0.55331500  0.14832600  0.08924310  1
  H  1425  1  0.45638200  0.08865880  0.08697710  1
  H  1426  1  0.50745900  0.12089000  0.03261410  1
  H  1427  1  0.60134300  0.16834500  0.00307011  1
  H  1438  1  0.68878900  0.27770700  0.01117110  1
  H  1439  1  0.46807300  0.11360000  0.21874700  1
  H  1440  1  0.34681200  0.98999600  0.97512400  1
  C  1  1  0.25207000  0.09917700  0.25826800  1
  C  3  1  0.28059800  0.15115700  0.24625200  1
  C  5  1  0.23010100  0.15491100  0.26850200  1
  C  10  1  0.76179400  0.09953100  0.75633800  1
  C  12  1  0.73300900  0.15142800  0.76831300  1
  C  14  1  0.78351500  0.15530100  0.74605700  1
  C  19  1  0.25380100  0.50899500  0.75521800  1
  C  21  1  0.28299900  0.45723100  0.76689700  1
  C  23  1  0.22987700  0.45357600  0.74645200  1
  C  28  1  0.75097200  0.50598000  0.25439900  1
  C  30  1  0.73237700  0.44941900  0.24415900  1
  C  32  1  0.78367500  0.45587300  0.26560000  1
  C  37  1  0.75322000  0.00796000  0.75940700  1
  C  39  1  0.73228700  0.95113000  0.76832200  1
  C  41  1  0.78517400  0.95745300  0.74812100  1
  C  46  1  0.26140700  0.00770300  0.25457000  1
  C  48  1  0.28261200  0.95105100  0.24542100  1
  C  50  1  0.22979900  0.95692000  0.26572400  1
  C  55  1  0.76125700  0.59665000  0.25934800  1
  C  57  1  0.73246400  0.64860000  0.24777100  1
  C  59  1  0.78550100  0.65192400  0.26831600  1
  C  64  1  0.26257000  0.59994200  0.75950200  1
  C  66  1  0.28074500  0.65674800  0.76942600  1
  C  68  1  0.22930800  0.64969200  0.74813900  1
  C  73  1  0.00024000  0.30559700  0.43574700  1
  C  74  1  0.10720400  0.23199100  0.32064000  1
  C  75  1  0.90824800  0.37067600  0.31290300  1
  C  76  1  0.11389700  0.23405800  0.29956200  1
  C  77  1  0.16192800  0.18944800  0.30247500  1
  C  78  1  0.15517800  0.18778200  0.32361600  1
  C  79  1  0.12821300  0.20890700  0.33264600  1
  C  80  1  0.02798200  0.28969800  0.44738900  1
  C  81  1  0.02608700  0.28997100  0.46874700  1
  C  82  1  0.99681700  0.30656800  0.47904500  1
  C  83  1  0.96913700  0.32231500  0.46710600  1
  C  84  1  0.97074200  0.32188400  0.44575000  1
  C  85  1  0.88309600  0.39521600  0.32079300  1
  C  86  1  0.85620100  0.41004600  0.30813300  1
  C  87  1  0.85381100  0.40062000  0.28736900  1
  C  88  1  0.87953500  0.37640300  0.27957500  1
  C  89  1  0.90651500  0.36165900  0.29214000  1
  C  101  1  0.97805100  0.32231800  0.34521800  1
  C  102  1  0.97690100  0.32250400  0.36666500  1
  C  103  1  0.00310200  0.30365100  0.37799800  1
  C  104  1  0.03051100  0.28450400  0.36778800  1
  C  105  1  0.03183200  0.28416800  0.34635000  1
  C  106  1  0.00553000  0.30304700  0.33511600  1
  C  111  1  0.93208100  0.35529400  0.32463900  1
  C  112  1  0.95394600  0.33988400  0.33473100  1
  C  113  1  0.08125600  0.25043800  0.32896100  1
  C  114  1  0.05747700  0.26670400  0.33704500  1
  C  115  1  0.00224900  0.30418200  0.39781100  1
  C  116  1  0.00146400  0.30481200  0.41595500  1
  C  117  1  0.82544600  0.41190800  0.27503400  1
  C  118  1  0.99324200  0.30632700  0.50020200  1
  C  119  1  0.18645600  0.16629300  0.29374100  1
  C  120  1  0.14103200  0.21300100  0.29059100  1
  C  124  1  0.01368500  0.30535500  0.57809800  1
  C  125  1  0.90595100  0.23142300  0.69324100  1
  C  126  1  0.10635500  0.36627200  0.70152600  1
  C  127  1  0.89964200  0.23376900  0.71434700  1
  C  128  1  0.85152100  0.18921500  0.71183700  1
  C  129  1  0.85793400  0.18723600  0.69067700  1
  C  130  1  0.88476700  0.20820900  0.68142500  1
  C  131  1  0.98603100  0.28942000  0.56640800  1
  C  132  1  0.98801200  0.28974500  0.54505500  1
  C  133  1  0.01730000  0.30640300  0.53480700  1
  C  134  1  0.04492300  0.32213900  0.54679000  1
  C  135  1  0.04321500  0.32168500  0.56814500  1
  C  136  1  0.13211200  0.38998000  0.69345300  1
  C  137  1  0.15996500  0.40357600  0.70587400  1
  C  138  1  0.16278500  0.39375600  0.72657700  1
  C  139  1  0.13652600  0.37029300  0.73455800  1
  C  140  1  0.10855600  0.35671700  0.72220500  1
  C  152  1  0.03507800  0.32110400  0.66878600  1
  C  153  1  0.03646400  0.32166100  0.64734700  1
  C  154  1  0.01019900  0.30321500  0.63583300  1
  C  155  1  0.98252300  0.28412900  0.64585800  1
  C  156  1  0.98101600  0.28348300  0.66728700  1
  C  157  1  0.00735400  0.30193100  0.67870600  1
  C  162  1  0.08168800  0.35211400  0.68986100  1
  C  163  1  0.05942600  0.33782000  0.67950700  1
  C  164  1  0.93168300  0.24977900  0.68470800  1
  C  165  1  0.95533000  0.26600300  0.67649200  1
  C  166  1  0.01134000  0.30390100  0.61602600  1
  C  167  1  0.01232800  0.30457500  0.59788700  1
  C  168  1  0.19100000  0.40571400  0.73880800  1
  C  169  1  0.02092600  0.30621900  0.51365500  1
  C  170  1  0.82709700  0.16624900  0.72077600  1
  C  171  1  0.87265600  0.21283800  0.72353900  1
  C  175  1  0.01214200  0.80076400  0.57884100  1
  C  176  1  0.90598100  0.87817100  0.69455200  1
  C  177  1  0.10418700  0.73596100  0.70133000  1
  C  178  1  0.89897900  0.87641500  0.71562500  1
  C  179  1  0.84730800  0.91743400  0.71220000  1
  C  180  1  0.85475300  0.91902800  0.69109600  1
  C  181  1  0.88363100  0.89981500  0.68238500  1
  C  182  1  0.98450700  0.81605900  0.56683100  1
  C  183  1  0.98684800  0.81538200  0.54546200  1
  C  184  1  0.01655100  0.79904200  0.53540600  1
  C  185  1  0.04411400  0.78387000  0.54769500  1
  C  186  1  0.04201800  0.78465000  0.56906300  1
  C  187  1  0.12915400  0.71145800  0.69318600  1
  C  188  1  0.15623200  0.69624700  0.70560600  1
  C  189  1  0.15906500  0.70524000  0.72641500  1
  C  190  1  0.13362100  0.72949900  0.73445900  1
  C  191  1  0.10646800  0.74459500  0.72213800  1
  C  203  1  0.03374900  0.78513100  0.66958200  1
  C  204  1  0.03447600  0.78465800  0.64811800  1
  C  205  1  0.00849100  0.80381000  0.63677000  1
  C  206  1  0.98165900  0.82363700  0.64709600  1
  C  207  1  0.98062600  0.82445100  0.66857300  1
  C  208  1  0.00678600  0.80511500  0.67970700  1
  C  213  1  0.08003300  0.75166000  0.68984200  1
  C  214  1  0.05793700  0.76731800  0.67999600  1
  C  215  1  0.93218200  0.85964100  0.68622200  1
  C  216  1  0.95551600  0.84281600  0.67801800  1
  C  217  1  0.00930300  0.80301500  0.61686900  1
  C  218  1  0.01045300  0.80198000  0.59870500  1
  C  219  1  0.18771000  0.69378900  0.73853300  1
  C  220  1  0.02073600  0.79916800  0.51421200  1
  C  221  1  0.81723400  0.93541800  0.72010300  1
  C  222  1  0.87007800  0.89575600  0.72428500  1
  C  226  1  0.00245600  0.80103200  0.43576400  1
  C  227  1  0.10934900  0.87877300  0.32003900  1
  C  228  1  0.90963800  0.74026200  0.31271000  1
  C  229  1  0.11613500  0.87677200  0.29895400  1
  C  230  1  0.16754800  0.91817200  0.30205300  1
  C  231  1  0.16030800  0.91995700  0.32317700  1
  C  232  1  0.13167000  0.90067100  0.33205600  1
  C  233  1  0.03000800  0.81635300  0.44782400  1
  C  234  1  0.02756900  0.81563100  0.46918700  1
  C  235  1  0.99784700  0.79922600  0.47919100  1
  C  236  1  0.97034900  0.78405700  0.46685400  1
  C  237  1  0.97254600  0.78487900  0.44548800  1
  C  238  1  0.88413500  0.71647500  0.32099300  1
  C  239  1  0.85612700  0.70249900  0.30878600  1
  C  240  1  0.85281600  0.71200900  0.28805900  1
  C  241  1  0.87878800  0.73555700  0.27985900  1
  C  242  1  0.90690500  0.74948100  0.29199500  1
  C  254  1  0.98152800  0.78634900  0.34487900  1
  C  255  1  0.98061000  0.78552700  0.36633700  1
  C  256  1  0.00668000  0.80428800  0.37784600  1
  C  257  1  0.03376200  0.82405200  0.36768000  1
  C  258  1  0.03495000  0.82515200  0.34621000  1
  C  259  1  0.00872500  0.80622900  0.33491300  1
  C  264  1  0.93458800  0.75476100  0.32415400  1
  C  265  1  0.95708000  0.76934500  0.33425200  1
  C  266  1  0.08333200  0.86028500  0.32852800  1
  C  267  1  0.06010800  0.84351100  0.33684700  1
  C  268  1  0.00562300  0.80334000  0.39774200  1
  C  269  1  0.00428200  0.80225300  0.41590000  1
  C  270  1  0.82438300  0.69982600  0.27600900  1
  C  271  1  0.99361000  0.79927000  0.50038000  1
  C  272  1  0.19720000  0.93660200  0.29398900  1
  C  273  1  0.14481400  0.89618600  0.29012900  1
  C  277  1  0.50142000  0.30514000  0.93518400  1
  C  278  1  0.60905300  0.22939300  0.81994500  1
  C  279  1  0.40724000  0.36765400  0.81248300  1
  C  280  1  0.61605900  0.23089300  0.79886300  1
  C  281  1  0.66213000  0.18412100  0.80179700  1
  C  282  1  0.65516200  0.18307800  0.82294200  1
  C  283  1  0.62912200  0.20544900  0.83192400  1
  C  284  1  0.52917700  0.28974800  0.94707300  1
  C  285  1  0.52705400  0.29028400  0.96845100  1
  C  286  1  0.49746800  0.30659200  0.97863300  1
  C  287  1  0.46977400  0.32183200  0.96646500  1
  C  288  1  0.47165200  0.32119100  0.94509200  1
  C  289  1  0.38245900  0.39220200  0.82076000  1
  C  290  1  0.35540200  0.40777200  0.80846300  1
  C  291  1  0.35229000  0.39917800  0.78760000  1
  C  292  1  0.37748200  0.37476400  0.77943800  1
  C  293  1  0.40465600  0.35932000  0.79163800  1
  C  305  1  0.47911100  0.32018000  0.84429700  1
  C  306  1  0.47814100  0.32062700  0.86577000  1
  C  307  1  0.50487300  0.30263800  0.87723100  1
  C  308  1  0.53273600  0.28401600  0.86702000  1
  C  309  1  0.53411000  0.28326800  0.84555300  1
  C  310  1  0.50715700  0.30138500  0.83430700  1
  C  315  1  0.43175400  0.35208800  0.82386600  1
  C  316  1  0.45427500  0.33703500  0.83375500  1
  C  317  1  0.58357900  0.24888800  0.82824800  1
  C  318  1  0.55999700  0.26566500  0.83626900  1
  C  319  1  0.50390600  0.30334100  0.89713900  1
  C  320  1  0.50290000  0.30414200  0.91530900  1
  C  321  1  0.32399600  0.41174200  0.77548900  1
  C  322  1  0.49347000  0.30635800  0.99982900  1
  C  323  1  0.68656200  0.16042500  0.79313200  1
  C  324  1  0.64228200  0.20859600  0.78994300  1
  C  328  1  0.51197200  0.30457000  0.07817800  1
  C  329  1  0.40340200  0.22861000  0.19381100  1
  C  330  1  0.60613400  0.36295400  0.20093800  1
  C  331  1  0.39705800  0.23034300  0.21495000  1
  C  332  1  0.35115600  0.18338500  0.21256400  1
  C  333  1  0.35751400  0.18207600  0.19137200  1
  C  334  1  0.38317300  0.20444400  0.18208200  1
  C  335  1  0.48444400  0.28914700  0.06615500  1
  C  336  1  0.48688600  0.28979000  0.04479800  1
  C  337  1  0.51657000  0.30622700  0.03477800  1
  C  338  1  0.54406000  0.32147500  0.04708400  1
  C  339  1  0.54187400  0.32072100  0.06844800  1
  C  340  1  0.63059900  0.38739400  0.19233300  1
  C  341  1  0.65522200  0.40588200  0.20477100  1
  C  342  1  0.65590600  0.40039400  0.22604100  1
  C  343  1  0.63146800  0.37565700  0.23450100  1
  C  344  1  0.60694000  0.35699600  0.22209600  1
  C  356  1  0.53398500  0.31693700  0.16901700  1
  C  357  1  0.53486500  0.31806700  0.14757300  1
  C  358  1  0.50753600  0.30114600  0.13603800  1
  C  359  1  0.47919500  0.28300800  0.14614000  1
  C  360  1  0.47797200  0.28178100  0.16760200  1
  C  361  1  0.50548900  0.29879900  0.17895200  1
  C  366  1  0.58210200  0.34693400  0.18962500  1
  C  367  1  0.55934100  0.33256600  0.17963000  1
  C  368  1  0.42854300  0.24798400  0.18520100  1
  C  369  1  0.45195600  0.26452500  0.17690000  1
  C  370  1  0.50866700  0.30222800  0.11616700  1
  C  371  1  0.51011900  0.30338100  0.09802000  1
  C  372  1  0.67777100  0.42048400  0.23866900  1
  C  373  1  0.52070700  0.30620100  0.01359000  1
  C  374  1  0.32707500  0.15973900  0.22150400  1
  C  375  1  0.37117900  0.20806800  0.22417500  1
  C  379  1  0.51396500  0.79982200  0.07883400  1
  C  380  1  0.40549500  0.87108400  0.19420300  1
  C  381  1  0.60847200  0.73703500  0.20172900  1
  C  382  1  0.39864400  0.86911000  0.21528100  1
  C  383  1  0.35108800  0.91420400  0.21232400  1
  C  384  1  0.35782700  0.91562000  0.19117400  1
  C  385  1  0.38461700  0.89424900  0.18217600  1
  C  386  1  0.48614500  0.81556000  0.06716100  1
  C  387  1  0.48797600  0.81521900  0.04579000  1
  C  388  1  0.51729200  0.79874000  0.03546700  1
  C  389  1  0.54504900  0.78315100  0.04742700  1
  C  390  1  0.54348500  0.78362600  0.06879200  1
  C  391  1  0.63347100  0.71250500  0.19367100  1
  C  392  1  0.66032600  0.69721800  0.20619400  1
  C  393  1  0.66297200  0.70610600  0.22703700  1
  C  394  1  0.63746400  0.73042100  0.23498300  1
  C  395  1  0.61050500  0.74562900  0.22255300  1
  C  407  1  0.53728500  0.78414900  0.16950000  1
  C  408  1  0.53829600  0.78393600  0.14803500  1
  C  409  1  0.51135400  0.80180900  0.13668200  1
  C  410  1  0.48328300  0.82000600  0.14693400  1
  C  411  1  0.48200000  0.82038100  0.16838300  1
  C  412  1  0.50909200  0.80248400  0.17958800  1
  C  417  1  0.58430700  0.75240900  0.19011500  1
  C  418  1  0.56204400  0.76735200  0.18002600  1
  C  419  1  0.43166600  0.85281200  0.18589100  1
  C  420  1  0.45578500  0.83707600  0.17773900  1
  C  421  1  0.51212800  0.80126300  0.11682500  1
  C  422  1  0.51280900  0.80063800  0.09866600  1
  C  423  1  0.69102100  0.69372300  0.23936000  1
  C  424  1  0.52092800  0.79903900  0.01429200  1
  C  425  1  0.32716300  0.93805400  0.22098200  1
  C  426  1  0.37166900  0.89043900  0.22423200  1
  C  430  1  0.50111200  0.80036500  0.93627000  1
  C  431  1  0.61048600  0.87185900  0.82049400  1
  C  432  1  0.40658800  0.74176900  0.81334000  1
  C  433  1  0.61667500  0.86961100  0.79936400  1
  C  434  1  0.66427200  0.91470300  0.80176200  1
  C  435  1  0.65812100  0.91643600  0.82295400  1
  C  436  1  0.63162600  0.89516800  0.83226700  1
  C  437  1  0.52870800  0.81614100  0.94807500  1
  C  438  1  0.52654700  0.81571000  0.96942800  1
  C  439  1  0.49712800  0.79910800  0.97959100  1
  C  440  1  0.46957800  0.78350000  0.96749300  1
  C  441  1  0.47146100  0.78406200  0.94613400  1
  C  442  1  0.38208800  0.71722900  0.82178800  1
  C  443  1  0.35773200  0.69881200  0.80918300  1
  C  444  1  0.35744900  0.70449700  0.78793400  1
  C  445  1  0.38200600  0.72923900  0.77961100  1
  C  446  1  0.40625600  0.74786600  0.79219000  1
  C  458  1  0.47807500  0.78746000  0.84563900  1
  C  459  1  0.47716800  0.78650900  0.86707600  1
  C  460  1  0.50471500  0.80328000  0.87851000  1
  C  461  1  0.53325400  0.82100100  0.86837800  1
  C  462  1  0.53438000  0.82189100  0.84693200  1
  C  463  1  0.50672100  0.80513900  0.83561300  1
  C  468  1  0.43026800  0.75769700  0.82483700  1
  C  469  1  0.45277900  0.77194400  0.83503100  1
  C  470  1  0.58463900  0.85373900  0.82912600  1
  C  471  1  0.56070600  0.83824700  0.83756800  1
  C  472  1  0.50377500  0.80233200  0.89833100  1
  C  473  1  0.50264600  0.80136000  0.91646900  1
  C  474  1  0.33585900  0.68438900  0.77525300  1
  C  475  1  0.49335600  0.79921300  0.00075700  1
  C  476  1  0.68795000  0.93840800  0.79284000  1
  C  477  1  0.64336100  0.89085100  0.79009800  1
  C  481  1  0.25207000  0.25672100  0.36457000  1
  C  483  1  0.28059800  0.30870100  0.35255400  1
  C  485  1  0.23010100  0.31245500  0.37480400  1
  C  490  1  0.76179400  0.25707500  0.86264000  1
  C  492  1  0.73300900  0.30897200  0.87461500  1
  C  494  1  0.78351500  0.31284500  0.85235900  1
  C  499  1  0.25380100  0.66653900  0.86152000  1
  C  501  1  0.28299900  0.61477500  0.87319900  1
  C  503  1  0.22987700  0.61112000  0.85275400  1
  C  508  1  0.75097200  0.66352400  0.36070100  1
  C  510  1  0.73237700  0.60696300  0.35046100  1
  C  512  1  0.78367500  0.61341700  0.37190200  1
  C  517  1  0.75322000  0.16550400  0.86570900  1
  C  519  1  0.73228700  0.10867400  0.87462400  1
  C  521  1  0.78517400  0.11499700  0.85442300  1
  C  526  1  0.26140700  0.16524700  0.36087200  1
  C  528  1  0.28261200  0.10859500  0.35172300  1
  C  530  1  0.22979900  0.11446400  0.37202600  1
  C  535  1  0.76125700  0.75419400  0.36565000  1
  C  537  1  0.73246400  0.80614400  0.35407300  1
  C  539  1  0.78550100  0.80946800  0.37461800  1
  C  544  1  0.26257000  0.75748600  0.86580400  1
  C  546  1  0.28074500  0.81429200  0.87572800  1
  C  548  1  0.22930800  0.80723600  0.85444100  1
  C  553  1  0.00024000  0.46314100  0.54204900  1
  C  554  1  0.10720400  0.38953500  0.42694200  1
  C  555  1  0.90824800  0.52822000  0.41920500  1
  C  556  1  0.11389700  0.39160200  0.40586400  1
  C  557  1  0.16192800  0.34699200  0.40877700  1
  C  558  1  0.15517800  0.34532600  0.42991800  1
  C  559  1  0.12821300  0.36645100  0.43894800  1
  C  560  1  0.02798200  0.44724200  0.55369100  1
  C  561  1  0.02608700  0.44751500  0.57504900  1
  C  562  1  0.99681700  0.46411200  0.58534700  1
  C  563  1  0.96913700  0.47985900  0.57340800  1
  C  564  1  0.97074200  0.47942800  0.55205200  1
  C  565  1  0.88309600  0.55276000  0.42709500  1
  C  566  1  0.85620100  0.56759000  0.41443500  1
  C  567  1  0.85381100  0.55816400  0.39367100  1
  C  568  1  0.87953500  0.53394700  0.38587700  1
  C  569  1  0.90651500  0.51920300  0.39844200  1
  C  581  1  0.97805100  0.47986200  0.45152000  1
  C  582  1  0.97690100  0.48004800  0.47296700  1
  C  583  1  0.00310200  0.46119500  0.48430000  1
  C  584  1  0.03051100  0.44204800  0.47409000  1
  C  585  1  0.03183200  0.44171200  0.45265200  1
  C  586  1  0.00553000  0.46059100  0.44141800  1
  C  591  1  0.93208100  0.51283800  0.43094100  1
  C  592  1  0.95394600  0.49742800  0.44103300  1
  C  593  1  0.08125600  0.40798200  0.43526300  1
  C  594  1  0.05747700  0.42424800  0.44334700  1
  C  595  1  0.00224900  0.46172600  0.50411300  1
  C  596  1  0.00146400  0.46235600  0.52225700  1
  C  597  1  0.82544600  0.56945200  0.38133600  1
  C  598  1  0.99324200  0.46387100  0.60650400  1
  C  599  1  0.18645600  0.32383700  0.40004300  1
  C  600  1  0.14103200  0.37054500  0.39689300  1
  C  604  1  0.01368500  0.46289900  0.68440000  1
  C  605  1  0.90595100  0.38896700  0.79954300  1
  C  606  1  0.10635500  0.52381600  0.80782800  1
  C  607  1  0.89964200  0.39131300  0.82064900  1
  C  608  1  0.85152100  0.34675900  0.81813900  1
  C  609  1  0.85793400  0.34478000  0.79697900  1
  C  610  1  0.88476700  0.36575300  0.78772700  1
  C  611  1  0.98603100  0.44696400  0.67271000  1
  C  612  1  0.98801200  0.44728900  0.65135700  1
  C  613  1  0.01730000  0.46394700  0.64110900  1
  C  614  1  0.04492300  0.47968300  0.65309200  1
  C  615  1  0.04321500  0.47922900  0.67444700  1
  C  616  1  0.13211200  0.54752400  0.79975500  1
  C  617  1  0.15996500  0.56112000  0.81217600  1
  C  618  1  0.16278500  0.55130000  0.83287900  1
  C  619  1  0.13652600  0.52783700  0.84086000  1
  C  620  1  0.10855600  0.51426100  0.82850700  1
  C  632  1  0.03507800  0.47864800  0.77508800  1
  C  633  1  0.03646400  0.47920500  0.75364900  1
  C  634  1  0.01019900  0.46075900  0.74213500  1
  C  635  1  0.98252300  0.44167300  0.75216000  1
  C  636  1  0.98101600  0.44102700  0.77358900  1
  C  637  1  0.00735400  0.45947500  0.78500800  1
  C  642  1  0.08168800  0.50965800  0.79616300  1
  C  643  1  0.05942600  0.49536400  0.78580900  1
  C  644  1  0.93168300  0.40732300  0.79101000  1
  C  645  1  0.95533000  0.42354700  0.78279400  1
  C  646  1  0.01134000  0.46144500  0.72232800  1
  C  647  1  0.01232800  0.46211900  0.70418900  1
  C  648  1  0.19100000  0.56325800  0.84511000  1
  C  649  1  0.02092600  0.46376300  0.61995700  1
  C  650  1  0.82709700  0.32379300  0.82707800  1
  C  651  1  0.87265600  0.37038200  0.82984100  1
  C  655  1  0.01214200  0.95830800  0.68514300  1
  C  656  1  0.90598100  0.03571540  0.80085400  1
  C  657  1  0.10418700  0.89350500  0.80763200  1
  C  658  1  0.89897900  0.03395940  0.82192700  1
  C  659  1  0.84730800  0.07497840  0.81850200  1
  C  660  1  0.85475300  0.07657240  0.79739800  1
  C  661  1  0.88363100  0.05735940  0.78868700  1
  C  662  1  0.98450700  0.97360300  0.67313300  1
  C  663  1  0.98684800  0.97292600  0.65176400  1
  C  664  1  0.01655100  0.95658600  0.64170800  1
  C  665  1  0.04411400  0.94141400  0.65399700  1
  C  666  1  0.04201800  0.94219400  0.67536500  1
  C  667  1  0.12915400  0.86900200  0.79948800  1
  C  668  1  0.15623200  0.85379100  0.81190800  1
  C  669  1  0.15906500  0.86278400  0.83271700  1
  C  670  1  0.13362100  0.88704300  0.84076100  1
  C  671  1  0.10646800  0.90213900  0.82844000  1
  C  683  1  0.03374900  0.94267500  0.77588400  1
  C  684  1  0.03447600  0.94220200  0.75442000  1
  C  685  1  0.00849100  0.96135400  0.74307200  1
  C  686  1  0.98165900  0.98118100  0.75339800  1
  C  687  1  0.98062600  0.98199500  0.77487500  1
  C  688  1  0.00678600  0.96265900  0.78600900  1
  C  693  1  0.08003300  0.90920400  0.79614400  1
  C  694  1  0.05793700  0.92486200  0.78629800  1
  C  695  1  0.93218200  0.01718540  0.79252400  1
  C  696  1  0.95551600  0.00036041  0.78432000  1
  C  697  1  0.00930300  0.96055900  0.72317100  1
  C  698  1  0.01045300  0.95952400  0.70500700  1
  C  699  1  0.18771000  0.85133300  0.84483500  1
  C  700  1  0.02073600  0.95671200  0.62051400  1
  C  701  1  0.81723400  0.09296240  0.82640500  1
  C  702  1  0.87007800  0.05330040  0.83058700  1
  C  706  1  0.00245600  0.95857600  0.54206600  1
  C  707  1  0.10934900  0.03631740  0.42634100  1
  C  708  1  0.90963800  0.89780600  0.41901200  1
  C  709  1  0.11613500  0.03431640  0.40525600  1
  C  710  1  0.16754800  0.07571640  0.40835500  1
  C  711  1  0.16030800  0.07750140  0.42947900  1
  C  712  1  0.13167000  0.05821540  0.43835800  1
  C  713  1  0.03000800  0.97389700  0.55412600  1
  C  714  1  0.02756900  0.97317500  0.57548900  1
  C  715  1  0.99784700  0.95677000  0.58549300  1
  C  716  1  0.97034900  0.94160100  0.57315600  1
  C  717  1  0.97254600  0.94242300  0.55179000  1
  C  718  1  0.88413500  0.87401900  0.42729500  1
  C  719  1  0.85612700  0.86004300  0.41508800  1
  C  720  1  0.85281600  0.86955300  0.39436100  1
  C  721  1  0.87878800  0.89310100  0.38616100  1
  C  722  1  0.90690500  0.90702500  0.39829700  1
  C  734  1  0.98152800  0.94389300  0.45118100  1
  C  735  1  0.98061000  0.94307100  0.47263900  1
  C  736  1  0.00668000  0.96183200  0.48414800  1
  C  737  1  0.03376200  0.98159600  0.47398200  1
  C  738  1  0.03495000  0.98269600  0.45251200  1
  C  739  1  0.00872500  0.96377300  0.44121500  1
  C  744  1  0.93458800  0.91230500  0.43045600  1
  C  745  1  0.95708000  0.92688900  0.44055400  1
  C  746  1  0.08333200  0.01782940  0.43483000  1
  C  747  1  0.06010800  0.00105541  0.44314900  1
  C  748  1  0.00562300  0.96088400  0.50404400  1
  C  749  1  0.00428200  0.95979700  0.52220200  1
  C  750  1  0.82438300  0.85737000  0.38231100  1
  C  751  1  0.99361000  0.95681400  0.60668200  1
  C  752  1  0.19720000  0.09414640  0.40029100  1
  C  753  1  0.14481400  0.05373040  0.39643100  1
  C  757  1  0.50142000  0.46268400  0.04148560  1
  C  758  1  0.60905300  0.38693700  0.92624700  1
  C  759  1  0.40724000  0.52519800  0.91878500  1
  C  760  1  0.61605900  0.38843700  0.90516500  1
  C  761  1  0.66213000  0.34166500  0.90809900  1
  C  762  1  0.65516200  0.34062200  0.92924400  1
  C  763  1  0.62912200  0.36299300  0.93822600  1
  C  764  1  0.52917700  0.44729200  0.05337460  1
  C  765  1  0.52705400  0.44782800  0.07475260  1
  C  766  1  0.49746800  0.46413600  0.08493460  1
  C  767  1  0.46977400  0.47937600  0.07276660  1
  C  768  1  0.47165200  0.47873500  0.05139360  1
  C  769  1  0.38245900  0.54974600  0.92706200  1
  C  770  1  0.35540200  0.56531600  0.91476500  1
  C  771  1  0.35229000  0.55672200  0.89390200  1
  C  772  1  0.37748200  0.53230800  0.88574000  1
  C  773  1  0.40465600  0.51686400  0.89794000  1
  C  785  1  0.47911100  0.47772400  0.95059900  1
  C  786  1  0.47814100  0.47817100  0.97207200  1
  C  787  1  0.50487300  0.46018200  0.98353300  1
  C  788  1  0.53273600  0.44156000  0.97332200  1
  C  789  1  0.53411000  0.44081200  0.95185500  1
  C  790  1  0.50715700  0.45892900  0.94060900  1
  C  795  1  0.43175400  0.50963200  0.93016800  1
  C  796  1  0.45427500  0.49457900  0.94005700  1
  C  797  1  0.58357900  0.40643200  0.93455000  1
  C  798  1  0.55999700  0.42320900  0.94257100  1
  C  799  1  0.50390600  0.46088500  0.00344056  1
  C  800  1  0.50290000  0.46168600  0.02161060  1
  C  801  1  0.32399600  0.56928600  0.88179100  1
  C  802  1  0.49347000  0.46390200  0.10613100  1
  C  803  1  0.68656200  0.31796900  0.89943400  1
  C  804  1  0.64228200  0.36614000  0.89624500  1
  C  808  1  0.51197200  0.46211400  0.18448000  1
  C  809  1  0.40340200  0.38615400  0.30011300  1
  C  810  1  0.60613400  0.52049800  0.30724000  1
  C  811  1  0.39705800  0.38788700  0.32125200  1
  C  812  1  0.35115600  0.34092900  0.31886600  1
  C  813  1  0.35751400  0.33962000  0.29767400  1
  C  814  1  0.38317300  0.36198800  0.28838400  1
  C  815  1  0.48444400  0.44669100  0.17245700  1
  C  816  1  0.48688600  0.44733400  0.15110000  1
  C  817  1  0.51657000  0.46377100  0.14108000  1
  C  818  1  0.54406000  0.47901900  0.15338600  1
  C  819  1  0.54187400  0.47826500  0.17475000  1
  C  820  1  0.63059900  0.54493800  0.29863500  1
  C  821  1  0.65522200  0.56342600  0.31107300  1
  C  822  1  0.65590600  0.55793800  0.33234300  1
  C  823  1  0.63146800  0.53320100  0.34080300  1
  C  824  1  0.60694000  0.51454000  0.32839800  1
  C  836  1  0.53398500  0.47448100  0.27531900  1
  C  837  1  0.53486500  0.47561100  0.25387500  1
  C  838  1  0.50753600  0.45869000  0.24234000  1
  C  839  1  0.47919500  0.44055200  0.25244200  1
  C  840  1  0.47797200  0.43932500  0.27390400  1
  C  841  1  0.50548900  0.45634300  0.28525400  1
  C  846  1  0.58210200  0.50447800  0.29592700  1
  C  847  1  0.55934100  0.49011000  0.28593200  1
  C  848  1  0.42854300  0.40552800  0.29150300  1
  C  849  1  0.45195600  0.42206900  0.28320200  1
  C  850  1  0.50866700  0.45977200  0.22246900  1
  C  851  1  0.51011900  0.46092500  0.20432200  1
  C  852  1  0.67777100  0.57802800  0.34497100  1
  C  853  1  0.52070700  0.46374500  0.11989200  1
  C  854  1  0.32707500  0.31728300  0.32780600  1
  C  855  1  0.37117900  0.36561200  0.33047700  1
  C  859  1  0.51396500  0.95736600  0.18513600  1
  C  860  1  0.40549500  0.02862840  0.30050500  1
  C  861  1  0.60847200  0.89457900  0.30803100  1
  C  862  1  0.39864400  0.02665440  0.32158300  1
  C  863  1  0.35108800  0.07174840  0.31862600  1
  C  864  1  0.35782700  0.07316440  0.29747600  1
  C  865  1  0.38461700  0.05179340  0.28847800  1
  C  866  1  0.48614500  0.97310400  0.17346300  1
  C  867  1  0.48797600  0.97276300  0.15209200  1
  C  868  1  0.51729200  0.95628400  0.14176900  1
  C  869  1  0.54504900  0.94069500  0.15372900  1
  C  870  1  0.54348500  0.94117000  0.17509400  1
  C  871  1  0.63347100  0.87004900  0.29997300  1
  C  872  1  0.66032600  0.85476200  0.31249600  1
  C  873  1  0.66297200  0.86365000  0.33333333  1
  C  874  1  0.63746400  0.88796500  0.34128500  1
  C  875  1  0.61050500  0.90317300  0.32885500  1
  C  887  1  0.53728500  0.94169300  0.27580200  1
  C  888  1  0.53829600  0.94148000  0.25433700  1
  C  889  1  0.51135400  0.95935300  0.24298400  1
  C  890  1  0.48328300  0.97755000  0.25323600  1
  C  891  1  0.48200000  0.97792500  0.27468500  1
  C  892  1  0.50909200  0.96002800  0.28589000  1
  C  897  1  0.58430700  0.90995300  0.29641700  1
  C  898  1  0.56204400  0.92489600  0.28632800  1
  C  899  1  0.43166600  0.01035640  0.29219300  1
  C  900  1  0.45578500  0.99462000  0.28404100  1
  C  901  1  0.51212800  0.95880700  0.22312700  1
  C  902  1  0.51280900  0.95818200  0.20496800  1
  C  903  1  0.69102100  0.85126700  0.34566200  1
  C  904  1  0.52092800  0.95658300  0.12059400  1
  C  905  1  0.32716300  0.09559840  0.32728400  1
  C  906  1  0.37166900  0.04798340  0.33053400  1
  C  910  1  0.50111200  0.95790900  0.04257160  1
  C  911  1  0.61048600  0.02940340  0.92679600  1
  C  912  1  0.40658800  0.89931300  0.91964200  1
  C  913  1  0.61667500  0.02715540  0.90566600  1
  C  914  1  0.66427200  0.07224740  0.90806400  1
  C  915  1  0.65812100  0.07398040  0.92925600  1
  C  916  1  0.63162600  0.05271240  0.93856900  1
  C  917  1  0.52870800  0.97368500  0.05437660  1
  C  918  1  0.52654700  0.97325400  0.07572960  1
  C  919  1  0.49712800  0.95665200  0.08589260  1
  C  920  1  0.46957800  0.94104400  0.07379460  1
  C  921  1  0.47146100  0.94160600  0.05243560  1
  C  922  1  0.38208800  0.87477300  0.92809000  1
  C  923  1  0.35773200  0.85635600  0.91548500  1
  C  924  1  0.35744900  0.86204100  0.89423600  1
  C  925  1  0.38200600  0.88678300  0.88591300  1
  C  926  1  0.40625600  0.90541000  0.89849200  1
  C  938  1  0.47807500  0.94500400  0.95194100  1
  C  939  1  0.47716800  0.94405300  0.97337800  1
  C  940  1  0.50471500  0.96082400  0.98481200  1
  C  941  1  0.53325400  0.97854500  0.97468000  1
  C  942  1  0.53438000  0.97943500  0.95323400  1
  C  943  1  0.50672100  0.96268300  0.94191500  1
  C  948  1  0.43026800  0.91524100  0.93113900  1
  C  949  1  0.45277900  0.92948800  0.94133300  1
  C  950  1  0.58463900  0.01128340  0.93542800  1
  C  951  1  0.56070600  0.99579100  0.94387000  1
  C  952  1  0.50377500  0.95987600  0.00463256  1
  C  953  1  0.50264600  0.95890400  0.02277060  1
  C  954  1  0.33585900  0.84193300  0.88155500  1
  C  955  1  0.49335600  0.95675700  0.10705900  1
  C  956  1  0.68795000  0.09595240  0.89914200  1
  C  957  1  0.64336100  0.04839540  0.89640000  1
  C  961  1  0.25207000  0.41426600  0.47087100  1
  C  963  1  0.28059800  0.46624600  0.45885500  1
  C  965  1  0.23010100  0.47000000  0.48110500  1
  C  970  1  0.76179400  0.41462000  0.96894100  1
  C  972  1  0.73300900  0.46651700  0.98091600  1
  C  974  1  0.78351500  0.47039000  0.95866000  1
  C  979  1  0.25380100  0.82408400  0.96782100  1
  C  981  1  0.28299900  0.77232000  0.97950000  1
  C  983  1  0.22987700  0.76866500  0.95905500  1
  C  988  1  0.75097200  0.82106900  0.46700200  1
  C  990  1  0.73237700  0.76450800  0.45676200  1
  C  992  1  0.78367500  0.77096200  0.47820300  1
  C  997  1  0.75322000  0.32304900  0.97201000  1
  C  999  1  0.73228700  0.26621900  0.98092500  1
  C  1001  1  0.78517400  0.27254200  0.96072400  1
  C  1006  1  0.26140700  0.32279200  0.46717300  1
  C  1008  1  0.28261200  0.26614000  0.45802400  1
  C  1010  1  0.22979900  0.27200900  0.47832700  1
  C  1015  1  0.76125700  0.91173900  0.47195100  1
  C  1017  1  0.73246400  0.96368900  0.46037400  1
  C  1019  1  0.78550100  0.96701300  0.48091900  1
  C  1024  1  0.26257000  0.91503100  0.97210500  1
  C  1026  1  0.28074500  0.97183700  0.98202900  1
  C  1028  1  0.22930800  0.96478100  0.96074200  1
  C  1033  1  0.00024000  0.62068600  0.64835000  1
  C  1034  1  0.10720400  0.54708000  0.53324300  1
  C  1035  1  0.90824800  0.68576500  0.52550600  1
  C  1036  1  0.11389700  0.54914700  0.51216500  1
  C  1037  1  0.16192800  0.50453700  0.51507800  1
  C  1038  1  0.15517800  0.50287100  0.53621900  1
  C  1039  1  0.12821300  0.52399600  0.54524900  1
  C  1040  1  0.02798200  0.60478700  0.65999200  1
  C  1041  1  0.02608700  0.60506000  0.68135000  1
  C  1042  1  0.99681700  0.62165700  0.69164800  1
  C  1043  1  0.96913700  0.63740400  0.67970900  1
  C  1044  1  0.97074200  0.63697300  0.65835300  1
  C  1045  1  0.88309600  0.71030500  0.53339600  1
  C  1046  1  0.85620100  0.72513500  0.52073600  1
  C  1047  1  0.85381100  0.71570900  0.49997200  1
  C  1048  1  0.87953500  0.69149200  0.49217800  1
  C  1049  1  0.90651500  0.67674800  0.50474300  1
  C  1061  1  0.97805100  0.63740700  0.55782100  1
  C  1062  1  0.97690100  0.63759300  0.57926800  1
  C  1063  1  0.00310200  0.61874000  0.59060100  1
  C  1064  1  0.03051100  0.59959300  0.58039100  1
  C  1065  1  0.03183200  0.59925700  0.55895300  1
  C  1066  1  0.00553000  0.61813600  0.54771900  1
  C  1071  1  0.93208100  0.67038300  0.53724200  1
  C  1072  1  0.95394600  0.65497300  0.54733400  1
  C  1073  1  0.08125600  0.56552700  0.54156400  1
  C  1074  1  0.05747700  0.58179300  0.54964800  1
  C  1075  1  0.00224900  0.61927100  0.61041400  1
  C  1076  1  0.00146400  0.61990100  0.62855800  1
  C  1077  1  0.82544600  0.72699700  0.48763700  1
  C  1078  1  0.99324200  0.62141600  0.71280500  1
  C  1079  1  0.18645600  0.48138200  0.50634400  1
  C  1080  1  0.14103200  0.52809000  0.50319400  1
  C  1084  1  0.01368500  0.62044400  0.79070100  1
  C  1085  1  0.90595100  0.54651200  0.90584400  1
  C  1086  1  0.10635500  0.68136100  0.91412900  1
  C  1087  1  0.89964200  0.54885800  0.92695000  1
  C  1088  1  0.85152100  0.50430400  0.92444000  1
  C  1089  1  0.85793400  0.50232500  0.90328000  1
  C  1090  1  0.88476700  0.52329800  0.89402800  1
  C  1091  1  0.98603100  0.60450900  0.77901100  1
  C  1092  1  0.98801200  0.60483400  0.75765800  1
  C  1093  1  0.01730000  0.62149200  0.74741000  1
  C  1094  1  0.04492300  0.63722800  0.75939300  1
  C  1095  1  0.04321500  0.63677400  0.78074800  1
  C  1096  1  0.13211200  0.70506900  0.90605600  1
  C  1097  1  0.15996500  0.71866500  0.91847700  1
  C  1098  1  0.16278500  0.70884500  0.93918000  1
  C  1099  1  0.13652600  0.68538200  0.94716100  1
  C  1100  1  0.10855600  0.67180600  0.93480800  1
  C  1112  1  0.03507800  0.63619300  0.88138900  1
  C  1113  1  0.03646400  0.63675000  0.85995000  1
  C  1114  1  0.01019900  0.61830400  0.84843600  1
  C  1115  1  0.98252300  0.59921800  0.85846100  1
  C  1116  1  0.98101600  0.59857200  0.87989000  1
  C  1117  1  0.00735400  0.61702000  0.89130900  1
  C  1122  1  0.08168800  0.66720300  0.90246400  1
  C  1123  1  0.05942600  0.65290900  0.89211000  1
  C  1124  1  0.93168300  0.56486800  0.89731100  1
  C  1125  1  0.95533000  0.58109200  0.88909500  1
  C  1126  1  0.01134000  0.61899000  0.82862900  1
  C  1127  1  0.01232800  0.61966400  0.81049000  1
  C  1128  1  0.19100000  0.72080300  0.95141100  1
  C  1129  1  0.02092600  0.62130800  0.72625800  1
  C  1130  1  0.82709700  0.48133800  0.93337900  1
  C  1131  1  0.87265600  0.52792700  0.93614200  1
  C  1135  1  0.01214200  0.11585300  0.79144400  1
  C  1136  1  0.90598100  0.19326000  0.90715500  1
  C  1137  1  0.10418700  0.05104980  0.91393300  1
  C  1138  1  0.89897900  0.19150400  0.92822800  1
  C  1139  1  0.84730800  0.23252300  0.92480300  1
  C  1140  1  0.85475300  0.23411700  0.90369900  1
  C  1141  1  0.88363100  0.21490400  0.89498800  1
  C  1142  1  0.98450700  0.13114800  0.77943400  1
  C  1143  1  0.98684800  0.13047100  0.75806500  1
  C  1144  1  0.01655100  0.11413100  0.74800900  1
  C  1145  1  0.04411400  0.09895880  0.76029800  1
  C  1146  1  0.04201800  0.09973880  0.78166600  1
  C  1147  1  0.12915400  0.02654680  0.90578900  1
  C  1148  1  0.15623200  0.01133580  0.91820900  1
  C  1149  1  0.15906500  0.02032880  0.93901800  1
  C  1150  1  0.13362100  0.04458780  0.94706200  1
  C  1151  1  0.10646800  0.05968380  0.93474100  1
  C  1163  1  0.03374900  0.10022000  0.88218500  1
  C  1164  1  0.03447600  0.09974680  0.86072100  1
  C  1165  1  0.00849100  0.11889900  0.84937300  1
  C  1166  1  0.98165900  0.13872600  0.85969900  1
  C  1167  1  0.98062600  0.13954000  0.88117600  1
  C  1168  1  0.00678600  0.12020400  0.89231000  1
  C  1173  1  0.08003300  0.06674880  0.90244500  1
  C  1174  1  0.05793700  0.08240680  0.89259900  1
  C  1175  1  0.93218200  0.17473000  0.89882500  1
  C  1176  1  0.95551600  0.15790500  0.89062100  1
  C  1177  1  0.00930300  0.11810400  0.82947200  1
  C  1178  1  0.01045300  0.11706900  0.81130800  1
  C  1179  1  0.18771000  0.00887782  0.95113600  1
  C  1180  1  0.02073600  0.11425700  0.72681500  1
  C  1181  1  0.81723400  0.25050700  0.93270600  1
  C  1182  1  0.87007800  0.21084500  0.93688800  1
  C  1186  1  0.00245600  0.11612100  0.64836700  1
  C  1187  1  0.10934900  0.19386200  0.53264200  1
  C  1188  1  0.90963800  0.05535080  0.52531300  1
  C  1189  1  0.11613500  0.19186100  0.51155700  1
  C  1190  1  0.16754800  0.23326100  0.51465600  1
  C  1191  1  0.16030800  0.23504600  0.53578000  1
  C  1192  1  0.13167000  0.21576000  0.54465900  1
  C  1193  1  0.03000800  0.13144200  0.66042700  1
  C  1194  1  0.02756900  0.13072000  0.68179000  1
  C  1195  1  0.99784700  0.11431500  0.69179400  1
  C  1196  1  0.97034900  0.09914580  0.67945700  1
  C  1197  1  0.97254600  0.09996780  0.65809100  1
  C  1198  1  0.88413500  0.03156380  0.53359600  1
  C  1199  1  0.85612700  0.01758780  0.52138900  1
  C  1200  1  0.85281600  0.02709780  0.50066200  1
  C  1201  1  0.87878800  0.05064580  0.49246200  1
  C  1202  1  0.90690500  0.06456980  0.50459800  1
  C  1214  1  0.98152800  0.10143800  0.55748200  1
  C  1215  1  0.98061000  0.10061600  0.57894000  1
  C  1216  1  0.00668000  0.11937700  0.59044900  1
  C  1217  1  0.03376200  0.13914100  0.58028300  1
  C  1218  1  0.03495000  0.14024100  0.55881300  1
  C  1219  1  0.00872500  0.12131800  0.54751600  1
  C  1224  1  0.93458800  0.06984980  0.53675700  1
  C  1225  1  0.95708000  0.08443380  0.54685500  1
  C  1226  1  0.08333200  0.17537400  0.54113100  1
  C  1227  1  0.06010800  0.15860000  0.54945000  1
  C  1228  1  0.00562300  0.11842900  0.61034500  1
  C  1229  1  0.00428200  0.11734200  0.62850300  1
  C  1230  1  0.82438300  0.01491480  0.48861200  1
  C  1231  1  0.99361000  0.11435900  0.71298300  1
  C  1232  1  0.19720000  0.25169100  0.50659200  1
  C  1233  1  0.14481400  0.21127500  0.50273200  1
  C  1237  1  0.50142000  0.62022900  0.14778700  1
  C  1238  1  0.60905300  0.54448200  0.03254810  1
  C  1239  1  0.40724000  0.68274300  0.02508610  1
  C  1240  1  0.61605900  0.54598200  0.01146610  1
  C  1241  1  0.66213000  0.49921000  0.01440010  1
  C  1242  1  0.65516200  0.49816700  0.03554510  1
  C  1243  1  0.62912200  0.52053800  0.04452710  1
  C  1244  1  0.52917700  0.60483700  0.15967600  1
  C  1245  1  0.52705400  0.60537300  0.18105400  1
  C  1246  1  0.49746800  0.62168100  0.19123600  1
  C  1247  1  0.46977400  0.63692100  0.17906800  1
  C  1248  1  0.47165200  0.63628000  0.15769500  1
  C  1249  1  0.38245900  0.70729100  0.03336310  1
  C  1250  1  0.35540200  0.72286100  0.02106610  1
  C  1251  1  0.35229000  0.71426700  0.00020311  1
  C  1252  1  0.37748200  0.68985300  0.99204100  1
  C  1253  1  0.40465600  0.67440900  0.00424111  1
  C  1265  1  0.47911100  0.63526900  0.05690010  1
  C  1266  1  0.47814100  0.63571600  0.07837310  1
  C  1267  1  0.50487300  0.61772700  0.08983410  1
  C  1268  1  0.53273600  0.59910500  0.07962310  1
  C  1269  1  0.53411000  0.59835700  0.05815610  1
  C  1270  1  0.50715700  0.61647400  0.04691010  1
  C  1275  1  0.43175400  0.66717700  0.03646910  1
  C  1276  1  0.45427500  0.65212400  0.04635810  1
  C  1277  1  0.58357900  0.56397700  0.04085110  1
  C  1278  1  0.55999700  0.58075400  0.04887210  1
  C  1279  1  0.50390600  0.61843000  0.10974200  1
  C  1280  1  0.50290000  0.61923100  0.12791200  1
  C  1281  1  0.32399600  0.72683100  0.98809200  1
  C  1282  1  0.49347000  0.62144700  0.21243200  1
  C  1283  1  0.68656200  0.47551400  0.00573511  1
  C  1284  1  0.64228200  0.52368500  0.00254611  1
  C  1288  1  0.51197200  0.61965900  0.29078100  1
  C  1289  1  0.40340200  0.54369900  0.40641400  1
  C  1290  1  0.60613400  0.67804300  0.41354100  1
  C  1291  1  0.39705800  0.54543200  0.42755300  1
  C  1292  1  0.35115600  0.49847400  0.42516700  1
  C  1293  1  0.35751400  0.49716500  0.40397500  1
  C  1294  1  0.38317300  0.51953300  0.39468500  1
  C  1295  1  0.48444400  0.60423600  0.27875800  1
  C  1296  1  0.48688600  0.60487900  0.25740100  1
  C  1297  1  0.51657000  0.62131600  0.24738100  1
  C  1298  1  0.54406000  0.63656400  0.25968700  1
  C  1299  1  0.54187400  0.63581000  0.28105100  1
  C  1300  1  0.63059900  0.70248300  0.40493600  1
  C  1301  1  0.65522200  0.72097100  0.41737400  1
  C  1302  1  0.65590600  0.71548300  0.43864400  1
  C  1303  1  0.63146800  0.69074600  0.44710400  1
  C  1304  1  0.60694000  0.67208500  0.43469900  1
  C  1316  1  0.53398500  0.63202600  0.38162000  1
  C  1317  1  0.53486500  0.63315600  0.36017600  1
  C  1318  1  0.50753600  0.61623500  0.34864100  1
  C  1319  1  0.47919500  0.59809700  0.35874300  1
  C  1320  1  0.47797200  0.59687000  0.38020500  1
  C  1321  1  0.50548900  0.61388800  0.39155500  1
  C  1326  1  0.58210200  0.66202300  0.40222800  1
  C  1327  1  0.55934100  0.64765500  0.39223300  1
  C  1328  1  0.42854300  0.56307300  0.39780400  1
  C  1329  1  0.45195600  0.57961400  0.38950300  1
  C  1330  1  0.50866700  0.61731700  0.32877000  1
  C  1331  1  0.51011900  0.61847000  0.31062300  1
  C  1332  1  0.67777100  0.73557300  0.45127200  1
  C  1333  1  0.52070700  0.62129000  0.22619300  1
  C  1334  1  0.32707500  0.47482800  0.43410700  1
  C  1335  1  0.37117900  0.52315700  0.43677800  1
  C  1339  1  0.51396500  0.11491100  0.29143700  1
  C  1340  1  0.40549500  0.18617300  0.40680600  1
  C  1341  1  0.60847200  0.05212380  0.41433200  1
  C  1342  1  0.39864400  0.18419900  0.42788400  1
  C  1343  1  0.35108800  0.22929300  0.42492700  1
  C  1344  1  0.35782700  0.23070900  0.40377700  1
  C  1345  1  0.38461700  0.20933800  0.39477900  1
  C  1346  1  0.48614500  0.13064900  0.27976400  1
  C  1347  1  0.48797600  0.13030800  0.25839300  1
  C  1348  1  0.51729200  0.11382900  0.24807000  1
  C  1349  1  0.54504900  0.09823980  0.26003000  1
  C  1350  1  0.54348500  0.09871480  0.28139500  1
  C  1351  1  0.63347100  0.02759380  0.40627400  1
  C  1352  1  0.66032600  0.01230680  0.41879700  1
  C  1353  1  0.66297200  0.02119480  0.43964000  1
  C  1354  1  0.63746400  0.04550980  0.44758600  1
  C  1355  1  0.61050500  0.06071780  0.43515600  1
  C  1367  1  0.53728500  0.09923780  0.38210300  1
  C  1368  1  0.53829600  0.09902480  0.36063800  1
  C  1369  1  0.51135400  0.11689800  0.34928500  1
  C  1370  1  0.48328300  0.13509500  0.35953700  1
  C  1371  1  0.48200000  0.13547000  0.38098600  1
  C  1372  1  0.50909200  0.11757300  0.39219100  1
  C  1377  1  0.58430700  0.06749780  0.40271800  1
  C  1378  1  0.56204400  0.08244080  0.39262900  1
  C  1379  1  0.43166600  0.16790100  0.39849400  1
  C  1380  1  0.45578500  0.15216500  0.39034200  1
  C  1381  1  0.51212800  0.11635200  0.32942800  1
  C  1382  1  0.51280900  0.11572700  0.31126900  1
  C  1383  1  0.69102100  0.00881182  0.45196300  1
  C  1384  1  0.52092800  0.11412800  0.22689500  1
  C  1385  1  0.32716300  0.25314300  0.43358500  1
  C  1386  1  0.37166900  0.20552800  0.43683500  1
  C  1390  1  0.50111200  0.11545400  0.14887300  1
  C  1391  1  0.61048600  0.18694800  0.03309710  1
  C  1392  1  0.40658800  0.05685780  0.02594310  1
  C  1393  1  0.61667500  0.18470000  0.01196710  1
  C  1394  1  0.66427200  0.22979200  0.01436510  1
  C  1395  1  0.65812100  0.23152500  0.03555710  1
  C  1396  1  0.63162600  0.21025700  0.04487010  1
  C  1397  1  0.52870800  0.13123000  0.16067800  1
  C  1398  1  0.52654700  0.13079900  0.18203100  1
  C  1399  1  0.49712800  0.11419700  0.19219400  1
  C  1400  1  0.46957800  0.09858880  0.18009600  1
  C  1401  1  0.47146100  0.09915080  0.15873700  1
  C  1402  1  0.38208800  0.03231780  0.03439110  1
  C  1403  1  0.35773200  0.01390080  0.02178610  1
  C  1404  1  0.35744900  0.01958580  0.00053711  1
  C  1405  1  0.38200600  0.04432780  0.99221400  1
  C  1406  1  0.40625600  0.06295480  0.00479311  1
  C  1418  1  0.47807500  0.10254900  0.05824210  1
  C  1419  1  0.47716800  0.10159800  0.07967910  1
  C  1420  1  0.50471500  0.11836900  0.09111310  1
  C  1421  1  0.53325400  0.13609000  0.08098110  1
  C  1422  1  0.53438000  0.13698000  0.05953510  1
  C  1423  1  0.50672100  0.12022800  0.04821610  1
  C  1428  1  0.43026800  0.07278580  0.03744010  1
  C  1429  1  0.45277900  0.08703280  0.04763410  1
  C  1430  1  0.58463900  0.16882800  0.04172910  1
  C  1431  1  0.56070600  0.15333600  0.05017110  1
  C  1432  1  0.50377500  0.11742100  0.11093400  1
  C  1433  1  0.50264600  0.11644900  0.12907200  1
  C  1434  1  0.33585900  0.99947800  0.98785600  1
  C  1435  1  0.49335600  0.11430200  0.21336000  1
  C  1436  1  0.68795000  0.25349700  0.00544311  1
  C  1437  1  0.64336100  0.20594000  0.00270111  1
  N  2  1  0.27835800  0.11535400  0.24695500  1
  N  4  1  0.25630900  0.17045600  0.25709800  1
  N  6  1  0.22827400  0.11929000  0.26881500  1
  N  7  1  0.24748100  0.06491100  0.25995600  1
  N  8  1  0.20652000  0.17479400  0.27848400  1
  N  9  1  0.30555400  0.16899800  0.23594900  1
  N  11  1  0.73538900  0.11561300  0.76762900  1
  N  13  1  0.75721800  0.17078100  0.75742700  1
  N  15  1  0.78547900  0.11970800  0.74578900  1
  N  16  1  0.76668000  0.06534500  0.75449700  1
  N  17  1  0.80700600  0.17510000  0.73595800  1
  N  18  1  0.70789900  0.16929400  0.77851300  1
  N  20  1  0.28079200  0.49289900  0.76599400  1
  N  22  1  0.25712700  0.43782700  0.75711800  1
  N  24  1  0.22875300  0.48902300  0.74555300  1
  N  25  1  0.24928900  0.54316300  0.75368900  1
  N  26  1  0.20396800  0.43676800  0.73655400  1
  N  27  1  0.31001500  0.44261100  0.77743700  1
  N  29  1  0.72811500  0.48478500  0.24386000  1
  N  31  1  0.76026200  0.43521100  0.25487700  1
  N  33  1  0.77869100  0.49124500  0.26526000  1
  N  34  1  0.74568200  0.54011500  0.25285900  1
  N  35  1  0.81103700  0.44265300  0.27638600  1
  N  36  1  0.71028900  0.42931400  0.23352200  1
  N  38  1  0.72907100  0.98667200  0.76886500  1
  N  40  1  0.76057300  0.93684900  0.75792600  1
  N  42  1  0.78161000  0.99307100  0.74911200  1
  N  43  1  0.74753000  0.04202600  0.76152700  1
  N  44  1  0.81325300  0.94199800  0.73915100  1
  N  45  1  0.70901100  0.93028200  0.77792600  1
  N  47  1  0.28565100  0.98663000  0.24498100  1
  N  49  1  0.25446800  0.93654900  0.25582700  1
  N  51  1  0.23320100  0.99255600  0.26488900  1
  N  52  1  0.26672200  0.04187800  0.25265900  1
  N  53  1  0.20206500  0.94113100  0.27480900  1
  N  54  1  0.30606900  0.93022400  0.23593100  1
  N  56  1  0.73445400  0.61295800  0.24857200  1
  N  58  1  0.75836300  0.66785200  0.25762900  1
  N  60  1  0.78640600  0.61642400  0.26910800  1
  N  61  1  0.76523900  0.56238900  0.26066500  1
  N  62  1  0.81154700  0.66868200  0.27822200  1
  N  63  1  0.70559600  0.66318900  0.23717300  1
  N  65  1  0.28532100  0.62144500  0.76986700  1
  N  67  1  0.25266000  0.67061200  0.75874100  1
  N  69  1  0.23461300  0.61432400  0.74863200  1
  N  70  1  0.26846500  0.56593100  0.76127400  1
  N  71  1  0.20175900  0.66283200  0.73738300  1
  N  72  1  0.30272500  0.67709500  0.77993500  1
  N  482  1  0.27835800  0.27289800  0.35325700  1
  N  484  1  0.25630900  0.32800000  0.36340000  1
  N  486  1  0.22827400  0.27683400  0.37511700  1
  N  487  1  0.24748100  0.22245500  0.36625800  1
  N  488  1  0.20652000  0.33233800  0.38478600  1
  N  489  1  0.30555400  0.32654200  0.34225100  1
  N  491  1  0.73538900  0.27315700  0.87393100  1
  N  493  1  0.75721800  0.32832500  0.86372900  1
  N  495  1  0.78547900  0.27725200  0.85209100  1
  N  496  1  0.76668000  0.22288900  0.86079900  1
  N  497  1  0.80700600  0.33264400  0.84226000  1
  N  498  1  0.70789900  0.32683800  0.88481500  1
  N  500  1  0.28079200  0.65044300  0.87229600  1
  N  502  1  0.25712700  0.59537100  0.86342000  1
  N  504  1  0.22875300  0.64656700  0.85185500  1
  N  505  1  0.24928900  0.70070700  0.85999100  1
  N  506  1  0.20396800  0.59431200  0.84285600  1
  N  507  1  0.31001500  0.60015500  0.88373900  1
  N  509  1  0.72811500  0.64232900  0.35016200  1
  N  511  1  0.76026200  0.59275500  0.36117900  1
  N  513  1  0.77869100  0.64878900  0.37156200  1
  N  514  1  0.74568200  0.69765900  0.35916100  1
  N  515  1  0.81103700  0.60019700  0.38268800  1
  N  516  1  0.71028900  0.58685800  0.33982400  1
  N  518  1  0.72907100  0.14421600  0.87516700  1
  N  520  1  0.76057300  0.09439340  0.86422800  1
  N  522  1  0.78161000  0.15061500  0.85541400  1
  N  523  1  0.74753000  0.19957000  0.86782900  1
  N  524  1  0.81325300  0.09954240  0.84545300  1
  N  525  1  0.70901100  0.08782640  0.88422800  1
  N  527  1  0.28565100  0.14417400  0.35128300  1
  N  529  1  0.25446800  0.09409340  0.36212900  1
  N  531  1  0.23320100  0.15010000  0.37119100  1
  N  532  1  0.26672200  0.19942200  0.35896100  1
  N  533  1  0.20206500  0.09867540  0.38111100  1
  N  534  1  0.30606900  0.08776840  0.34223300  1
  N  536  1  0.73445400  0.77050200  0.35487400  1
  N  538  1  0.75836300  0.82539600  0.36393100  1
  N  540  1  0.78640600  0.77396800  0.37541000  1
  N  541  1  0.76523900  0.71993300  0.36696700  1
  N  542  1  0.81154700  0.82622600  0.38452400  1
  N  543  1  0.70559600  0.82073300  0.34347500  1
  N  545  1  0.28532100  0.77898900  0.87616900  1
  N  547  1  0.25266000  0.82815600  0.86504300  1
  N  549  1  0.23461300  0.77186800  0.85493400  1
  N  550  1  0.26846500  0.72347500  0.86757600  1
  N  551  1  0.20175900  0.82037600  0.84368500  1
  N  552  1  0.30272500  0.83463900  0.88623700  1
  N  962  1  0.27835800  0.43044300  0.45955800  1
  N  964  1  0.25630900  0.48554500  0.46970100  1
  N  966  1  0.22827400  0.43437900  0.48141800  1
  N  967  1  0.24748100  0.38000000  0.47255900  1
  N  968  1  0.20652000  0.48988300  0.49108700  1
  N  969  1  0.30555400  0.48408700  0.44855200  1
  N  971  1  0.73538900  0.43070200  0.98023200  1
  N  973  1  0.75721800  0.48587000  0.97003000  1
  N  975  1  0.78547900  0.43479700  0.95839200  1
  N  976  1  0.76668000  0.38043400  0.96710000  1
  N  977  1  0.80700600  0.49018900  0.94856100  1
  N  978  1  0.70789900  0.48438300  0.99111600  1
  N  980  1  0.28079200  0.80798800  0.97859700  1
  N  982  1  0.25712700  0.75291600  0.96972100  1
  N  984  1  0.22875300  0.80411200  0.95815600  1
  N  985  1  0.24928900  0.85825200  0.96629200  1
  N  986  1  0.20396800  0.75185700  0.94915700  1
  N  987  1  0.31001500  0.75770000  0.99004000  1
  N  989  1  0.72811500  0.79987400  0.45646300  1
  N  991  1  0.76026200  0.75030000  0.46748000  1
  N  993  1  0.77869100  0.80633400  0.47786300  1
  N  994  1  0.74568200  0.85520400  0.46546200  1
  N  995  1  0.81103700  0.75774200  0.48898900  1
  N  996  1  0.71028900  0.74440300  0.44612500  1
  N  998  1  0.72907100  0.30176100  0.98146800  1
  N  1000  1  0.76057300  0.25193800  0.97052900  1
  N  1002  1  0.78161000  0.30816000  0.96171500  1
  N  1003  1  0.74753000  0.35711500  0.97413000  1
  N  1004  1  0.81325300  0.25708700  0.95175400  1
  N  1005  1  0.70901100  0.24537100  0.99052900  1
  N  1007  1  0.28565100  0.30171900  0.45758400  1
  N  1009  1  0.25446800  0.25163800  0.46843000  1
  N  1011  1  0.23320100  0.30764500  0.47749200  1
  N  1012  1  0.26672200  0.35696700  0.46526200  1
  N  1013  1  0.20206500  0.25622000  0.48741200  1
  N  1014  1  0.30606900  0.24531300  0.44853400  1
  N  1016  1  0.73445400  0.92804700  0.46117500  1
  N  1018  1  0.75836300  0.98294100  0.47023200  1
  N  1020  1  0.78640600  0.93151300  0.48171100  1
  N  1021  1  0.76523900  0.87747800  0.47326800  1
  N  1022  1  0.81154700  0.98377100  0.49082500  1
  N  1023  1  0.70559600  0.97827800  0.44977600  1
  N  1025  1  0.28532100  0.93653400  0.98247000  1
  N  1027  1  0.25266000  0.98570100  0.97134400  1
  N  1029  1  0.23461300  0.92941300  0.96123500  1
  N  1030  1  0.26846500  0.88102000  0.97387700  1
  N  1031  1  0.20175900  0.97792100  0.94998600  1
  N  1032  1  0.30272500  0.99218400  0.99253800  1
