# generated using pymatgen
data_H48C53N8
_symmetry_space_group_name_H-M   'P 1'
_cell_length_a   30.71590000
_cell_length_b   43.38260000
_cell_length_c   43.38260000
_cell_angle_alpha   90.00000000
_cell_angle_beta   90.00110000
_cell_angle_gamma   90.00000000
_symmetry_Int_Tables_number   1
_chemical_formula_structural   H48C53N8
_chemical_formula_sum   'H384 C424 N64'
_cell_volume   57808.85905480
_cell_formula_units_Z   8
loop_
 _symmetry_equiv_pos_site_id
 _symmetry_equiv_pos_as_xyz
  1  'x, y, z'
loop_
 _atom_site_type_symbol
 _atom_site_label
 _atom_site_symmetry_multiplicity
 _atom_site_fract_x
 _atom_site_fract_y
 _atom_site_fract_z
 _atom_site_occupancy
  H  25  1  0.01235200  0.06124200  0.13854200  1
  H  26  1  0.00119600  0.08399700  0.08873100  1
  H  27  1  0.98274900  0.11758700  0.04169800  1
  H  28  1  0.97529600  0.15833800  0.00427300  1
  H  29  1  0.97870500  0.22463300  0.07575100  1
  H  30  1  0.98886600  0.14733700  0.18104600  1
  H  31  1  0.89110600  0.17371900  0.11621500  1
  H  32  1  0.86039200  0.25649900  0.16311100  1
  H  33  1  0.93590600  0.26438300  0.17433300  1
  H  34  1  0.07570700  0.17628600  0.12213600  1
  H  35  1  0.01839400  0.26586900  0.17653400  1
  H  36  1  0.09569000  0.25970300  0.17071700  1
  H  39  1  0.93887200  0.21910300  0.00492100  1
  H  40  1  0.97741900  0.24304900  0.02304600  1
  H  42  1  0.00684600  0.10486400  0.21344000  1
  H  43  1  0.04026100  0.07779400  0.19540800  1
  H  45  1  0.80971800  0.18783200  0.13783100  1
  H  46  1  0.82245400  0.20718500  0.10364700  1
  H  48  1  0.15072400  0.22854900  0.12414500  1
  H  49  1  0.15019000  0.19001400  0.13658700  1
  H  74  1  0.01225100  0.94003800  0.72732600  1
  H  75  1  0.00112800  0.91725700  0.77713900  1
  H  76  1  0.98282400  0.88364500  0.82417100  1
  H  77  1  0.97536200  0.84288900  0.86158700  1
  H  78  1  0.97873400  0.77660900  0.79009100  1
  H  79  1  0.98887300  0.85393200  0.68480900  1
  H  80  1  0.89112500  0.82753500  0.74957800  1
  H  81  1  0.86043400  0.74482200  0.70255600  1
  H  82  1  0.93597200  0.73693200  0.69138200  1
  H  83  1  0.07573400  0.82496500  0.74374900  1
  H  84  1  0.01846300  0.73541700  0.68927200  1
  H  85  1  0.09575400  0.74158500  0.69511200  1
  H  88  1  0.93890800  0.78210900  0.86090900  1
  H  89  1  0.97748800  0.75818000  0.84279600  1
  H  91  1  0.00674400  0.89641900  0.65241600  1
  H  92  1  0.04014900  0.92350900  0.67042800  1
  H  94  1  0.80973400  0.81345300  0.72786700  1
  H  95  1  0.82248000  0.79410700  0.76205200  1
  H  97  1  0.15079200  0.77275000  0.74170700  1
  H  98  1  0.15022300  0.81127900  0.72925300  1
  H  123  1  0.01218200  0.79498200  0.99345600  1
  H  124  1  0.00110200  0.84480900  0.01620300  1
  H  125  1  0.98291100  0.89187400  0.04982600  1
  H  126  1  0.97545600  0.92931100  0.09056500  1
  H  127  1  0.97892300  0.85785800  0.15688500  1
  H  128  1  0.98893800  0.75253200  0.07962400  1
  H  129  1  0.89131700  0.81734900  0.10601300  1
  H  130  1  0.86063900  0.77036400  0.18875000  1
  H  131  1  0.93617000  0.75915500  0.19661000  1
  H  132  1  0.07591700  0.81156500  0.10860600  1
  H  133  1  0.01864400  0.75708700  0.19815000  1
  H  134  1  0.09593000  0.76298300  0.19201700  1
  H  137  1  0.93906800  0.92867000  0.15135700  1
  H  138  1  0.97767000  0.91057300  0.17528200  1
  H  140  1  0.00665400  0.72009300  0.03713500  1
  H  141  1  0.04008700  0.73805400  0.01003000  1
  H  143  1  0.80990700  0.79570200  0.12013700  1
  H  144  1  0.82270100  0.82987900  0.13948000  1
  H  146  1  0.15093200  0.80957800  0.16087900  1
  H  147  1  0.15041800  0.79715600  0.12233900  1
  H  172  1  0.01224100  0.20626500  0.87240100  1
  H  173  1  0.00119200  0.15644600  0.84962700  1
  H  174  1  0.98301600  0.10940200  0.81600000  1
  H  175  1  0.97536200  0.07198100  0.77526700  1
  H  176  1  0.97866300  0.14344700  0.70895900  1
  H  177  1  0.98895700  0.24875900  0.78625300  1
  H  178  1  0.89128800  0.18389500  0.75981500  1
  H  179  1  0.86062000  0.23075600  0.67700700  1
  H  180  1  0.93614700  0.24196100  0.66914300  1
  H  181  1  0.07588300  0.18972900  0.75724300  1
  H  182  1  0.01859700  0.24405400  0.66761100  1
  H  183  1  0.09588400  0.23815300  0.67374200  1
  H  186  1  0.93883300  0.07261300  0.71453400  1
  H  187  1  0.97733800  0.09073100  0.69055100  1
  H  189  1  0.00677500  0.28116800  0.82875400  1
  H  190  1  0.04016700  0.26319100  0.85587400  1
  H  192  1  0.80988700  0.20546000  0.74565800  1
  H  193  1  0.82269100  0.17129100  0.72630000  1
  H  195  1  0.15089600  0.19164200  0.70494400  1
  H  196  1  0.15038400  0.20409800  0.74347300  1
  H  221  1  0.51998200  0.56222300  0.63541200  1
  H  222  1  0.50296100  0.58658100  0.58722400  1
  H  223  1  0.48134000  0.62121700  0.54275000  1
  H  224  1  0.47153100  0.66233000  0.50607800  1
  H  225  1  0.49168700  0.72805900  0.57672200  1
  H  226  1  0.51649800  0.64878800  0.68024100  1
  H  227  1  0.41023700  0.67654800  0.63407600  1
  H  228  1  0.39707500  0.76186100  0.68045100  1
  H  229  1  0.47438600  0.76945400  0.67800000  1
  H  230  1  0.59264400  0.67831400  0.60840400  1
  H  231  1  0.55503200  0.76872500  0.66938000  1
  H  232  1  0.62833000  0.76189100  0.65209000  1
  H  235  1  0.44452600  0.72379500  0.50560500  1
  H  236  1  0.48417300  0.74660800  0.52407400  1
  H  238  1  0.52996000  0.60401200  0.71105700  1
  H  239  1  0.55838500  0.57568300  0.69073400  1
  H  241  1  0.33861600  0.69112700  0.65271800  1
  H  242  1  0.33494400  0.73041300  0.64390100  1
  H  244  1  0.66002000  0.71058000  0.59173200  1
  H  245  1  0.67668600  0.69356600  0.62641300  1
  H  270  1  0.51993300  0.43898300  0.23041900  1
  H  271  1  0.50294800  0.41462700  0.27861400  1
  H  272  1  0.48137000  0.37998400  0.32309900  1
  H  273  1  0.47157700  0.33887100  0.35976800  1
  H  274  1  0.49171300  0.27314400  0.28912000  1
  H  275  1  0.51644000  0.35241800  0.18559600  1
  H  276  1  0.41023100  0.32468600  0.23176900  1
  H  277  1  0.39702300  0.23942100  0.18530700  1
  H  278  1  0.47433400  0.23181200  0.18773800  1
  H  279  1  0.59264400  0.32290400  0.25738300  1
  H  280  1  0.55498600  0.23249400  0.19641500  1
  H  281  1  0.62830000  0.23933300  0.21366900  1
  H  284  1  0.44454800  0.27740600  0.36022400  1
  H  285  1  0.48419600  0.25459100  0.34176100  1
  H  287  1  0.52987600  0.39719400  0.15477200  1
  H  288  1  0.55831400  0.42551900  0.17509200  1
  H  290  1  0.33861300  0.31015200  0.21310200  1
  H  291  1  0.33491100  0.27086700  0.22191400  1
  H  293  1  0.66004300  0.29063700  0.27402000  1
  H  294  1  0.67666900  0.30766000  0.23933600  1
  H  319  1  0.52008300  0.29813600  0.49449800  1
  H  320  1  0.50311100  0.34634200  0.51883700  1
  H  321  1  0.48149000  0.39083600  0.55346100  1
  H  322  1  0.47165500  0.42751500  0.59456500  1
  H  323  1  0.49169000  0.35686900  0.66031100  1
  H  324  1  0.51649500  0.25333200  0.58107000  1
  H  325  1  0.41028000  0.29947500  0.60868500  1
  H  326  1  0.39694800  0.25291000  0.69388500  1
  H  327  1  0.47424300  0.25536700  0.70157100  1
  H  328  1  0.59269300  0.32505900  0.61059900  1
  H  329  1  0.55494700  0.26395200  0.70089700  1
  H  330  1  0.62829000  0.28115000  0.69408200  1
  H  333  1  0.44454200  0.42796900  0.65601600  1
  H  334  1  0.48416600  0.40951200  0.67885500  1
  H  336  1  0.52998300  0.22250100  0.53631000  1
  H  337  1  0.55842800  0.24281200  0.50798300  1
  H  339  1  0.33867800  0.28065200  0.62306800  1
  H  340  1  0.33481700  0.28952600  0.66233000  1
  H  342  1  0.66011800  0.34156600  0.64283400  1
  H  343  1  0.67672500  0.30686300  0.62583600  1
  H  368  1  0.52009900  0.70304200  0.37135200  1
  H  369  1  0.50310400  0.65484300  0.34700500  1
  H  370  1  0.48145100  0.61036000  0.31237600  1
  H  371  1  0.47157400  0.57369300  0.27126500  1
  H  372  1  0.49161900  0.64434600  0.20553000  1
  H  373  1  0.51651100  0.74786000  0.28478700  1
  H  374  1  0.41027000  0.70172400  0.25718200  1
  H  375  1  0.39689600  0.74829100  0.17199000  1
  H  376  1  0.47418500  0.74582000  0.16427800  1
  H  377  1  0.59269300  0.67616100  0.25523900  1
  H  378  1  0.55489800  0.73728700  0.16496000  1
  H  379  1  0.62825500  0.72010000  0.17176500  1
  H  382  1  0.44445400  0.57324400  0.20982800  1
  H  383  1  0.48405900  0.59170700  0.18697600  1
  H  385  1  0.53003800  0.77868100  0.32955200  1
  H  386  1  0.55845700  0.75835900  0.35788400  1
  H  388  1  0.33865500  0.72051000  0.24279800  1
  H  389  1  0.33479700  0.71166600  0.20352700  1
  H  391  1  0.66011100  0.65966100  0.22299900  1
  H  392  1  0.67670800  0.69437300  0.23998100  1
  H  403  1  0.04527400  0.97134600  0.19680400  1
  H  404  1  0.03297800  0.02061800  0.22030500  1
  H  407  1  0.85260100  0.07057500  0.14311100  1
  H  408  1  0.82791000  0.04236000  0.12012000  1
  H  409  1  0.89981800  0.08756700  0.10013400  1
  H  410  1  0.84415300  0.08938500  0.08970000  1
  H  411  1  0.87717500  0.05905700  0.07557500  1
  H  414  1  0.89837500  0.98469700  0.07374100  1
  H  415  1  0.85181000  0.00600100  0.08351800  1
  H  416  1  0.82919600  0.96454400  0.12076700  1
  H  417  1  0.87467100  0.94218000  0.10880100  1
  H  418  1  0.83302200  0.95140500  0.08216200  1
  H  420  1  0.94444000  0.07128600  0.20557400  1
  H  422  1  0.03478600  0.93918800  0.15232000  1
  H  433  1  0.04501000  0.02997000  0.66896900  1
  H  434  1  0.03274200  0.98067400  0.64550800  1
  H  437  1  0.85255900  0.93064300  0.72286800  1
  H  438  1  0.82786100  0.95885700  0.74585400  1
  H  439  1  0.89985700  0.91371900  0.76582900  1
  H  440  1  0.84420800  0.91186300  0.77629500  1
  H  441  1  0.87720400  0.94222800  0.79038200  1
  H  444  1  0.89830700  0.01659800  0.79214300  1
  H  445  1  0.85175500  0.99525900  0.78241500  1
  H  446  1  0.82904300  0.03668100  0.74515800  1
  H  447  1  0.87450500  0.05908500  0.75707800  1
  H  448  1  0.83290100  0.04984500  0.78375000  1
  H  450  1  0.94430000  0.92995400  0.66034900  1
  H  452  1  0.03455800  0.06214800  0.71343400  1
  H  463  1  0.04502200  0.73659500  0.90361700  1
  H  464  1  0.03269600  0.71316200  0.95291700  1
  H  467  1  0.85252000  0.79061400  0.00283500  1
  H  468  1  0.82786100  0.81360100  0.97460000  1
  H  469  1  0.89987600  0.83355800  0.01973700  1
  H  470  1  0.84423700  0.84405500  0.02158700  1
  H  471  1  0.87724000  0.85810700  0.99121600  1
  H  474  1  0.89838200  0.85982000  0.91685500  1
  H  475  1  0.85180300  0.85011500  0.93817600  1
  H  476  1  0.82911200  0.81284200  0.89676300  1
  H  477  1  0.87460300  0.82473600  0.87437600  1
  H  478  1  0.83300200  0.85142700  0.88357800  1
  H  480  1  0.94421800  0.72808900  0.00360900  1
  H  482  1  0.03462300  0.78107800  0.87142600  1
  H  493  1  0.04501000  0.26464300  0.96227100  1
  H  494  1  0.03270200  0.28809000  0.91297300  1
  H  497  1  0.85259800  0.21061100  0.86296600  1
  H  498  1  0.82792300  0.18762000  0.89118900  1
  H  499  1  0.89997100  0.16767300  0.84607500  1
  H  500  1  0.84433500  0.15717400  0.84420300  1
  H  501  1  0.87731800  0.14311700  0.87458600  1
  H  504  1  0.89841800  0.14139300  0.94894400  1
  H  505  1  0.85184600  0.15109800  0.92761400  1
  H  506  1  0.82913100  0.18835600  0.96903600  1
  H  507  1  0.87461200  0.17645900  0.99143000  1
  H  508  1  0.83302200  0.14976900  0.98220700  1
  H  510  1  0.94428600  0.27314900  0.86223400  1
  H  512  1  0.03459800  0.22015600  0.99445000  1
  H  523  1  0.55530500  0.46998800  0.69673600  1
  H  524  1  0.54810700  0.52065600  0.71815500  1
  H  527  1  0.36604200  0.57325500  0.64464800  1
  H  528  1  0.33789400  0.54470000  0.62421600  1
  H  529  1  0.41033500  0.58672400  0.59903200  1
  H  530  1  0.35406100  0.58949200  0.59069800  1
  H  531  1  0.38439700  0.55763200  0.57693500  1
  H  534  1  0.40156700  0.48307400  0.57792600  1
  H  535  1  0.35697800  0.50614500  0.58829600  1
  H  536  1  0.33447800  0.46695500  0.62790200  1
  H  537  1  0.37777800  0.44275600  0.61546900  1
  H  538  1  0.33499900  0.45217400  0.58980300  1
  H  540  1  0.46265300  0.57412900  0.70353700  1
  H  542  1  0.54059600  0.43696100  0.65345400  1
  H  553  1  0.55521400  0.53123200  0.16907800  1
  H  554  1  0.54801600  0.48055900  0.14766200  1
  H  557  1  0.36599300  0.42794800  0.22120200  1
  H  558  1  0.33784500  0.45650100  0.24163600  1
  H  559  1  0.41030600  0.41449100  0.26681500  1
  H  560  1  0.35403800  0.41171400  0.27515700  1
  H  561  1  0.38436800  0.44358100  0.28891100  1
  H  564  1  0.40151900  0.51814100  0.28790700  1
  H  565  1  0.35693300  0.49506300  0.27754700  1
  H  566  1  0.33440300  0.53424400  0.23794300  1
  H  567  1  0.37770000  0.55845200  0.25036400  1
  H  568  1  0.33493700  0.54902900  0.27603900  1
  H  570  1  0.46257800  0.42708400  0.16229900  1
  H  572  1  0.54051200  0.56426100  0.21235600  1
  H  583  1  0.55532200  0.23673300  0.40226100  1
  H  584  1  0.54814300  0.21536200  0.45295200  1
  H  587  1  0.36613900  0.28896200  0.50552800  1
  H  588  1  0.33797500  0.30935500  0.47695400  1
  H  589  1  0.41043900  0.33460000  0.51892100  1
  H  590  1  0.35416800  0.34293500  0.52169800  1
  H  591  1  0.38448200  0.35665500  0.48980800  1
  H  594  1  0.40161300  0.35556900  0.41525000  1
  H  595  1  0.35704000  0.34522800  0.43834900  1
  H  596  1  0.33451100  0.30557200  0.39921800  1
  H  597  1  0.37779500  0.31797100  0.37499000  1
  H  598  1  0.33502500  0.34364900  0.38438700  1
  H  600  1  0.46268900  0.23002400  0.50641000  1
  H  602  1  0.54060300  0.28001300  0.36920400  1
  H  613  1  0.55532500  0.76444500  0.46360400  1
  H  614  1  0.54815600  0.78582700  0.41291300  1
  H  617  1  0.36614600  0.71226500  0.36030400  1
  H  618  1  0.33797500  0.69186500  0.38887000  1
  H  619  1  0.41042600  0.66666667  0.34689100  1
  H  620  1  0.35415500  0.65830100  0.34411300  1
  H  621  1  0.38446900  0.64456000  0.37599500  1
  H  624  1  0.40159700  0.64561800  0.45055700  1
  H  625  1  0.35702700  0.65597100  0.42746000  1
  H  626  1  0.33450800  0.69561300  0.46660600  1
  H  627  1  0.37778800  0.68320000  0.49083300  1
  H  628  1  0.33501200  0.65752900  0.48142100  1
  H  630  1  0.46272800  0.77117800  0.35943600  1
  H  632  1  0.54058300  0.72116500  0.49665400  1
  H  643  1  0.72569000  0.27197800  0.14285200  1
  H  644  1  0.68508200  0.28449700  0.18772700  1
  H  647  1  0.79395700  0.19816700  0.29754700  1
  H  648  1  0.83283600  0.17257600  0.28276100  1
  H  649  1  0.77303000  0.13669800  0.26563300  1
  H  650  1  0.73391300  0.16253100  0.28127000  1
  H  651  1  0.77161400  0.14377700  0.30585400  1
  H  654  1  0.85853600  0.15751200  0.19674200  1
  H  655  1  0.84779200  0.14594900  0.23468400  1
  H  656  1  0.90887800  0.19863000  0.21513300  1
  H  657  1  0.92500700  0.16172300  0.22832100  1
  H  658  1  0.89898100  0.18766500  0.25391100  1
  H  660  1  0.68210600  0.24121900  0.25477700  1
  H  662  1  0.80129200  0.25490200  0.12639400  1
  H  673  1  0.72582000  0.72922800  0.72286000  1
  H  674  1  0.68519300  0.71669100  0.67800000  1
  H  677  1  0.79292800  0.80340500  0.56817400  1
  H  678  1  0.83281000  0.82832800  0.58277000  1
  H  679  1  0.77424400  0.86504500  0.60043300  1
  H  680  1  0.73419700  0.83980500  0.58502800  1
  H  681  1  0.77204000  0.85810200  0.56021200  1
  H  684  1  0.85830200  0.84395800  0.66889300  1
  H  685  1  0.84781200  0.85532700  0.63085400  1
  H  686  1  0.90862700  0.80265800  0.65081900  1
  H  687  1  0.92493200  0.83948200  0.63750300  1
  H  688  1  0.89893900  0.81346500  0.61197000  1
  H  690  1  0.68208300  0.76000300  0.61095500  1
  H  692  1  0.80136700  0.74638000  0.73930500  1
  H  703  1  0.72592100  0.79078000  0.20429600  1
  H  704  1  0.68518300  0.74595600  0.21680100  1
  H  707  1  0.79335500  0.63601300  0.13035700  1
  H  708  1  0.83279700  0.65066000  0.10512100  1
  H  709  1  0.77369100  0.66809700  0.06877300  1
  H  710  1  0.73404000  0.65262100  0.09428900  1
  H  711  1  0.77179600  0.62787900  0.07579900  1
  H  714  1  0.85858800  0.73669600  0.08977500  1
  H  715  1  0.84790600  0.69871300  0.07831200  1
  H  716  1  0.90884200  0.71842000  0.13101500  1
  H  717  1  0.92507200  0.70514700  0.09416100  1
  H  718  1  0.89898700  0.67961400  0.12012800  1
  H  720  1  0.68201800  0.67891700  0.17352800  1
  H  722  1  0.80159500  0.80712600  0.18722200  1
  H  733  1  0.72592100  0.21043900  0.66148500  1
  H  734  1  0.68521500  0.25527500  0.64898200  1
  H  737  1  0.79298700  0.36515600  0.73561900  1
  H  738  1  0.83286500  0.35057600  0.76054900  1
  H  739  1  0.77430900  0.33290300  0.79726600  1
  H  740  1  0.73425500  0.34829600  0.77202000  1
  H  741  1  0.77208900  0.37312400  0.79031400  1
  H  744  1  0.85853900  0.26447700  0.77609900  1
  H  745  1  0.84797200  0.30249000  0.78750900  1
  H  746  1  0.90876700  0.28265000  0.73478400  1
  H  747  1  0.92508800  0.29594600  0.77160800  1
  H  748  1  0.89900700  0.32147700  0.74563600  1
  H  750  1  0.68206100  0.32230400  0.69228900  1
  H  752  1  0.80154600  0.19405600  0.67857300  1
  H  763  1  0.24166300  0.74334400  0.13152800  1
  H  764  1  0.31053900  0.74233500  0.15748200  1
  H  767  1  0.24521800  0.79523800  0.30292400  1
  H  768  1  0.19823800  0.81811200  0.30132200  1
  H  769  1  0.23954500  0.85940200  0.27314300  1
  H  770  1  0.28766300  0.83682900  0.27627100  1
  H  771  1  0.26187300  0.85109300  0.30989300  1
  H  774  1  0.11646700  0.82048100  0.23505000  1
  H  775  1  0.14545600  0.83615100  0.26606000  1
  H  776  1  0.10196500  0.77224800  0.26416300  1
  H  777  1  0.08249700  0.80510200  0.28415200  1
  H  778  1  0.13115800  0.78688700  0.29632300  1
  H  780  1  0.34876100  0.77528600  0.20555200  1
  H  782  1  0.16359700  0.74642600  0.13591500  1
  H  793  1  0.24157200  0.25793500  0.73428200  1
  H  794  1  0.31048800  0.25891500  0.70838100  1
  H  797  1  0.24574000  0.20566600  0.56305400  1
  H  798  1  0.19836600  0.18319800  0.56446200  1
  H  799  1  0.23874700  0.14152700  0.59276400  1
  H  800  1  0.28725600  0.16371200  0.58989900  1
  H  801  1  0.26157200  0.14969700  0.55613200  1
  H  804  1  0.11665500  0.18048100  0.63078900  1
  H  805  1  0.14559200  0.16500100  0.59966000  1
  H  806  1  0.10193700  0.22883500  0.60191300  1
  H  807  1  0.08250800  0.19604800  0.58179400  1
  H  808  1  0.13109700  0.21438100  0.56965200  1
  H  810  1  0.34879300  0.22591600  0.66038500  1
  H  812  1  0.16351500  0.25482600  0.72984300  1
  H  823  1  0.24135000  0.19907800  0.19036400  1
  H  824  1  0.31033000  0.22489900  0.19131300  1
  H  827  1  0.24561300  0.37040900  0.13834200  1
  H  828  1  0.19845600  0.36895200  0.11564400  1
  H  829  1  0.23927900  0.34066400  0.07418500  1
  H  830  1  0.28757800  0.34362200  0.09658800  1
  H  831  1  0.26191900  0.37733600  0.08243300  1
  H  834  1  0.11648000  0.30279900  0.11322400  1
  H  835  1  0.14554200  0.33379100  0.09758500  1
  H  836  1  0.10205200  0.33188200  0.16148800  1
  H  837  1  0.08263500  0.35193100  0.12865500  1
  H  838  1  0.13133100  0.36401900  0.14688000  1
  H  840  1  0.34869600  0.27281200  0.15833900  1
  H  842  1  0.16328100  0.20363100  0.18732800  1
  H  853  1  0.24137000  0.80219700  0.67543800  1
  H  854  1  0.31035200  0.77637600  0.67447800  1
  H  857  1  0.24587300  0.63095100  0.72764500  1
  H  858  1  0.19852400  0.63231800  0.75014200  1
  H  859  1  0.23890600  0.66065400  0.79178900  1
  H  860  1  0.28739400  0.65782400  0.76957800  1
  H  861  1  0.26177600  0.62404100  0.78360800  1
  H  864  1  0.11664400  0.69854300  0.75279700  1
  H  865  1  0.14566600  0.66747100  0.76831200  1
  H  866  1  0.10200900  0.66959600  0.70447300  1
  H  867  1  0.08263500  0.64948400  0.73728300  1
  H  868  1  0.13125700  0.63738900  0.71896300  1
  H  870  1  0.34874500  0.72849500  0.70746600  1
  H  872  1  0.16330800  0.79765400  0.67851600  1
  C  1  1  0.01876200  0.19907500  0.13701000  1
  C  2  1  0.00236200  0.22449600  0.15311400  1
  C  3  1  0.95715600  0.22340700  0.15238900  1
  C  4  1  0.94430900  0.19716300  0.13600200  1
  C  5  1  0.89985300  0.19223200  0.12945400  1
  C  6  1  0.86813700  0.21408500  0.13886700  1
  C  7  1  0.88209700  0.24014700  0.15603900  1
  C  8  1  0.92635100  0.24488200  0.16297300  1
  C  9  1  0.03042100  0.24686400  0.16551600  1
  C  10  1  0.07562300  0.24309100  0.16191600  1
  C  11  1  0.09322000  0.21676000  0.14697400  1
  C  12  1  0.06415000  0.19487700  0.13409900  1
  C  13  1  0.98542800  0.14706000  0.13255800  1
  C  14  1  0.98813400  0.12872600  0.10606900  1
  C  15  1  0.98502100  0.14757600  0.08025300  1
  C  16  1  0.98329600  0.17826200  0.09005600  1
  C  17  1  0.98253700  0.14005900  0.04877900  1
  C  18  1  0.97805400  0.16399800  0.02708600  1
  C  19  1  0.97784200  0.19536900  0.03637500  1
  C  20  1  0.98036900  0.20231600  0.06824700  1
  C  21  1  0.98973500  0.13350900  0.16196900  1
  C  22  1  0.99856500  0.10150000  0.16476400  1
  C  23  1  0.00308400  0.08381700  0.13744200  1
  C  24  1  0.99686500  0.09700300  0.10813900  1
  C  37  1  0.98280400  0.18017500  0.12420800  1
  C  38  1  0.97253200  0.22017800  0.01296700  1
  C  41  1  0.00723000  0.08719600  0.19547700  1
  C  44  1  0.82203400  0.20962600  0.12873500  1
  C  47  1  0.14118900  0.21352000  0.14317500  1
  C  50  1  0.01879900  0.80217700  0.72885500  1
  C  51  1  0.00241200  0.77676600  0.71272600  1
  C  52  1  0.95720800  0.77786000  0.71341700  1
  C  53  1  0.94434800  0.80408500  0.72983300  1
  C  54  1  0.89987300  0.80907600  0.73626600  1
  C  55  1  0.86817000  0.78721700  0.72683600  1
  C  56  1  0.88214000  0.76115800  0.70966300  1
  C  57  1  0.92640600  0.75640200  0.70279200  1
  C  58  1  0.03048100  0.75440600  0.70032500  1
  C  59  1  0.07568100  0.75818700  0.70392900  1
  C  60  1  0.09326900  0.78451100  0.71888600  1
  C  61  1  0.06418500  0.80637600  0.73177800  1
  C  62  1  0.98547000  0.85419100  0.73329800  1
  C  63  1  0.98816300  0.87252100  0.75979300  1
  C  64  1  0.98503400  0.85366700  0.78560500  1
  C  65  1  0.98326300  0.82298500  0.77579500  1
  C  66  1  0.98255700  0.86117700  0.81708100  1
  C  67  1  0.97809600  0.83723200  0.83877100  1
  C  68  1  0.97788100  0.80586200  0.82947500  1
  C  69  1  0.98039200  0.79892400  0.79760100  1
  C  70  1  0.98975200  0.86775400  0.70389000  1
  C  71  1  0.99853500  0.89977100  0.70110100  1
  C  72  1  0.00304300  0.91745100  0.72842400  1
  C  73  1  0.99690400  0.90424300  0.75772300  1
  C  86  1  0.98283000  0.82107600  0.74164300  1
  C  87  1  0.97257500  0.78104800  0.85287600  1
  C  90  1  0.00713100  0.91408300  0.67038200  1
  C  93  1  0.82206300  0.79166300  0.73696600  1
  C  96  1  0.14123700  0.78776800  0.72267400  1
  C  99  1  0.01898500  0.79660800  0.13135800  1
  C  100  1  0.00259900  0.78043500  0.15673900  1
  C  101  1  0.95739000  0.78116600  0.15566300  1
  C  102  1  0.94453100  0.79756200  0.12942600  1
  C  103  1  0.90006200  0.80406000  0.12449000  1
  C  104  1  0.86836200  0.79463900  0.14635200  1
  C  105  1  0.88233800  0.77746600  0.17240700  1
  C  106  1  0.92660200  0.77056700  0.17714200  1
  C  107  1  0.03066400  0.76812400  0.17915200  1
  C  108  1  0.07586100  0.77176300  0.17539400  1
  C  109  1  0.09345300  0.78672100  0.14907000  1
  C  110  1  0.06437100  0.79957600  0.12718500  1
  C  111  1  0.98573100  0.80102600  0.07934100  1
  C  112  1  0.98830900  0.82750500  0.06098500  1
  C  113  1  0.98517100  0.85332600  0.07982600  1
  C  114  1  0.98342900  0.84353400  0.11051600  1
  C  115  1  0.98266400  0.88479700  0.07229900  1
  C  116  1  0.97821000  0.90650000  0.09623200  1
  C  117  1  0.97802800  0.89722400  0.12760800  1
  C  118  1  0.98055400  0.86535400  0.13456500  1
  C  119  1  0.98987500  0.77160200  0.06578800  1
  C  120  1  0.99856100  0.76878800  0.03376200  1
  C  121  1  0.00306400  0.79609600  0.01605900  1
  C  122  1  0.99698900  0.82540900  0.02925800  1
  C  135  1  0.98301900  0.80938200  0.11244800  1
  C  136  1  0.97273800  0.92064100  0.15240900  1
  C  139  1  0.00707200  0.73805000  0.01946100  1
  C  142  1  0.82226200  0.80479300  0.14192200  1
  C  145  1  0.14141800  0.79055000  0.14584000  1
  C  148  1  0.01894700  0.20466200  0.73447900  1
  C  149  1  0.00255900  0.22079800  0.70907500  1
  C  150  1  0.95735100  0.22007400  0.71016200  1
  C  151  1  0.94447900  0.20379000  0.73647000  1
  C  152  1  0.90002600  0.19717900  0.74133300  1
  C  153  1  0.86833600  0.20654100  0.71943900  1
  C  154  1  0.88230900  0.22369800  0.69337300  1
  C  155  1  0.92656900  0.23060200  0.68864100  1
  C  156  1  0.03062000  0.23306400  0.68663500  1
  C  157  1  0.07581700  0.22941300  0.69038600  1
  C  158  1  0.09341300  0.21450200  0.71673600  1
  C  159  1  0.06433300  0.20168900  0.73864700  1
  C  160  1  0.98569800  0.20026300  0.78651100  1
  C  161  1  0.98849800  0.17377300  0.80483600  1
  C  162  1  0.98519400  0.14795600  0.78600600  1
  C  163  1  0.98335100  0.15775800  0.75532100  1
  C  164  1  0.98268000  0.11648600  0.79353000  1
  C  165  1  0.97811600  0.09479200  0.76960100  1
  C  166  1  0.97784200  0.10407600  0.73822600  1
  C  167  1  0.98041800  0.13594400  0.73127000  1
  C  168  1  0.98999200  0.22967300  0.80006500  1
  C  169  1  0.99866200  0.23247600  0.83209400  1
  C  170  1  0.00315200  0.20515900  0.84979000  1
  C  171  1  0.99709000  0.17585100  0.83657700  1
  C  184  1  0.98297700  0.19191300  0.75340300  1
  C  185  1  0.97249000  0.08065900  0.71343100  1
  C  188  1  0.00716600  0.26320200  0.84642000  1
  C  191  1  0.82223900  0.19637900  0.72386800  1
  C  194  1  0.14137900  0.21068100  0.71996600  1
  C  197  1  0.54210100  0.70132500  0.63188300  1
  C  198  1  0.53149700  0.72742300  0.64925400  1
  C  199  1  0.48707700  0.72725000  0.65501600  1
  C  200  1  0.46876700  0.70082500  0.64178500  1
  C  201  1  0.42347800  0.69565000  0.64421100  1
  C  202  1  0.39652400  0.71755500  0.65932700  1
  C  203  1  0.41586300  0.74493900  0.67083700  1
  C  204  1  0.46108400  0.74960700  0.66948400  1
  C  205  1  0.56310300  0.74949900  0.65701800  1
  C  206  1  0.60607700  0.74528500  0.64668200  1
  C  207  1  0.61801600  0.71914600  0.62890800  1
  C  208  1  0.58539700  0.69702400  0.62180800  1
  C  209  1  0.50505500  0.64979100  0.63235500  1
  C  210  1  0.49980300  0.63171200  0.60587400  1
  C  211  1  0.49185600  0.65089900  0.58088300  1
  C  212  1  0.49371500  0.68152200  0.59089800  1
  C  213  1  0.48320300  0.64362700  0.54990500  1
  C  214  1  0.47736900  0.66777900  0.52865400  1
  C  215  1  0.48141900  0.69904300  0.53781900  1
  C  216  1  0.48906900  0.70574400  0.56936900  1
  C  217  1  0.51296900  0.63539800  0.66100700  1
  C  218  1  0.51707100  0.60280900  0.66283300  1
  C  219  1  0.51449300  0.58542800  0.63522300  1
  C  220  1  0.50497300  0.59954900  0.60684500  1
  C  233  1  0.50235900  0.68311500  0.62459800  1
  C  234  1  0.47796800  0.72382500  0.51417600  1
  C  237  1  0.52668500  0.58698900  0.69263500  1
  C  240  1  0.34821100  0.71405400  0.66062500  1
  C  243  1  0.66299200  0.71460500  0.61652600  1
  C  246  1  0.54208100  0.29988800  0.23392800  1
  C  247  1  0.53146800  0.27379900  0.21654800  1
  C  248  1  0.48704100  0.27396700  0.21080700  1
  C  249  1  0.46873500  0.30036000  0.22410200  1
  C  250  1  0.42346200  0.30558100  0.22162700  1
  C  251  1  0.39649500  0.28370100  0.20648500  1
  C  252  1  0.41582100  0.25632400  0.19495000  1
  C  253  1  0.46103500  0.25163600  0.19631200  1
  C  254  1  0.56308000  0.25173900  0.20874200  1
  C  255  1  0.60605100  0.25593700  0.21908700  1
  C  256  1  0.61800300  0.28207400  0.23686100  1
  C  257  1  0.58538400  0.30418700  0.24398800  1
  C  258  1  0.50501500  0.35141700  0.23348100  1
  C  259  1  0.49978700  0.36949400  0.25996600  1
  C  260  1  0.49187600  0.35030600  0.28496200  1
  C  261  1  0.49374800  0.31968400  0.27494600  1
  C  262  1  0.48323500  0.35757700  0.31594200  1
  C  263  1  0.47743000  0.33342200  0.33719700  1
  C  264  1  0.48146700  0.30215800  0.32802500  1
  C  265  1  0.48911500  0.29546000  0.29647800  1
  C  266  1  0.51288100  0.36581000  0.20482500  1
  C  267  1  0.51700300  0.39839900  0.20300000  1
  C  268  1  0.51443700  0.41578000  0.23061100  1
  C  269  1  0.50494400  0.40165700  0.25899100  1
  C  282  1  0.50234600  0.31809100  0.24124400  1
  C  283  1  0.47799700  0.27737200  0.35166400  1
  C  286  1  0.52660700  0.41421700  0.17319600  1
  C  289  1  0.34818800  0.28722400  0.20519000  1
  C  292  1  0.66299200  0.28661700  0.24922600  1
  C  295  1  0.54207100  0.30168300  0.63362600  1
  C  296  1  0.53143500  0.28423600  0.65966400  1
  C  297  1  0.48700500  0.27851300  0.65946700  1
  C  298  1  0.46873100  0.29185000  0.63308500  1
  C  299  1  0.42347800  0.28933300  0.62780100  1
  C  300  1  0.39648500  0.27414200  0.64963000  1
  C  301  1  0.41576200  0.26259800  0.67701900  1
  C  302  1  0.46097000  0.26397500  0.68175400  1
  C  303  1  0.56304100  0.27635500  0.68170300  1
  C  304  1  0.60604100  0.28663600  0.67750100  1
  C  305  1  0.61802500  0.30443800  0.65138900  1
  C  306  1  0.58542300  0.31162000  0.62928100  1
  C  307  1  0.50508400  0.30122000  0.58205600  1
  C  308  1  0.49987500  0.32770300  0.56397000  1
  C  309  1  0.49195700  0.35270400  0.58315100  1
  C  310  1  0.49378700  0.34269000  0.61377600  1
  C  311  1  0.48333600  0.38368400  0.57587100  1
  C  312  1  0.47750200  0.40494100  0.60001900  1
  C  313  1  0.48149700  0.39577400  0.63128700  1
  C  314  1  0.48912800  0.36422700  0.63799300  1
  C  315  1  0.51295300  0.27255900  0.56767200  1
  C  316  1  0.51710700  0.27072800  0.53508800  1
  C  317  1  0.51456100  0.29833400  0.51769900  1
  C  318  1  0.50502500  0.32671600  0.53180800  1
  C  331  1  0.50237500  0.30898800  0.61537800  1
  C  332  1  0.47799000  0.41941500  0.65607100  1
  C  335  1  0.52671800  0.24091900  0.51928000  1
  C  338  1  0.34818800  0.27278900  0.64602700  1
  C  341  1  0.66303100  0.31677000  0.64686800  1
  C  344  1  0.54204500  0.69951100  0.23220900  1
  C  345  1  0.53139300  0.71694700  0.20616700  1
  C  346  1  0.48697300  0.72270700  0.20639400  1
  C  347  1  0.46871500  0.70937700  0.23278600  1
  C  348  1  0.42345800  0.71187500  0.23807100  1
  C  349  1  0.39645600  0.72706100  0.21624300  1
  C  350  1  0.41572300  0.73861700  0.18885600  1
  C  351  1  0.46093400  0.73727500  0.18413000  1
  C  352  1  0.56300200  0.72487800  0.18415100  1
  C  353  1  0.60600200  0.71458400  0.18833500  1
  C  354  1  0.61799600  0.69677500  0.21444000  1
  C  355  1  0.58539700  0.68956900  0.23654100  1
  C  356  1  0.50509700  0.69997400  0.28379300  1
  C  357  1  0.49987200  0.67349100  0.30187400  1
  C  358  1  0.49192800  0.64849700  0.28269100  1
  C  359  1  0.49374800  0.65851300  0.25206900  1
  C  360  1  0.48329400  0.61751500  0.28996600  1
  C  361  1  0.47746300  0.59626200  0.26581600  1
  C  362  1  0.48142500  0.60543600  0.23455000  1
  C  363  1  0.48906600  0.63698600  0.22784700  1
  C  364  1  0.51300200  0.72862600  0.29818000  1
  C  365  1  0.51713300  0.73045900  0.33076900  1
  C  366  1  0.51456800  0.70285100  0.34815100  1
  C  367  1  0.50502900  0.67447100  0.33403900  1
  C  380  1  0.50235900  0.69221300  0.25047100  1
  C  381  1  0.47790200  0.58180300  0.20976100  1
  C  384  1  0.52675700  0.76026100  0.34657900  1
  C  387  1  0.34815900  0.72839400  0.21984500  1
  C  390  1  0.66301200  0.68445700  0.21895700  1
  C  393  1  0.99398700  0.97445500  0.16423300  1
  C  394  1  0.96013800  0.99396600  0.15379200  1
  C  395  1  0.95231500  0.02282200  0.16806800  1
  C  396  1  0.97950000  0.03326300  0.19224800  1
  C  397  1  0.01284600  0.01357200  0.20288800  1
  C  398  1  0.02006600  0.98467100  0.18907500  1
  C  400  1  0.89305600  0.03225800  0.13298500  1
  C  401  1  0.90098000  0.00336900  0.11854100  1
  C  405  1  0.85852300  0.05451400  0.12411600  1
  C  406  1  0.87083600  0.07379100  0.09545500  1
  C  412  1  0.87584600  0.98989700  0.09254600  1
  C  413  1  0.85167000  0.96002600  0.10177500  1
  C  423  1  0.99377900  0.02684800  0.70158100  1
  C  424  1  0.95997900  0.00731800  0.71206400  1
  C  425  1  0.95217500  0.97844500  0.69781400  1
  C  426  1  0.97934300  0.96800400  0.67362700  1
  C  427  1  0.01265700  0.98770500  0.66296000  1
  C  428  1  0.01982900  0.01663500  0.67672100  1
  C  430  1  0.89297400  0.96899500  0.73294200  1
  C  431  1  0.90087200  0.99790300  0.74735600  1
  C  435  1  0.85848400  0.94672100  0.74184800  1
  C  436  1  0.87085900  0.92747300  0.77051400  1
  C  442  1  0.87576200  0.01137400  0.77336100  1
  C  443  1  0.85153000  0.04122400  0.76413100  1
  C  453  1  0.99379800  0.76921600  0.90669300  1
  C  454  1  0.95998200  0.77971600  0.92620300  1
  C  455  1  0.95213600  0.76547800  0.95507600  1
  C  456  1  0.97929100  0.74129500  0.96554600  1
  C  457  1  0.01261200  0.73060200  0.94586300  1
  C  458  1  0.01984900  0.74437500  0.91694400  1
  C  460  1  0.89296500  0.80064100  0.96448700  1
  C  461  1  0.90090500  0.81504100  0.93557600  1
  C  465  1  0.85847400  0.80958100  0.98674600  1
  C  466  1  0.87088100  0.83825300  0.00597900  1
  C  472  1  0.87582000  0.84104500  0.92207800  1
  C  473  1  0.85161100  0.83180600  0.89222000  1
  C  483  1  0.99380800  0.23200800  0.95915900  1
  C  484  1  0.96000500  0.22150800  0.93963900  1
  C  485  1  0.95217500  0.23574900  0.91076800  1
  C  486  1  0.97931700  0.25995000  0.90031900  1
  C  487  1  0.01262500  0.27064100  0.92001400  1
  C  488  1  0.01983800  0.25687300  0.94893800  1
  C  490  1  0.89301700  0.20058100  0.90132800  1
  C  491  1  0.90094100  0.18617700  0.93023800  1
  C  495  1  0.85854300  0.19164200  0.87905500  1
  C  496  1  0.87096600  0.16297600  0.85982200  1
  C  502  1  0.87585600  0.16016600  0.94372200  1
  C  503  1  0.85163100  0.16939400  0.97357500  1
  C  513  1  0.50216000  0.47341300  0.66574400  1
  C  514  1  0.46909900  0.49366100  0.65545400  1
  C  515  1  0.46436900  0.52347000  0.66845400  1
  C  516  1  0.49398900  0.53409700  0.69110200  1
  C  517  1  0.52638600  0.51360700  0.70172400  1
  C  518  1  0.53054000  0.48382800  0.68919800  1
  C  520  1  0.40331900  0.53323700  0.63499300  1
  C  521  1  0.40831000  0.50345500  0.62174600  1
  C  525  1  0.36945400  0.55608700  0.62632300  1
  C  526  1  0.38038300  0.57351300  0.59623000  1
  C  532  1  0.38066300  0.48970600  0.59720600  1
  C  533  1  0.35538900  0.46099800  0.60843300  1
  C  543  1  0.50208200  0.52780200  0.20007700  1
  C  544  1  0.46903100  0.50754900  0.21037900  1
  C  545  1  0.46430400  0.47774000  0.19738200  1
  C  546  1  0.49392400  0.46711100  0.17473500  1
  C  547  1  0.52632700  0.48759700  0.16411900  1
  C  548  1  0.53045200  0.51739000  0.17661700  1
  C  550  1  0.40326400  0.46797100  0.23084900  1
  C  551  1  0.40824500  0.49775700  0.24409000  1
  C  555  1  0.36940500  0.44511900  0.23952500  1
  C  556  1  0.38035000  0.42769700  0.26962000  1
  C  562  1  0.38060800  0.51150500  0.26863400  1
  C  563  1  0.35532100  0.54020700  0.25740800  1
  C  573  1  0.50218300  0.26772700  0.40566300  1
  C  574  1  0.46914500  0.27805200  0.42591700  1
  C  575  1  0.46442100  0.26508100  0.45573700  1
  C  576  1  0.49404700  0.24244300  0.46638300  1
  C  577  1  0.52643800  0.23180500  0.44590000  1
  C  578  1  0.53058500  0.24430300  0.41611000  1
  C  580  1  0.40339100  0.29856400  0.46548500  1
  C  581  1  0.40836500  0.31177500  0.43568700  1
  C  585  1  0.36954200  0.30726400  0.48833500  1
  C  586  1  0.38047700  0.33738200  0.50571700  1
  C  592  1  0.38071200  0.33629800  0.42191400  1
  C  593  1  0.35541900  0.32503400  0.39322900  1
  C  603  1  0.50219300  0.73344600  0.46017500  1
  C  604  1  0.46914800  0.72313100  0.43992500  1
  C  605  1  0.46443700  0.73610600  0.41010400  1
  C  606  1  0.49406300  0.75874900  0.39947100  1
  C  607  1  0.52645400  0.76938200  0.41995900  1
  C  608  1  0.53057900  0.75688900  0.44975400  1
  C  610  1  0.40339400  0.70263900  0.40034300  1
  C  611  1  0.40836200  0.68941700  0.43013900  1
  C  615  1  0.36953800  0.69395300  0.37749100  1
  C  616  1  0.38046800  0.66384200  0.36009400  1
  C  622  1  0.38070200  0.66489100  0.44390000  1
  C  623  1  0.35541200  0.67614900  0.47258600  1
  C  633  1  0.76825400  0.23985200  0.16391900  1
  C  634  1  0.77754200  0.22545300  0.19253500  1
  C  635  1  0.75304700  0.23277800  0.21932500  1
  C  636  1  0.71867700  0.25453500  0.21830700  1
  C  637  1  0.70960700  0.26873200  0.18969300  1
  C  638  1  0.73361700  0.26129400  0.16313100  1
  C  640  1  0.79530200  0.19641300  0.24885300  1
  C  641  1  0.81983600  0.18902700  0.22212600  1
  C  645  1  0.79985300  0.18123500  0.27934400  1
  C  646  1  0.76740100  0.15429700  0.28319100  1
  C  652  1  0.85547900  0.16594800  0.22041600  1
  C  653  1  0.89993500  0.17946600  0.23013800  1
  C  663  1  0.76829000  0.76141600  0.70179000  1
  C  664  1  0.77751000  0.77584600  0.67317700  1
  C  665  1  0.75300100  0.76850600  0.64639600  1
  C  666  1  0.71868300  0.74670700  0.64741900  1
  C  667  1  0.70966900  0.73249000  0.67603200  1
  C  668  1  0.73369800  0.73993700  0.70258400  1
  C  670  1  0.79510300  0.80495900  0.61687100  1
  C  671  1  0.81966400  0.81235100  0.64358700  1
  C  675  1  0.79961500  0.82017000  0.58639600  1
  C  676  1  0.76787600  0.84757700  0.58287600  1
  C  682  1  0.85535200  0.83539700  0.64525700  1
  C  683  1  0.89981400  0.82176700  0.63570700  1
  C  693  1  0.76842000  0.76966100  0.17216000  1
  C  694  1  0.77763300  0.74103700  0.15775700  1
  C  695  1  0.75306000  0.71428000  0.16507400  1
  C  696  1  0.71869300  0.71534000  0.18683400  1
  C  697  1  0.70969800  0.74396200  0.20103600  1
  C  698  1  0.73379300  0.77049100  0.19360700  1
  C  700  1  0.79520400  0.68470600  0.12868400  1
  C  701  1  0.81983600  0.71139400  0.12132300  1
  C  705  1  0.79970300  0.65421200  0.11350500  1
  C  706  1  0.76763500  0.65055100  0.08631000  1
  C  712  1  0.85552800  0.71304400  0.09827700  1
  C  713  1  0.89995400  0.70336700  0.11187600  1
  C  723  1  0.76840400  0.23153100  0.69365000  1
  C  724  1  0.77762000  0.26014800  0.70806900  1
  C  725  1  0.75306000  0.28691200  0.70075700  1
  C  726  1  0.71871300  0.28587000  0.67898000  1
  C  727  1  0.70971400  0.25725800  0.66476200  1
  C  728  1  0.73379000  0.23071900  0.67219000  1
  C  730  1  0.79517500  0.31645900  0.73718200  1
  C  731  1  0.81980000  0.28976600  0.74454000  1
  C  735  1  0.79967400  0.34693900  0.75238900  1
  C  736  1  0.76793500  0.35045600  0.77979300  1
  C  742  1  0.85552100  0.28811600  0.76756400  1
  C  743  1  0.89994500  0.29773000  0.75391400  1
  C  753  1  0.20609900  0.76339100  0.16830600  1
  C  754  1  0.21034700  0.77456900  0.19881900  1
  C  755  1  0.25090900  0.77355900  0.21436400  1
  C  756  1  0.28784400  0.76086100  0.19976400  1
  C  757  1  0.28401500  0.75096300  0.16881500  1
  C  758  1  0.24363700  0.75170900  0.15352600  1
  C  760  1  0.21889200  0.79897900  0.25817600  1
  C  761  1  0.17809500  0.79977500  0.24271500  1
  C  765  1  0.22808500  0.81238100  0.28900200  1
  C  766  1  0.25617900  0.84185800  0.28683500  1
  C  772  1  0.13770100  0.81452300  0.25441000  1
  C  773  1  0.11176900  0.79322800  0.27623200  1
  C  783  1  0.20607000  0.23783000  0.69750400  1
  C  784  1  0.21036800  0.22660500  0.66701200  1
  C  785  1  0.25095400  0.22759500  0.65149700  1
  C  786  1  0.28786200  0.24032700  0.66610500  1
  C  787  1  0.28397400  0.25029200  0.69703000  1
  C  788  1  0.24358200  0.24953800  0.71229600  1
  C  790  1  0.21900200  0.20210400  0.60770300  1
  C  791  1  0.17818700  0.20132200  0.62313700  1
  C  795  1  0.22821200  0.18865700  0.57690000  1
  C  796  1  0.25580400  0.15895200  0.57917400  1
  C  802  1  0.13781100  0.18656400  0.61142700  1
  C  803  1  0.11176800  0.20792400  0.58973600  1
  C  813  1  0.20590300  0.23591300  0.17032200  1
  C  814  1  0.21024900  0.26641800  0.15913900  1
  C  815  1  0.25087300  0.28188500  0.16011000  1
  C  816  1  0.28777000  0.26721800  0.17278800  1
  C  817  1  0.28382900  0.23628600  0.18272000  1
  C  818  1  0.24339500  0.22107400  0.18200200  1
  C  820  1  0.21898900  0.32573700  0.13467700  1
  C  821  1  0.17812200  0.31036600  0.13394300  1
  C  825  1  0.22826700  0.35654200  0.12125500  1
  C  826  1  0.25613700  0.35429200  0.09167800  1
  C  832  1  0.13776000  0.32212500  0.11920300  1
  C  833  1  0.11188700  0.34396100  0.14052000  1
  C  843  1  0.20594200  0.76536700  0.69550500  1
  C  844  1  0.21029700  0.73487300  0.70671500  1
  C  845  1  0.25092500  0.71941100  0.70574500  1
  C  846  1  0.28780800  0.73406900  0.69303500  1
  C  847  1  0.28385600  0.76499300  0.68308400  1
  C  848  1  0.24342500  0.78020900  0.68381700  1
  C  850  1  0.21906400  0.67557700  0.73122300  1
  C  851  1  0.17820100  0.69095000  0.73196700  1
  C  855  1  0.22834100  0.64478400  0.74466600  1
  C  856  1  0.25596400  0.64707800  0.77435600  1
  C  862  1  0.13785500  0.67920300  0.74673700  1
  C  863  1  0.11187300  0.65745300  0.72539800  1
  N  399  1  0.91935500  0.04040000  0.15686400  1
  N  402  1  0.93428200  0.98599200  0.12971300  1
  N  419  1  0.97578800  0.06307300  0.20556200  1
  N  421  1  0.00360700  0.94671600  0.14808700  1
  N  429  1  0.91925400  0.96085300  0.70905300  1
  N  432  1  0.93413900  0.01529300  0.73615100  1
  N  449  1  0.97563800  0.93818700  0.66032600  1
  N  451  1  0.00340000  0.05460000  0.71770500  1
  N  459  1  0.91921800  0.77674500  0.97264900  1
  N  462  1  0.93417100  0.80381100  0.91820600  1
  N  479  1  0.97555000  0.72801100  0.99536900  1
  N  481  1  0.00345300  0.78534500  0.87895200  1
  N  489  1  0.91926700  0.22448600  0.89317900  1
  N  492  1  0.93419400  0.19740500  0.94762100  1
  N  509  1  0.97560900  0.27322900  0.87049400  1
  N  511  1  0.00343700  0.21588500  0.98691000  1
  N  519  1  0.43181900  0.54160200  0.65751200  1
  N  522  1  0.44111000  0.48546700  0.63268400  1
  N  539  1  0.49319100  0.56451400  0.70337200  1
  N  541  1  0.50936800  0.44491300  0.65029300  1
  N  549  1  0.43176000  0.45960600  0.20833000  1
  N  552  1  0.44104500  0.51574600  0.23315000  1
  N  569  1  0.49311900  0.43669600  0.16246300  1
  N  571  1  0.50929000  0.55630400  0.21552400  1
  N  579  1  0.43188700  0.27605100  0.47386900  1
  N  582  1  0.44115600  0.30081400  0.41770300  1
  N  599  1  0.49323300  0.23018200  0.49680300  1
  N  601  1  0.50937800  0.28316900  0.37715800  1
  N  609  1  0.43190000  0.72515000  0.39197000  1
  N  612  1  0.44115300  0.70036800  0.44812800  1
  N  629  1  0.49326900  0.77100700  0.36905100  1
  N  631  1  0.50935900  0.71801400  0.48869100  1
  N  639  1  0.76312300  0.21775800  0.24589000  1
  N  642  1  0.80937900  0.20403000  0.19567500  1
  N  659  1  0.69527200  0.26114200  0.24597900  1
  N  661  1  0.78986500  0.23446000  0.13525900  1
  N  669  1  0.76299900  0.78355900  0.61983700  1
  N  672  1  0.80930400  0.79730100  0.67003100  1
  N  689  1  0.69526900  0.74008500  0.61975300  1
  N  691  1  0.78991400  0.76681500  0.73044400  1
  N  699  1  0.76304800  0.68770700  0.15004200  1
  N  702  1  0.80947000  0.73785600  0.13634000  1
  N  719  1  0.69523300  0.68769300  0.19344400  1
  N  721  1  0.79011900  0.79829000  0.16678200  1
  N  729  1  0.76304200  0.31347800  0.71580400  1
  N  732  1  0.80944700  0.26331500  0.72949700  1
  N  749  1  0.69526900  0.31352700  0.67237100  1
  N  751  1  0.79008900  0.20289400  0.69901900  1
  N  759  1  0.25308400  0.78580400  0.24313800  1
  N  762  1  0.17626200  0.78743300  0.21396700  1
  N  779  1  0.32818800  0.75966600  0.21565800  1
  N  781  1  0.16434500  0.76148500  0.15420700  1
  N  789  1  0.25317500  0.21530100  0.62274400  1
  N  792  1  0.17630500  0.21371700  0.65185800  1
  N  809  1  0.32822800  0.24151400  0.65024000  1
  N  811  1  0.16429500  0.23974100  0.71157100  1
  N  819  1  0.25314400  0.31064300  0.14783800  1
  N  822  1  0.17620100  0.28162700  0.14629400  1
  N  839  1  0.32818500  0.28302400  0.17392900  1
  N  841  1  0.16409500  0.22190100  0.17224400  1
  N  849  1  0.25321000  0.69066200  0.71804000  1
  N  852  1  0.17626100  0.71967800  0.71958600  1
  N  869  1  0.32822800  0.71826700  0.69189000  1
  N  871  1  0.16413500  0.77938600  0.69360300  1
