# generated using pymatgen
data_H9C15N4
_symmetry_space_group_name_H-M   'P 1'
_cell_length_a   33.31370000
_cell_length_b   43.84300000
_cell_length_c   58.02380000
_cell_angle_alpha   90.00000000
_cell_angle_beta   91.03170000
_cell_angle_gamma   90.00000000
_symmetry_Int_Tables_number   1
_chemical_formula_structural   H9C15N4
_chemical_formula_sum   'H288 C480 N128'
_cell_volume   84734.23066289
_cell_formula_units_Z   32
loop_
 _symmetry_equiv_pos_site_id
 _symmetry_equiv_pos_as_xyz
  1  'x, y, z'
loop_
 _atom_site_type_symbol
 _atom_site_label
 _atom_site_symmetry_multiplicity
 _atom_site_fract_x
 _atom_site_fract_y
 _atom_site_fract_z
 _atom_site_occupancy
  H  9  1  0.10609700  0.27176300  0.32217500  1
  H  17  1  0.97281100  0.14826500  0.42177400  1
  H  19  1  0.97294900  0.16177800  0.34049600  1
  H  20  1  0.00211500  0.19707600  0.31516700  1
  H  21  1  0.07286600  0.22568000  0.42909800  1
  H  22  1  0.11060500  0.25456700  0.40314900  1
  H  27  1  0.13989200  0.29249400  0.36734800  1
  H  28  1  0.01050300  0.21392800  0.44794400  1
  H  29  1  0.93682300  0.12615000  0.38377400  1
  H  30  1  0.04754400  0.22699500  0.29132000  1
  H  39  1  0.60637100  0.81512500  0.68252000  1
  H  47  1  0.47278900  0.93984000  0.58112300  1
  H  49  1  0.47396000  0.92595200  0.66240900  1
  H  50  1  0.50325000  0.89042700  0.68811000  1
  H  51  1  0.57215700  0.86202400  0.57521700  1
  H  52  1  0.60993800  0.83276700  0.60168100  1
  H  57  1  0.64003200  0.79351100  0.64106400  1
  H  58  1  0.50935300  0.87420600  0.55544300  1
  H  59  1  0.43715800  0.96166300  0.61867600  1
  H  60  1  0.54887500  0.86021700  0.71257700  1
  H  69  1  0.40235600  0.81556300  0.31314800  1
  H  77  1  0.51392300  0.94920300  0.41662800  1
  H  79  1  0.53018600  0.92818900  0.33691500  1
  H  80  1  0.50524000  0.89132800  0.31091100  1
  H  81  1  0.41986500  0.86714000  0.42050600  1
  H  82  1  0.38768700  0.83557700  0.39323600  1
  H  87  1  0.36339600  0.79446200  0.35236900  1
  H  88  1  0.44153800  0.91012500  0.44248800  1
  H  89  1  0.56122000  0.96446900  0.37882800  1
  H  90  1  0.45909500  0.86194900  0.28494300  1
  H  99  1  0.90203900  0.27128900  0.68870300  1
  H  107  1  0.01339700  0.13876100  0.58663400  1
  H  109  1  0.03027200  0.15924700  0.66666667  1
  H  110  1  0.00535000  0.19583400  0.69242600  1
  H  111  1  0.91857200  0.22037400  0.58145200  1
  H  112  1  0.88638200  0.25159100  0.60831400  1
  H  117  1  0.86313800  0.29237300  0.64720400  1
  H  118  1  0.94067500  0.17767000  0.55958100  1
  H  119  1  0.06104900  0.12339100  0.62521800  1
  H  120  1  0.95951700  0.22499900  0.71772700  1
  H  129  1  0.89676100  0.81887200  0.68216500  1
  H  137  1  0.03252700  0.93989300  0.58194400  1
  H  139  1  0.03488300  0.92487800  0.66306600  1
  H  140  1  0.00488600  0.89012000  0.68843800  1
  H  141  1  0.92830800  0.86550400  0.57515700  1
  H  142  1  0.89012000  0.83734500  0.60136200  1
  H  147  1  0.85819100  0.79937300  0.64102100  1
  H  148  1  0.99020600  0.87546700  0.55569900  1
  H  149  1  0.07250600  0.95708100  0.62464200  1
  H  150  1  0.95867900  0.86152000  0.71259400  1
  H  159  1  0.39645900  0.26954100  0.32010500  1
  H  167  1  0.53294800  0.14753100  0.42217800  1
  H  169  1  0.53414600  0.16285600  0.34107200  1
  H  170  1  0.50394000  0.19780200  0.31530800  1
  H  171  1  0.42957400  0.22246800  0.42751400  1
  H  172  1  0.39126300  0.25096100  0.40080600  1
  H  177  1  0.35838800  0.28914300  0.35991200  1
  H  178  1  0.49205400  0.21196500  0.44787600  1
  H  179  1  0.57243600  0.13057300  0.38010700  1
  H  180  1  0.45733000  0.22661200  0.29051200  1
  H  189  1  0.59995200  0.27238800  0.68934000  1
  H  197  1  0.48614300  0.13787200  0.58736400  1
  H  199  1  0.46747200  0.16277000  0.66632800  1
  H  200  1  0.49273900  0.20021700  0.69171300  1
  H  201  1  0.58380900  0.21728100  0.58291900  1
  H  202  1  0.61660600  0.24887700  0.60996600  1
  H  207  1  0.64367100  0.28965000  0.65061500  1
  H  208  1  0.56051700  0.17362600  0.56148500  1
  H  209  1  0.43762900  0.12798700  0.63245800  1
  H  210  1  0.53823800  0.22964200  0.71764100  1
  H  219  1  0.10025100  0.81619000  0.31585200  1
  H  227  1  0.98686400  0.94971600  0.41638300  1
  H  229  1  0.96732900  0.92516000  0.33704800  1
  H  230  1  0.99252100  0.88793400  0.31197100  1
  H  231  1  0.08566100  0.87107400  0.42211600  1
  H  232  1  0.11841600  0.83977900  0.39546900  1
  H  237  1  0.14467000  0.79895800  0.35522300  1
  H  238  1  0.06168500  0.91491900  0.44341100  1
  H  239  1  0.93777100  0.95973800  0.37053600  1
  H  240  1  0.03757500  0.85864800  0.28667600  1
  H  249  1  0.08248100  0.77386800  0.81932700  1
  H  257  1  0.95181600  0.65255600  0.92171700  1
  H  259  1  0.94788300  0.66586000  0.84034900  1
  H  260  1  0.97753300  0.69975400  0.81435300  1
  H  261  1  0.05548400  0.72770600  0.92692200  1
  H  262  1  0.09119500  0.75689600  0.90034700  1
  H  267  1  0.11621700  0.79812500  0.85642800  1
  H  268  1  0.99478700  0.71624000  0.94717700  1
  H  269  1  0.90796500  0.63657200  0.88440600  1
  H  270  1  0.02304200  0.72794800  0.78952600  1
  H  279  1  0.58229300  0.31340900  0.18601100  1
  H  287  1  0.45174900  0.43550900  0.08137300  1
  H  289  1  0.44813700  0.42187400  0.16266200  1
  H  290  1  0.47773000  0.38779100  0.18914700  1
  H  291  1  0.55449800  0.35968400  0.07793200  1
  H  292  1  0.59014700  0.33025300  0.10510000  1
  H  297  1  0.61648800  0.28940300  0.15010700  1
  H  298  1  0.49359400  0.37172900  0.05657700  1
  H  299  1  0.40812900  0.45146300  0.11800500  1
  H  300  1  0.52343700  0.35944200  0.21476500  1
  H  309  1  0.38482900  0.31276200  0.81639600  1
  H  317  1  0.50258600  0.44706800  0.91720900  1
  H  319  1  0.51667900  0.42381000  0.83764400  1
  H  320  1  0.49006400  0.38697000  0.81230200  1
  H  321  1  0.40595300  0.36708500  0.92272800  1
  H  322  1  0.37267600  0.33514400  0.89622400  1
  H  327  1  0.35151600  0.29187300  0.85972200  1
  H  328  1  0.42863500  0.41132700  0.94365400  1
  H  329  1  0.55082000  0.45902000  0.87820800  1
  H  330  1  0.44860000  0.35882800  0.78799300  1
  H  339  1  0.88413900  0.77357200  0.18604500  1
  H  347  1  0.00194500  0.64095300  0.08644200  1
  H  349  1  0.01696400  0.66363200  0.16632100  1
  H  350  1  0.99039500  0.70014600  0.19140400  1
  H  351  1  0.90428400  0.72030000  0.07974900  1
  H  352  1  0.87088100  0.75172100  0.10591800  1
  H  357  1  0.84951700  0.79375300  0.14081600  1
  H  358  1  0.92757600  0.67621800  0.05888000  1
  H  359  1  0.05060000  0.62883500  0.12639900  1
  H  360  1  0.94959400  0.72817300  0.21524400  1
  H  369  1  0.93851300  0.30160800  0.17826500  1
  H  377  1  0.04848400  0.44457300  0.08360500  1
  H  379  1  0.03967400  0.43123400  0.16482500  1
  H  380  1  0.01580900  0.39270800  0.18915000  1
  H  381  1  0.97035500  0.35420500  0.07287500  1
  H  382  1  0.93971700  0.31899500  0.09718400  1
  H  387  1  0.90430200  0.27803500  0.13110200  1
  H  388  1  0.02890500  0.37490400  0.05668500  1
  H  389  1  0.07837200  0.46439400  0.13040000  1
  H  390  1  0.97834100  0.35684200  0.21132600  1
  H  399  1  0.43857200  0.78630100  0.82331500  1
  H  407  1  0.54730800  0.64288300  0.92032700  1
  H  409  1  0.53931900  0.65651500  0.83891700  1
  H  410  1  0.51568500  0.69511000  0.81409700  1
  H  411  1  0.46959700  0.73346000  0.92938000  1
  H  412  1  0.43926900  0.76880300  0.90441100  1
  H  417  1  0.40418100  0.80987400  0.86973300  1
  H  418  1  0.52811700  0.71228300  0.94695900  1
  H  419  1  0.57763900  0.62342500  0.87381800  1
  H  420  1  0.47810600  0.73100400  0.79112000  1
  H  429  1  0.60024600  0.79875900  0.17511400  1
  H  437  1  0.50355000  0.64369200  0.08794900  1
  H  439  1  0.48216800  0.67968400  0.16450100  1
  H  440  1  0.50795400  0.71968900  0.18717800  1
  H  441  1  0.60809100  0.71770000  0.08049100  1
  H  442  1  0.63828500  0.75432100  0.10528800  1
  H  447  1  0.66553900  0.76915400  0.17851000  1
  H  448  1  0.58304300  0.66610200  0.06247200  1
  H  449  1  0.45384700  0.63229900  0.13235200  1
  H  450  1  0.56086000  0.74385900  0.21006800  1
  H  459  1  0.10075600  0.28924600  0.82997900  1
  H  467  1  0.00544300  0.44420800  0.91559200  1
  H  469  1  0.98137900  0.40737200  0.83907000  1
  H  470  1  0.00683300  0.36735600  0.81677300  1
  H  471  1  0.11227700  0.37189300  0.92389500  1
  H  472  1  0.14204300  0.33527800  0.89943400  1
  H  477  1  0.16446300  0.31942800  0.82636000  1
  H  478  1  0.08392200  0.42599300  0.94178800  1
  H  479  1  0.95355100  0.45468600  0.87083700  1
  H  480  1  0.06008200  0.34401600  0.79443800  1
  H  487  1  0.01245500  0.12647000  0.48826400  1
  H  489  1  0.98929000  0.25238900  0.51157600  1
  H  490  1  0.01437000  0.24024600  0.53713700  1
  H  491  1  0.96145300  0.23599700  0.53414500  1
  H  500  1  0.51425300  0.96165000  0.51524800  1
  H  502  1  0.48799500  0.83607000  0.49149000  1
  H  503  1  0.51355900  0.84778900  0.46650100  1
  H  504  1  0.46073800  0.85279100  0.46826200  1
  H  513  1  0.99551400  0.96271000  0.51531700  1
  H  515  1  0.00886800  0.83588700  0.49222900  1
  H  516  1  0.98426400  0.84887200  0.46675500  1
  H  517  1  0.03743600  0.85103900  0.46946800  1
  H  526  1  0.49263700  0.12450400  0.48816300  1
  H  528  1  0.51129300  0.25088600  0.51172800  1
  H  529  1  0.48575800  0.23850600  0.53655200  1
  H  530  1  0.53884400  0.23504800  0.53521000  1
  H  539  1  0.99565500  0.62850600  0.98725500  1
  H  541  1  0.97717300  0.75472700  0.01104900  1
  H  542  1  0.00275300  0.74218000  0.03633700  1
  H  543  1  0.94967800  0.73863600  0.03388400  1
  H  552  1  0.49826600  0.45953500  0.01674200  1
  H  554  1  0.47521400  0.33382300  0.99233100  1
  H  555  1  0.50146300  0.34585900  0.96766400  1
  H  556  1  0.44851800  0.35050100  0.96886800  1
  H  565  1  0.03297000  0.46036300  0.01460000  1
  H  567  1  0.02446300  0.33253200  0.99407700  1
  H  568  1  0.00339300  0.34685100  0.96800600  1
  H  569  1  0.05636200  0.34358700  0.97146000  1
  H  578  1  0.52514800  0.62632800  0.98877300  1
  H  580  1  0.52731300  0.75420300  0.00970200  1
  H  581  1  0.50406300  0.74079100  0.03497500  1
  H  582  1  0.55729600  0.74139600  0.03329200  1
  H  591  1  0.01980200  0.25907700  0.21989200  1
  H  593  1  0.00153300  0.35688300  0.28446300  1
  H  594  1  0.04064600  0.33680200  0.29890400  1
  H  595  1  0.98976100  0.32612300  0.30293100  1
  H  604  1  0.52081000  0.82844900  0.78340400  1
  H  606  1  0.50111500  0.73070300  0.71852400  1
  H  607  1  0.54043500  0.75047800  0.70483600  1
  H  608  1  0.48967300  0.76152900  0.69980900  1
  H  617  1  0.50359200  0.83670200  0.21608100  1
  H  619  1  0.53060600  0.73895700  0.28012800  1
  H  620  1  0.48573100  0.75356400  0.29174200  1
  H  621  1  0.53285200  0.76969700  0.29990700  1
  H  630  1  0.00432300  0.25065600  0.78739200  1
  H  632  1  0.02962600  0.34848400  0.72372300  1
  H  633  1  0.98481400  0.33355400  0.71132900  1
  H  634  1  0.03204700  0.31772900  0.70401100  1
  H  643  1  0.99218700  0.82824200  0.78307600  1
  H  645  1  0.99785900  0.73024700  0.71778200  1
  H  646  1  0.95886200  0.75179900  0.70452500  1
  H  647  1  0.00989700  0.76064600  0.69903900  1
  H  656  1  0.49107200  0.25943900  0.22067100  1
  H  658  1  0.49871000  0.35748500  0.28599000  1
  H  659  1  0.45944700  0.33632300  0.29854100  1
  H  660  1  0.51037100  0.32700600  0.30498200  1
  H  669  1  0.49248900  0.26145600  0.78525200  1
  H  671  1  0.47826200  0.35635800  0.71768100  1
  H  672  1  0.52211000  0.33857900  0.70730400  1
  H  673  1  0.47390300  0.32462400  0.69892300  1
  H  682  1  0.99140100  0.82598800  0.21839400  1
  H  684  1  0.97959600  0.73139200  0.28610300  1
  H  685  1  0.02331100  0.74963900  0.29711600  1
  H  686  1  0.97499600  0.76320300  0.30467400  1
  H  695  1  0.04485500  0.07143700  0.36228700  1
  H  697  1  0.88589900  0.03702900  0.38759600  1
  H  698  1  0.91250800  0.00514200  0.39861100  1
  H  699  1  0.89500400  0.00554300  0.36942200  1
  H  708  1  0.54559900  0.01648800  0.64161300  1
  H  710  1  0.38550100  0.05056000  0.61507600  1
  H  711  1  0.41154000  0.08257200  0.60436000  1
  H  712  1  0.39514100  0.08199000  0.63340900  1
  H  721  1  0.45585000  0.02550500  0.36091400  1
  H  723  1  0.61882400  0.05047100  0.38733200  1
  H  724  1  0.59562000  0.08202900  0.40058700  1
  H  725  1  0.61064600  0.08422600  0.37130100  1
  H  734  1  0.95644200  0.06218100  0.64228600  1
  H  736  1  0.11825900  0.03726600  0.61684000  1
  H  737  1  0.09450700  0.00554600  0.60364000  1
  H  738  1  0.11097500  0.00364000  0.63300700  1
  H  747  1  0.99210300  0.57143000  0.84883100  1
  H  749  1  0.82905700  0.56248700  0.87845300  1
  H  750  1  0.84266900  0.52356100  0.88093600  1
  H  751  1  0.82529800  0.53836700  0.85402200  1
  H  760  1  0.49351300  0.51637700  0.15463100  1
  H  762  1  0.32903800  0.52516900  0.12416700  1
  H  763  1  0.34241300  0.56412900  0.12182400  1
  H  764  1  0.32638700  0.54920300  0.14862900  1
  H  773  1  0.45007700  0.52558200  0.86322600  1
  H  775  1  0.61618200  0.54137700  0.88675500  1
  H  776  1  0.59710000  0.57489900  0.89947600  1
  H  777  1  0.61114400  0.57480300  0.86998200  1
  H  786  1  0.95020400  0.56173900  0.13919400  1
  H  788  1  0.11620700  0.54658700  0.11854400  1
  H  789  1  0.09723800  0.51306000  0.10538000  1
  H  790  1  0.11147100  0.51306900  0.13513900  1
  H  799  1  0.28086000  0.20471900  0.35476200  1
  H  801  1  0.24367800  0.33029700  0.37081400  1
  H  802  1  0.20155900  0.31438500  0.38444900  1
  H  803  1  0.20062200  0.32075400  0.35409100  1
  H  812  1  0.78025500  0.88329300  0.64824300  1
  H  814  1  0.74297900  0.75792300  0.63068700  1
  H  815  1  0.69857300  0.77382700  0.61867700  1
  H  816  1  0.70242200  0.76627300  0.64883900  1
  H  825  1  0.22178500  0.88265200  0.34501400  1
  H  827  1  0.26170200  0.75908600  0.36734500  1
  H  828  1  0.30627500  0.77636100  0.37795400  1
  H  829  1  0.30138700  0.76615700  0.34828800  1
  H  838  1  0.72110800  0.20545200  0.65896600  1
  H  840  1  0.75990000  0.32923400  0.63745400  1
  H  841  1  0.80251400  0.31187700  0.62535500  1
  H  842  1  0.80215100  0.32119200  0.65526600  1
  H  851  1  0.27081800  0.73182700  0.86019100  1
  H  853  1  0.19339100  0.83612700  0.89849100  1
  H  854  1  0.15236000  0.81064000  0.89962200  1
  H  855  1  0.16127500  0.83222400  0.87419200  1
  H  864  1  0.77068700  0.35433300  0.14680300  1
  H  866  1  0.68966500  0.25205600  0.10617100  1
  H  867  1  0.64919500  0.27813300  0.10519200  1
  H  868  1  0.65851700  0.25559400  0.13027100  1
  H  877  1  0.20594400  0.35006500  0.88162300  1
  H  879  1  0.26139500  0.25960600  0.81978200  1
  H  880  1  0.30210200  0.26063700  0.83960000  1
  H  881  1  0.29959200  0.28705600  0.81633700  1
  H  890  1  0.70178500  0.73772800  0.12302900  1
  H  892  1  0.76497700  0.82792300  0.18390300  1
  H  893  1  0.80415300  0.82566500  0.16393100  1
  H  894  1  0.80234600  0.79964700  0.18741400  1
  C  1  1  0.04921200  0.22009300  0.36415900  1
  C  2  1  0.03898300  0.21979000  0.34014300  1
  C  3  1  0.05774400  0.24081800  0.32501500  1
  C  4  1  0.09037300  0.25838600  0.33342000  1
  C  5  1  0.10279800  0.25726100  0.35673000  1
  C  6  1  0.08046700  0.23961600  0.37252600  1
  C  7  1  0.01014700  0.19835000  0.33222200  1
  C  8  1  0.08873300  0.24058400  0.39648200  1
  C  10  1  0.02862800  0.20061800  0.37983000  1
  C  11  1  0.00145600  0.17806100  0.37119000  1
  C  12  1  0.98327700  0.15737800  0.38671700  1
  C  13  1  0.98774100  0.16230200  0.41065000  1
  C  14  1  0.01257300  0.18569100  0.41968900  1
  C  15  1  0.03548200  0.20344300  0.40409900  1
  C  16  1  0.99318400  0.17706100  0.34722700  1
  C  18  1  0.06572900  0.22378900  0.41194800  1
  C  23  1  0.13903700  0.27086000  0.36247700  1
  C  24  1  0.01128900  0.19212800  0.44320200  1
  C  25  1  0.96528400  0.13026800  0.37992700  1
  C  26  1  0.04659900  0.24466900  0.30202300  1
  C  31  1  0.54946900  0.86742900  0.63980100  1
  C  32  1  0.53957700  0.86765300  0.66365400  1
  C  33  1  0.55836800  0.84644100  0.67901300  1
  C  34  1  0.59066000  0.82868400  0.67106900  1
  C  35  1  0.60277100  0.82986400  0.64795900  1
  C  36  1  0.58043100  0.84778700  0.63187800  1
  C  37  1  0.51099500  0.88917100  0.67117300  1
  C  38  1  0.58832400  0.84686700  0.60804500  1
  C  40  1  0.52881700  0.88707500  0.62385800  1
  C  41  1  0.50189200  0.90968500  0.63211700  1
  C  42  1  0.48362700  0.93050000  0.61634300  1
  C  43  1  0.48778800  0.92571500  0.59246500  1
  C  44  1  0.51236700  0.90228100  0.58378500  1
  C  45  1  0.53533500  0.88434000  0.59969200  1
  C  46  1  0.49393400  0.91057900  0.65594900  1
  C  48  1  0.56525500  0.86385500  0.59225900  1
  C  53  1  0.63871400  0.81595700  0.64272800  1
  C  54  1  0.51079100  0.89597700  0.56024200  1
  C  55  1  0.46570300  0.95756500  0.62292400  1
  C  56  1  0.54753000  0.84258900  0.70182300  1
  C  61  1  0.45207300  0.87009100  0.35726300  1
  C  62  1  0.46541500  0.86943900  0.33400200  1
  C  63  1  0.44897500  0.84768400  0.31820900  1
  C  64  1  0.41624400  0.82956700  0.32504000  1
  C  65  1  0.40096900  0.83130500  0.34750600  1
  C  66  1  0.42052200  0.85025700  0.36412900  1
  C  67  1  0.49489700  0.89079000  0.32738500  1
  C  68  1  0.40936900  0.85010900  0.38751400  1
  C  70  1  0.46951600  0.89100200  0.37355400  1
  C  71  1  0.49749700  0.91336800  0.36600900  1
  C  72  1  0.51247200  0.93554300  0.38179800  1
  C  73  1  0.50282300  0.93315700  0.40527200  1
  C  74  1  0.47693800  0.91026000  0.41345700  1
  C  75  1  0.45837500  0.89006900  0.39722900  1
  C  76  1  0.50947900  0.91295100  0.34278300  1
  C  78  1  0.42885400  0.86874600  0.40380700  1
  C  83  1  0.36466000  0.81699300  0.35144200  1
  C  84  1  0.46966000  0.90986300  0.43700500  1
  C  85  1  0.53209200  0.96192600  0.37533800  1
  C  86  1  0.46199300  0.84445400  0.29574800  1
  C  91  1  0.95151900  0.21717500  0.64523800  1
  C  92  1  0.96512200  0.21771900  0.66872900  1
  C  93  1  0.94875700  0.23932400  0.68431700  1
  C  94  1  0.91584900  0.25738000  0.67700000  1
  C  95  1  0.90036000  0.25577000  0.65426000  1
  C  96  1  0.91976400  0.23694300  0.63790500  1
  C  97  1  0.99479300  0.19641900  0.67578100  1
  C  98  1  0.90827400  0.23713900  0.61433900  1
  C  100  1  0.96894700  0.19645000  0.62916400  1
  C  101  1  0.99718000  0.17415400  0.63710600  1
  C  102  1  0.01221800  0.15217900  0.62149000  1
  C  103  1  0.00230300  0.15469100  0.59785800  1
  C  104  1  0.97620900  0.17756800  0.58930400  1
  C  105  1  0.95757100  0.19751000  0.60529600  1
  C  106  1  0.00941300  0.17445600  0.66053800  1
  C  108  1  0.92773200  0.21869200  0.59830600  1
  C  113  1  0.86398200  0.27005900  0.64978700  1
  C  114  1  0.96880900  0.17811100  0.56561600  1
  C  115  1  0.03191500  0.12574600  0.62818400  1
  C  116  1  0.96207200  0.24253800  0.70699200  1
  C  121  1  0.95476700  0.86930900  0.63983500  1
  C  122  1  0.96590000  0.86893900  0.66372700  1
  C  123  1  0.94657400  0.84833200  0.67893500  1
  C  124  1  0.91280500  0.83183000  0.67079400  1
  C  125  1  0.89952600  0.83371400  0.64765600  1
  C  126  1  0.92215100  0.85093000  0.63172000  1
  C  127  1  0.99615900  0.88933300  0.67147100  1
  C  128  1  0.91294900  0.85057400  0.60785700  1
  C  130  1  0.97574700  0.88838600  0.62406200  1
  C  131  1  0.00441900  0.90993100  0.63256900  1
  C  132  1  0.02287900  0.93037900  0.61700400  1
  C  133  1  0.01721600  0.92611800  0.59307600  1
  C  134  1  0.99101000  0.90353600  0.58410600  1
  C  135  1  0.96781500  0.88619900  0.59984500  1
  C  136  1  0.01368200  0.91028700  0.65643400  1
  C  138  1  0.93622500  0.86689300  0.59222900  1
  C  143  1  0.86203700  0.82177800  0.64242500  1
  C  144  1  0.99136800  0.89723100  0.56052100  1
  C  145  1  0.04278100  0.95653800  0.62404000  1
  C  146  1  0.95834000  0.84395000  0.70176900  1
  C  151  1  0.45487400  0.21872200  0.36320900  1
  C  152  1  0.46556800  0.21910400  0.33948100  1
  C  153  1  0.44609900  0.23983100  0.32401800  1
  C  154  1  0.41259700  0.25646500  0.33168600  1
  C  155  1  0.39976200  0.25461300  0.35464000  1
  C  156  1  0.42257000  0.23724900  0.37087600  1
  C  157  1  0.49556400  0.19861600  0.33215600  1
  C  158  1  0.41383000  0.23761400  0.39461400  1
  C  160  1  0.47595900  0.19948500  0.37926100  1
  C  161  1  0.50433900  0.17784500  0.37115100  1
  C  162  1  0.52289600  0.15726100  0.38696600  1
  C  163  1  0.51758500  0.16140800  0.41082200  1
  C  164  1  0.49166400  0.18405700  0.41941200  1
  C  165  1  0.46842600  0.20161500  0.40336200  1
  C  166  1  0.51321100  0.17755000  0.34742400  1
  C  168  1  0.43721500  0.22111300  0.41055800  1
  C  173  1  0.36247400  0.26669900  0.35941000  1
  C  174  1  0.49230900  0.19020200  0.44301300  1
  C  175  1  0.54271700  0.13114400  0.38017600  1
  C  176  1  0.45747700  0.24416400  0.30135400  1
  C  181  1  0.54882100  0.21794700  0.64570400  1
  C  182  1  0.53453000  0.22002100  0.66872600  1
  C  183  1  0.55140600  0.24194700  0.68425100  1
  C  184  1  0.58563400  0.25850000  0.67753900  1
  C  185  1  0.60185500  0.25522700  0.65539500  1
  C  186  1  0.58178200  0.23641200  0.63888000  1
  C  187  1  0.50375400  0.19979300  0.67538900  1
  C  188  1  0.59389400  0.23528300  0.61567200  1
  C  190  1  0.53105600  0.19685500  0.62965200  1
  C  191  1  0.50187100  0.17548900  0.63732500  1
  C  192  1  0.48704900  0.15276600  0.62192300  1
  C  193  1  0.49747600  0.15409000  0.59849900  1
  C  194  1  0.52435500  0.17616800  0.59012200  1
  C  195  1  0.54319700  0.19650000  0.60613800  1
  C  196  1  0.48895600  0.17727800  0.66034900  1
  C  198  1  0.57402500  0.21668000  0.59950200  1
  C  203  1  0.63973500  0.26724700  0.65187800  1
  C  204  1  0.53232300  0.17558000  0.56666000  1
  C  205  1  0.46663100  0.12698700  0.62900900  1
  C  206  1  0.53743300  0.24674200  0.70639200  1
  C  211  1  0.04959700  0.87036700  0.35879500  1
  C  212  1  0.03489700  0.86828700  0.33555800  1
  C  213  1  0.05162600  0.84645500  0.32026300  1
  C  214  1  0.08607600  0.83001600  0.32746100  1
  C  215  1  0.10269300  0.83329600  0.34984900  1
  C  216  1  0.08285700  0.85205400  0.36607900  1
  C  217  1  0.00386000  0.88840000  0.32845300  1
  C  218  1  0.09543300  0.85324000  0.38946000  1
  C  220  1  0.03187900  0.89129000  0.37461900  1
  C  221  1  0.00233900  0.91251100  0.36654900  1
  C  222  1  0.98745600  0.93504100  0.38178500  1
  C  223  1  0.99821900  0.93363600  0.40537400  1
  C  224  1  0.02543000  0.91165300  0.41410800  1
  C  225  1  0.04437000  0.89159800  0.39832600  1
  C  226  1  0.98906500  0.91075700  0.34332100  1
  C  228  1  0.07562900  0.87166700  0.40537300  1
  C  233  1  0.14070300  0.82135100  0.35382900  1
  C  234  1  0.03358000  0.91214600  0.43770700  1
  C  235  1  0.96682400  0.96080400  0.37444300  1
  C  236  1  0.03724100  0.84156400  0.29793300  1
  C  241  1  0.02817300  0.72207900  0.86240400  1
  C  242  1  0.01669700  0.72174100  0.83855200  1
  C  243  1  0.03507500  0.74231900  0.82293800  1
  C  244  1  0.06765500  0.76028800  0.83084100  1
  C  245  1  0.08090200  0.75967200  0.85401700  1
  C  246  1  0.05976800  0.74169900  0.87018800  1
  C  247  1  0.98666300  0.70092400  0.83124200  1
  C  248  1  0.06916700  0.74279200  0.89402400  1
  C  250  1  0.00803800  0.70294500  0.87852600  1
  C  251  1  0.97911800  0.68126700  0.87050100  1
  C  252  1  0.96054400  0.66139700  0.88647100  1
  C  253  1  0.96727200  0.66580100  0.91028500  1
  C  254  1  0.99422000  0.68816700  0.91877500  1
  C  255  1  0.01649500  0.70560200  0.90267000  1
  C  256  1  0.96928900  0.68048300  0.84669900  1
  C  258  1  0.04737300  0.72576500  0.90990900  1
  C  263  1  0.11542400  0.77586400  0.85942900  1
  C  264  1  0.99473900  0.69446500  0.94234200  1
  C  265  1  0.93667300  0.63696400  0.87998100  1
  C  266  1  0.02300200  0.74584100  0.80004500  1
  C  271  1  0.52782300  0.36535100  0.14197800  1
  C  272  1  0.51654900  0.36569100  0.16562600  1
  C  273  1  0.53495000  0.34503400  0.18155100  1
  C  274  1  0.56742000  0.32701700  0.17423000  1
  C  275  1  0.58050600  0.32763500  0.15129100  1
  C  276  1  0.55923900  0.34563300  0.13474500  1
  C  277  1  0.48668600  0.38659300  0.17241600  1
  C  278  1  0.56833800  0.34448200  0.11106100  1
  C  280  1  0.50770500  0.38461100  0.12551800  1
  C  281  1  0.47901800  0.40640500  0.13304800  1
  C  282  1  0.46053600  0.42644000  0.11677200  1
  C  283  1  0.46710800  0.42211800  0.09307300  1
  C  284  1  0.49379500  0.39963500  0.08505000  1
  C  285  1  0.51597300  0.38198800  0.10152500  1
  C  286  1  0.46932700  0.40713200  0.15666800  1
  C  288  1  0.54654200  0.36163100  0.09480400  1
  C  293  1  0.61505600  0.31150200  0.14649400  1
  C  294  1  0.49420100  0.39347500  0.06148200  1
  C  295  1  0.43689700  0.45094300  0.12289400  1
  C  296  1  0.52306400  0.34156000  0.20423300  1
  C  301  1  0.43687900  0.36789200  0.85916200  1
  C  302  1  0.44957200  0.36649600  0.83576500  1
  C  303  1  0.43196400  0.34475800  0.82029900  1
  C  304  1  0.39923000  0.32713600  0.82783700  1
  C  305  1  0.38500900  0.32933700  0.85050800  1
  C  306  1  0.40520800  0.34857800  0.86663300  1
  C  307  1  0.47973600  0.38706300  0.82876600  1
  C  308  1  0.39457100  0.34918000  0.89010300  1
  C  310  1  0.45527700  0.38886900  0.87507500  1
  C  311  1  0.48393000  0.41044400  0.86709900  1
  C  312  1  0.50007300  0.43259100  0.88254400  1
  C  313  1  0.49062800  0.43107000  0.90609300  1
  C  314  1  0.46389600  0.40904800  0.91466800  1
  C  315  1  0.44454300  0.38876000  0.89883000  1
  C  316  1  0.49547400  0.40920100  0.84381500  1
  C  318  1  0.41464700  0.36809100  0.90594500  1
  C  323  1  0.35009300  0.31380800  0.85550500  1
  C  324  1  0.45668500  0.40950400  0.93820100  1
  C  325  1  0.52125700  0.45805700  0.87569300  1
  C  326  1  0.44331600  0.34051300  0.79752600  1
  C  331  1  0.93622800  0.71923700  0.14379900  1
  C  332  1  0.94930300  0.72053900  0.16739600  1
  C  333  1  0.93172200  0.74205700  0.18267500  1
  C  334  1  0.89854400  0.75941200  0.17474700  1
  C  335  1  0.88393800  0.75727300  0.15185500  1
  C  336  1  0.90415800  0.73836200  0.13593200  1
  C  337  1  0.97979100  0.70010100  0.17478300  1
  C  338  1  0.89311000  0.73783500  0.11229800  1
  C  340  1  0.95463800  0.69852200  0.12807800  1
  C  341  1  0.98362800  0.67705200  0.13641400  1
  C  342  1  0.99978000  0.65512000  0.12113300  1
  C  343  1  0.99001100  0.65681000  0.09743600  1
  C  344  1  0.96299900  0.67879300  0.08852600  1
  C  345  1  0.94356000  0.69876900  0.10415200  1
  C  346  1  0.99553800  0.67818400  0.15987900  1
  C  348  1  0.91322800  0.71923000  0.09667100  1
  C  353  1  0.84855100  0.77238100  0.14648500  1
  C  354  1  0.95559600  0.67848900  0.06486400  1
  C  355  1  0.02100100  0.62955800  0.12820800  1
  C  356  1  0.94352400  0.74634100  0.20559100  1
  C  361  1  0.98331600  0.36280800  0.13853100  1
  C  362  1  0.98945500  0.36474200  0.16294800  1
  C  363  1  0.97464500  0.34124000  0.17752900  1
  C  364  1  0.95042600  0.31800300  0.16769900  1
  C  365  1  0.94286900  0.31637200  0.14380800  1
  C  366  1  0.96049600  0.33816800  0.12897100  1
  C  367  1  0.01080400  0.39017200  0.17183000  1
  C  368  1  0.95598300  0.33620000  0.10474300  1
  C  370  1  0.00042500  0.38517900  0.12359700  1
  C  371  1  0.02053400  0.41111000  0.13311100  1
  C  372  1  0.03585400  0.43386600  0.11818000  1
  C  373  1  0.03525300  0.42884600  0.09415500  1
  C  374  1  0.01743700  0.40256800  0.08432500  1
  C  375  1  0.99769300  0.38161900  0.09914000  1
  C  376  1  0.02474400  0.41330200  0.15734500  1
  C  378  1  0.97478900  0.35700100  0.09022400  1
  C  383  1  0.92026200  0.29385300  0.13634400  1
  C  384  1  0.02307000  0.39640300  0.06099200  1
  C  385  1  0.04974900  0.46185000  0.12587300  1
  C  386  1  0.98334900  0.33915800  0.20106500  1
  C  391  1  0.48298100  0.72498000  0.86401200  1
  C  392  1  0.48925300  0.72306900  0.83973400  1
  C  393  1  0.47456000  0.74659800  0.82484000  1
  C  394  1  0.45039200  0.76988600  0.83414100  1
  C  395  1  0.44271200  0.77149800  0.85786200  1
  C  396  1  0.46017600  0.74964300  0.87307800  1
  C  397  1  0.51062300  0.69764200  0.83130800  1
  C  398  1  0.45552000  0.75157700  0.89720600  1
  C  400  1  0.49991100  0.70254300  0.87930500  1
  C  401  1  0.52003800  0.67660800  0.87022100  1
  C  402  1  0.53515100  0.65377400  0.88546700  1
  C  403  1  0.53427200  0.65868200  0.90948600  1
  C  404  1  0.51641100  0.68495100  0.91893000  1
  C  405  1  0.49696000  0.70603300  0.90369900  1
  C  406  1  0.52445400  0.67448200  0.84608700  1
  C  408  1  0.47414900  0.73070500  0.91212900  1
  C  413  1  0.42012600  0.79404000  0.86483600  1
  C  414  1  0.52168900  0.69092000  0.94241700  1
  C  415  1  0.54912400  0.62582600  0.87803900  1
  C  416  1  0.48333600  0.74864400  0.80149700  1
  C  421  1  0.57048800  0.72670000  0.14236900  1
  C  422  1  0.55401800  0.73341900  0.16441700  1
  C  423  1  0.56770500  0.75912000  0.17733900  1
  C  424  1  0.59262700  0.77962800  0.16683500  1
  C  425  1  0.62122600  0.76720600  0.15064500  1
  C  426  1  0.60371400  0.74400900  0.13457600  1
  C  427  1  0.52146100  0.71544200  0.17181900  1
  C  428  1  0.61626000  0.74067700  0.11167100  1
  C  430  1  0.55281700  0.70398700  0.12768300  1
  C  431  1  0.52046700  0.68586600  0.13585700  1
  C  432  1  0.50327400  0.66308900  0.12130400  1
  C  433  1  0.51678100  0.65971800  0.09858800  1
  C  434  1  0.54750600  0.67838000  0.08985300  1
  C  435  1  0.56653100  0.70015500  0.10464400  1
  C  436  1  0.50587900  0.69171400  0.15819800  1
  C  438  1  0.59795900  0.71918500  0.09698100  1
  C  443  1  0.66316100  0.76125500  0.16063300  1
  C  444  1  0.55659700  0.67472800  0.06677100  1
  C  445  1  0.47425100  0.64503400  0.12779400  1
  C  446  1  0.56132800  0.76257100  0.20040000  1
  C  451  1  0.07155700  0.36149900  0.86197900  1
  C  452  1  0.05414800  0.35437400  0.83989900  1
  C  453  1  0.06767200  0.32866400  0.82723900  1
  C  454  1  0.09256500  0.30811300  0.83823700  1
  C  455  1  0.12217200  0.32115300  0.85422500  1
  C  456  1  0.10543000  0.34457700  0.87003600  1
  C  457  1  0.02094000  0.37192000  0.83219000  1
  C  458  1  0.11929900  0.34850700  0.89291400  1
  C  460  1  0.05419100  0.38420300  0.87642100  1
  C  461  1  0.02111200  0.40188000  0.86796500  1
  C  462  1  0.00415800  0.42461300  0.88229800  1
  C  463  1  0.01860600  0.42831500  0.90508300  1
  C  464  1  0.05011300  0.41009100  0.91406500  1
  C  465  1  0.06893900  0.38841800  0.89950400  1
  C  466  1  0.00557800  0.39564100  0.84558100  1
  C  468  1  0.10127200  0.36996600  0.90739400  1
  C  473  1  0.16348000  0.32717200  0.84428400  1
  C  474  1  0.05974200  0.41398400  0.93722100  1
  C  475  1  0.97444400  0.44224600  0.87556600  1
  C  476  1  0.06114100  0.32525600  0.80405500  1
  C  481  1  0.00544300  0.17382600  0.48134600  1
  C  483  1  0.99546300  0.20427500  0.51527600  1
  C  484  1  0.99770500  0.17760600  0.52899700  1
  C  486  1  0.00765700  0.14753500  0.49524300  1
  C  488  1  0.98982500  0.23503900  0.52507300  1
  C  494  1  0.50581000  0.91443600  0.52202400  1
  C  496  1  0.49537800  0.88408000  0.48788000  1
  C  497  1  0.49852400  0.91068400  0.47419500  1
  C  499  1  0.50891800  0.94065900  0.50816700  1
  C  501  1  0.48905500  0.85337700  0.47798700  1
  C  507  1  0.99872600  0.91515900  0.52233800  1
  C  509  1  0.00596100  0.88416400  0.48842100  1
  C  510  1  0.00582600  0.91079100  0.47462000  1
  C  512  1  0.99861500  0.94143200  0.50837400  1
  C  514  1  0.00931400  0.85316300  0.47868600  1
  C  520  1  0.49824800  0.17193800  0.48128600  1
  C  522  1  0.50628200  0.20270300  0.51542600  1
  C  523  1  0.50459200  0.17608400  0.52918700  1
  C  525  1  0.49657300  0.14568100  0.49521500  1
  C  527  1  0.51079700  0.23360600  0.52526900  1
  C  533  1  0.99020900  0.67602100  0.98051700  1
  C  535  1  0.98234900  0.70652600  0.01461100  1
  C  536  1  0.98409300  0.67978500  0.02826100  1
  C  538  1  0.99191400  0.64963900  0.99434000  1
  C  540  1  0.97772800  0.73733300  0.02451400  1
  C  546  1  0.49077200  0.41216400  0.02327600  1
  C  548  1  0.48216500  0.38190400  0.98894400  1
  C  549  1  0.48515800  0.40861500  0.97537700  1
  C  551  1  0.49374400  0.43851500  0.00953500  1
  C  553  1  0.47651700  0.35121200  0.97889800  1
  C  559  1  0.02757800  0.41321100  0.02251200  1
  C  561  1  0.03045400  0.38049000  0.98924300  1
  C  562  1  0.03610100  0.40625400  0.97498300  1
  C  564  1  0.03270800  0.43870900  0.00808300  1
  C  566  1  0.02853400  0.34900900  0.98020800  1
  C  572  1  0.52435800  0.67369700  0.98093200  1
  C  574  1  0.52891600  0.70601700  0.01443500  1
  C  575  1  0.53160600  0.67991700  0.02872100  1
  C  577  1  0.52661900  0.64791200  0.99538700  1
  C  579  1  0.52940800  0.73745700  0.02359700  1
  C  585  1  0.00627500  0.30438400  0.23036000  1
  C  587  1  0.01394000  0.31264100  0.27109000  1
  C  588  1  0.02583300  0.28181200  0.27410100  1
  C  590  1  0.01811300  0.27381100  0.23349700  1
  C  592  1  0.01129600  0.33442300  0.29044800  1
  C  598  1  0.50667500  0.78323400  0.77269200  1
  C  600  1  0.51413900  0.77486500  0.73211800  1
  C  601  1  0.52642100  0.80560000  0.72932700  1
  C  603  1  0.51891200  0.81370800  0.76977600  1
  C  605  1  0.51114500  0.75308300  0.71271800  1
  C  611  1  0.52469200  0.79310700  0.22687500  1
  C  613  1  0.51167700  0.78195200  0.26662700  1
  C  614  1  0.49316200  0.81085000  0.26917100  1
  C  616  1  0.50596100  0.82165500  0.22949400  1
  C  618  1  0.51547500  0.75971300  0.28568600  1
  C  624  1  0.02480800  0.29437500  0.77692400  1
  C  626  1  0.01132300  0.30538500  0.73693300  1
  C  627  1  0.99313000  0.27635700  0.73409500  1
  C  629  1  0.00641500  0.26568900  0.77400200  1
  C  631  1  0.01468500  0.32761900  0.71791600  1
  C  637  1  0.00154800  0.78253600  0.77209500  1
  C  639  1  0.98944900  0.77481500  0.73159800  1
  C  640  1  0.97932300  0.80605600  0.72903900  1
  C  642  1  0.99150600  0.81354200  0.76939800  1
  C  644  1  0.98901100  0.75306700  0.71212900  1
  C  650  1  0.50123200  0.30507500  0.23178500  1
  C  652  1  0.48948400  0.31297600  0.27205400  1
  C  653  1  0.47885300  0.28183800  0.27445200  1
  C  655  1  0.49069700  0.27416900  0.23432200  1
  C  657  1  0.48952600  0.33475800  0.29149800  1
  C  663  1  0.47649300  0.30548300  0.77274300  1
  C  665  1  0.49238400  0.31331300  0.73289100  1
  C  666  1  0.50810100  0.28331600  0.73160100  1
  C  668  1  0.49229400  0.27575000  0.77133500  1
  C  670  1  0.49158600  0.33449100  0.71306900  1
  C  676  1  0.97627800  0.78189900  0.23082400  1
  C  678  1  0.99282100  0.77446600  0.27095600  1
  C  679  1  0.00807300  0.80461400  0.27237800  1
  C  681  1  0.99161400  0.81178800  0.23236500  1
  C  683  1  0.99263800  0.75340900  0.29084600  1
  C  689  1  0.98378100  0.07904500  0.37072500  1
  C  691  1  0.94605800  0.03282400  0.37615500  1
  C  692  1  0.98070700  0.01540800  0.37097600  1
  C  694  1  0.01767300  0.06151400  0.36530200  1
  C  696  1  0.90766500  0.01935800  0.38338300  1
  C  702  1  0.48428400  0.00875300  0.63256400  1
  C  704  1  0.44608100  0.05488700  0.62702100  1
  C  705  1  0.48082900  0.07237600  0.63256300  1
  C  707  1  0.51824900  0.02635400  0.63842300  1
  C  709  1  0.40734300  0.06827400  0.61951300  1
  C  715  1  0.51670600  0.01458600  0.36899400  1
  C  717  1  0.55814900  0.05850400  0.37678300  1
  C  718  1  0.52457500  0.07784300  0.37253900  1
  C  720  1  0.48392100  0.03396100  0.36437100  1
  C  722  1  0.59810000  0.06944400  0.38445900  1
  C  728  1  0.01696100  0.07314300  0.63461800  1
  C  730  1  0.05812000  0.02921600  0.62715700  1
  C  731  1  0.02478100  0.00985700  0.63127100  1
  C  733  1  0.98436300  0.05374200  0.63896900  1
  C  735  1  0.09773500  0.01828100  0.61971500  1
  C  741  1  0.93842600  0.58717000  0.86420200  1
  C  743  1  0.88474900  0.55058300  0.86333800  1
  C  744  1  0.90992300  0.52983600  0.85174000  1
  C  746  1  0.96311000  0.56619800  0.85274800  1
  C  748  1  0.84299300  0.54337800  0.86956800  1
  C  754  1  0.43916300  0.50062100  0.13891900  1
  C  756  1  0.38542900  0.53712100  0.13956800  1
  C  757  1  0.41109800  0.55787000  0.15133800  1
  C  759  1  0.46433100  0.52158600  0.15055500  1
  C  761  1  0.34335000  0.54427600  0.13315600  1
  C  767  1  0.51024500  0.51133800  0.86977500  1
  C  769  1  0.55621500  0.55283600  0.87669200  1
  C  770  1  0.52434900  0.57398500  0.87315000  1
  C  772  1  0.47906900  0.53248400  0.86605200  1
  C  774  1  0.59752000  0.56148800  0.88364800  1
  C  780  1  0.01019200  0.57618800  0.13360700  1
  C  782  1  0.05637000  0.53488100  0.12746300  1
  C  783  1  0.02460100  0.51362800  0.13030100  1
  C  785  1  0.97919100  0.55493700  0.13681300  1
  C  787  1  0.09768100  0.52640100  0.12125400  1
  C  793  1  0.29370700  0.25155400  0.36106800  1
  C  795  1  0.23484000  0.28274500  0.36514100  1
  C  796  1  0.21022500  0.25661800  0.36161900  1
  C  798  1  0.26906600  0.22583200  0.35783600  1
  C  800  1  0.21926300  0.31383600  0.36882600  1
  C  806  1  0.79303000  0.83659700  0.64158800  1
  C  808  1  0.73413500  0.80511400  0.63771100  1
  C  809  1  0.70955800  0.83105200  0.64159500  1
  C  811  1  0.76841400  0.86214700  0.64511100  1
  C  813  1  0.71861300  0.77399600  0.63375100  1
  C  819  1  0.20985700  0.83627700  0.35324200  1
  C  821  1  0.26943300  0.80562000  0.35785500  1
  C  822  1  0.29353300  0.83147400  0.35284600  1
  C  824  1  0.23401700  0.86177500  0.34865600  1
  C  826  1  0.28565200  0.77505200  0.36316900  1
  C  832  1  0.70879900  0.25199700  0.65124000  1
  C  834  1  0.76815000  0.28234200  0.64590100  1
  C  835  1  0.79249500  0.25627100  0.65031300  1
  C  837  1  0.73315900  0.22630300  0.65529400  1
  C  839  1  0.78411300  0.31291900  0.64069400  1
  C  845  1  0.26747700  0.77552900  0.87602200  1
  C  847  1  0.20053500  0.79492100  0.87952100  1
  C  848  1  0.18533400  0.76826200  0.86845800  1
  C  850  1  0.25233500  0.74903000  0.86537700  1
  C  852  1  0.17541000  0.81987300  0.88846800  1
  C  858  1  0.76591100  0.31115800  0.13019700  1
  C  860  1  0.69849500  0.29251900  0.12597300  1
  C  861  1  0.68426400  0.31890200  0.13750400  1
  C  863  1  0.75168900  0.33745000  0.14124500  1
  C  865  1  0.67244100  0.26821400  0.11635300  1
  C  871  1  0.19782700  0.31264700  0.85789000  1
  C  873  1  0.26101200  0.29628000  0.84359400  1
  C  874  1  0.27963800  0.31938500  0.85624400  1
  C  876  1  0.21978200  0.33497000  0.87184100  1
  C  878  1  0.28208000  0.27478700  0.82906800  1
  C  884  1  0.69654100  0.77539200  0.14670300  1
  C  886  1  0.76134400  0.79094300  0.16041900  1
  C  887  1  0.77826500  0.76754100  0.14768900  1
  C  889  1  0.71677600  0.75271300  0.13263000  1
  C  891  1  0.78435300  0.81215000  0.17466600  1
  N  482  1  0.99931500  0.20103300  0.49208600  1
  N  485  1  0.00431500  0.15045800  0.51841800  1
  N  492  1  0.00880300  0.17122100  0.45867000  1
  N  493  1  0.99847100  0.17806100  0.55174800  1
  N  495  1  0.49907600  0.88731200  0.51115300  1
  N  498  1  0.50575600  0.93774200  0.48491600  1
  N  505  1  0.50910700  0.91698600  0.54477800  1
  N  506  1  0.49935000  0.91020000  0.45146300  1
  N  508  1  0.00258300  0.88768400  0.51162000  1
  N  511  1  0.00150900  0.93825300  0.48518000  1
  N  518  1  0.99572700  0.91795500  0.54505100  1
  N  519  1  0.00447500  0.90989500  0.45185500  1
  N  521  1  0.50317400  0.19928400  0.49214100  1
  N  524  1  0.49918700  0.14876600  0.51848400  1
  N  531  1  0.49544700  0.16926900  0.45849400  1
  N  532  1  0.50309900  0.17692400  0.55192100  1
  N  534  1  0.98531200  0.70328900  0.99137600  1
  N  537  1  0.98934100  0.65252600  0.01756200  1
  N  544  1  0.99237300  0.67349000  0.95777100  1
  N  545  1  0.98515600  0.68042100  0.05101000  1
  N  547  1  0.48494800  0.38504000  0.01225200  1
  N  550  1  0.49137600  0.43571800  0.98624600  1
  N  557  1  0.49276000  0.41458400  0.04608000  1
  N  558  1  0.48632600  0.40804900  0.95264700  1
  N  560  1  0.02662700  0.38525400  0.01226100  1
  N  563  1  0.03637800  0.43434500  0.98501500  1
  N  570  1  0.02243300  0.41686700  0.04506100  1
  N  571  1  0.03538500  0.40366300  0.95225100  1
  N  573  1  0.52555600  0.70159000  0.99128000  1
  N  576  1  0.52969900  0.65194200  0.01858300  1
  N  583  1  0.51975000  0.67037900  0.95822300  1
  N  584  1  0.53015600  0.68220900  0.05141100  1
  N  586  1  0.00458500  0.32246700  0.24936600  1
  N  589  1  0.02747700  0.26378200  0.25504100  1
  N  596  1  0.99660100  0.31378800  0.20932900  1
  N  597  1  0.03638300  0.27135200  0.29480500  1
  N  599  1  0.50470900  0.76513900  0.75366200  1
  N  602  1  0.52833600  0.82364100  0.74840800  1
  N  609  1  0.49689400  0.77392800  0.79352800  1
  N  610  1  0.53693200  0.81598500  0.70881000  1
  N  612  1  0.52663700  0.77451800  0.24565400  1
  N  615  1  0.49116800  0.82939100  0.25033900  1
  N  622  1  0.53961900  0.78565600  0.20658400  1
  N  623  1  0.47827100  0.81932400  0.28931500  1
  N  625  1  0.02637700  0.31295300  0.75816500  1
  N  628  1  0.99151500  0.25782500  0.75290500  1
  N  635  1  0.03981300  0.30195200  0.79746900  1
  N  636  1  0.97809500  0.26777800  0.71371200  1
  N  638  1  0.00020000  0.76455800  0.75298800  1
  N  641  1  0.98075800  0.82403600  0.74817200  1
  N  648  1  0.01294000  0.77248400  0.79270000  1
  N  649  1  0.96797400  0.81699300  0.70862000  1
  N  651  1  0.50027700  0.32309200  0.25085500  1
  N  654  1  0.47990700  0.26381400  0.25536000  1
  N  661  1  0.51264400  0.31499900  0.21137700  1
  N  662  1  0.46756200  0.27102200  0.29469000  1
  N  664  1  0.47727100  0.32288600  0.75332600  1
  N  667  1  0.50730600  0.26589000  0.75103500  1
  N  674  1  0.46119700  0.31512500  0.79245100  1
  N  675  1  0.52320200  0.27293300  0.71200500  1
  N  677  1  0.97759000  0.76462200  0.25031300  1
  N  680  1  0.00675100  0.82191500  0.25286900  1
  N  687  1  0.96089500  0.77198400  0.21091100  1
  N  688  1  0.02335200  0.81522300  0.29215800  1
  N  690  1  0.94960000  0.06383900  0.37617800  1
  N  693  1  0.01496700  0.03072100  0.36618500  1
  N  700  1  0.98901700  0.10858700  0.37423200  1
  N  701  1  0.98647700  0.98597100  0.37457600  1
  N  703  1  0.44980300  0.02388500  0.62689100  1
  N  706  1  0.51534300  0.05714100  0.63761600  1
  N  713  1  0.48950200  0.97923800  0.62903700  1
  N  714  1  0.48633800  0.10184600  0.62911600  1
  N  716  1  0.55227000  0.02776600  0.37521100  1
  N  719  1  0.48903400  0.06443500  0.36682400  1
  N  726  1  0.50953900  0.98509700  0.37119600  1
  N  727  1  0.52102600  0.10730800  0.37692500  1
  N  729  1  0.05224800  0.05995300  0.62861500  1
  N  732  1  0.98943700  0.02325500  0.63668500  1
  N  739  1  0.00953400  0.10257800  0.63215600  1
  N  740  1  0.02112100  0.98038000  0.62688500  1
  N  742  1  0.90033300  0.57831600  0.86907700  1
  N  745  1  0.94801800  0.53844000  0.84694400  1
  N  752  1  0.95343700  0.61386800  0.87052900  1
  N  753  1  0.89873000  0.50373200  0.84574700  1
  N  755  1  0.40081600  0.50942700  0.13386600  1
  N  758  1  0.44944000  0.54930600  0.15632600  1
  N  765  1  0.45392000  0.47392100  0.13270700  1
  N  766  1  0.40011300  0.58393600  0.15732800  1
  N  768  1  0.54730800  0.52252100  0.87524700  1
  N  771  1  0.48723000  0.56259900  0.86835500  1
  N  778  1  0.50047800  0.48233000  0.87219900  1
  N  779  1  0.52420500  0.60353500  0.87771100  1
  N  781  1  0.04730000  0.56516200  0.12881400  1
  N  784  1  0.98749200  0.52485700  0.13456900  1
  N  791  1  0.00033500  0.60520500  0.13113700  1
  N  792  1  0.02468400  0.48404500  0.12582600  1
  N  794  1  0.27545800  0.27890200  0.36452300  1
  N  797  1  0.22873200  0.22949200  0.35803400  1
  N  804  1  0.33288700  0.24796200  0.35935200  1
  N  805  1  0.17070200  0.25470700  0.35980700  1
  N  807  1  0.77475200  0.80918800  0.63808100  1
  N  810  1  0.72810600  0.85826500  0.64512400  1
  N  817  1  0.83229900  0.84031200  0.64328800  1
  N  818  1  0.67012100  0.83287200  0.64337000  1
  N  820  1  0.22871800  0.80931300  0.35768700  1
  N  823  1  0.27439700  0.85827400  0.34855500  1
  N  830  1  0.17043500  0.83982900  0.35232000  1
  N  831  1  0.33304600  0.83372500  0.35131400  1
  N  833  1  0.72744900  0.27890000  0.64668500  1
  N  836  1  0.77355400  0.22956000  0.65479500  1
  N  843  1  0.66946900  0.24862100  0.65260000  1
  N  844  1  0.83211300  0.25383300  0.65147900  1
  N  846  1  0.24104200  0.79715100  0.88275300  1
  N  849  1  0.21206000  0.74649600  0.86218200  1
  N  856  1  0.30421500  0.77929700  0.87964900  1
  N  857  1  0.14741600  0.76076000  0.86436600  1
  N  859  1  0.73881500  0.29001200  0.12290900  1
  N  862  1  0.71160000  0.34026400  0.14426900  1
  N  869  1  0.80241800  0.30719400  0.12666800  1
  N  870  1  0.64657100  0.32662900  0.14124400  1
  N  872  1  0.22246000  0.29345600  0.84487300  1
  N  875  1  0.25808300  0.33706000  0.86898600  1
  N  882  1  0.15648100  0.30171100  0.86114700  1
  N  883  1  0.31651500  0.32813200  0.85372100  1
  N  885  1  0.72276200  0.79428700  0.15947700  1
  N  888  1  0.75525300  0.75009900  0.13516000  1
  N  895  1  0.65508500  0.78682100  0.14392800  1
  N  896  1  0.81520500  0.75855700  0.15002100  1
