# generated using pymatgen
data_CuH5C21(OF3)4
_symmetry_space_group_name_H-M   'P 1'
_cell_length_a   32.22270000
_cell_length_b   32.85000000
_cell_length_c   34.10280000
_cell_angle_alpha   89.66690000
_cell_angle_beta   90.09650000
_cell_angle_gamma   89.97540000
_symmetry_Int_Tables_number   1
_chemical_formula_structural   CuH5C21(OF3)4
_chemical_formula_sum   'Cu24 H120 C504 O96 F288'
_cell_volume   36097.68432139
_cell_formula_units_Z   24
loop_
 _symmetry_equiv_pos_site_id
 _symmetry_equiv_pos_as_xyz
  1  'x, y, z'
loop_
 _atom_site_type_symbol
 _atom_site_label
 _atom_site_symmetry_multiplicity
 _atom_site_fract_x
 _atom_site_fract_y
 _atom_site_fract_z
 _atom_site_occupancy
  Cu  Cu1  1  0.00030000  0.38155000  0.37538000  1.0
  Cu  Cu2  1  0.00194000  0.32224000  0.32327000  1.0
  Cu  Cu3  1  0.99749000  0.62302000  0.62302000  1.0
  Cu  Cu4  1  0.99855000  0.68152000  0.67609000  1.0
  Cu  Cu5  1  0.00181000  0.61382000  0.38533000  1.0
  Cu  Cu6  1  0.00111000  0.67461000  0.33417000  1.0
  Cu  Cu7  1  0.00066000  0.38442000  0.61665000  1.0
  Cu  Cu8  1  0.99971000  0.32597000  0.67041000  1.0
  Cu  Cu9  1  0.38490000  0.99561000  0.37358000  1.0
  Cu  Cu10  1  0.32432000  0.99873000  0.32128000  1.0
  Cu  Cu11  1  0.60806000  0.99923000  0.61961000  1.0
  Cu  Cu12  1  0.67038000  0.99432000  0.66929000  1.0
  Cu  Cu13  1  0.38876000  0.00221000  0.62842000  1.0
  Cu  Cu14  1  0.32543000  0.00181000  0.67701000  1.0
  Cu  Cu15  1  0.61666000  0.99984000  0.37399000  1.0
  Cu  Cu16  1  0.67693000  0.00165000  0.32127000  1.0
  Cu  Cu17  1  0.38251000  0.38548000  0.00227000  1.0
  Cu  Cu18  1  0.32593000  0.32716000  0.00377000  1.0
  Cu  Cu19  1  0.62477000  0.62495000  0.99854000  1.0
  Cu  Cu20  1  0.68407000  0.68065000  0.99441000  1.0
  Cu  Cu21  1  0.61772000  0.38322000  0.00150000  1.0
  Cu  Cu22  1  0.67779000  0.32841000  0.00701000  1.0
  Cu  Cu23  1  0.38177000  0.61969000  0.00005000  1.0
  Cu  Cu24  1  0.32501000  0.67745000  0.99440000  1.0
  H  H1  1  0.42519000  0.78010000  0.78942000  1.0
  H  H2  1  0.57848000  0.78910000  0.78928000  1.0
  H  H3  1  0.42354000  0.20102000  0.19966000  1.0
  H  H4  1  0.57651000  0.21393000  0.20972000  1.0
  H  H5  1  0.58004000  0.19063000  0.81138000  1.0
  H  H6  1  0.42656000  0.19955000  0.81308000  1.0
  H  H7  1  0.42719000  0.79156000  0.19915000  1.0
  H  H8  1  0.57650000  0.82020000  0.17777000  1.0
  H  H9  1  0.79854000  0.57352000  0.80199000  1.0
  H  H10  1  0.80545000  0.42261000  0.80341000  1.0
  H  H11  1  0.20482000  0.58033000  0.20597000  1.0
  H  H12  1  0.19811000  0.43023000  0.19359000  1.0
  H  H13  1  0.80479000  0.57954000  0.20124000  1.0
  H  H14  1  0.79007000  0.42961000  0.20154000  1.0
  H  H15  1  0.20383000  0.57475000  0.80336000  1.0
  H  H16  1  0.18642000  0.42480000  0.80878000  1.0
  H  H17  1  0.78872000  0.80226000  0.57172000  1.0
  H  H18  1  0.79768000  0.79274000  0.42691000  1.0
  H  H19  1  0.19012000  0.19077000  0.42628000  1.0
  H  H20  1  0.20148000  0.19186000  0.57084000  1.0
  H  H21  1  0.19429000  0.81285000  0.57491000  1.0
  H  H22  1  0.20752000  0.79618000  0.43110000  1.0
  H  H23  1  0.80729000  0.18984000  0.42568000  1.0
  H  H24  1  0.80084000  0.19830000  0.57049000  1.0
  H  H25  1  0.03445000  0.25229000  0.42855000  1.0
  H  H26  1  0.18483000  0.28122000  0.43968000  1.0
  H  H27  1  0.12991000  0.67885000  0.61219000  1.0
  H  H28  1  0.09072000  0.79224000  0.52302000  1.0
  H  H29  1  0.94774000  0.75725000  0.41101000  1.0
  H  H30  1  0.82354000  0.69342000  0.46979000  1.0
  H  H31  1  0.86906000  0.33489000  0.59245000  1.0
  H  H32  1  0.90971000  0.20650000  0.52789000  1.0
  H  H33  1  0.37469000  0.12807000  0.31367000  1.0
  H  H34  1  0.49242000  0.10104000  0.22470000  1.0
  H  H35  1  0.60456000  0.05116000  0.76292000  1.0
  H  H36  1  0.52590000  0.16831000  0.70879000  1.0
  H  H37  1  0.44055000  0.88995000  0.65375000  1.0
  H  H38  1  0.41928000  0.85339000  0.79286000  1.0
  H  H39  1  0.55430000  0.96793000  0.25198000  1.0
  H  H40  1  0.57988000  0.81964000  0.26375000  1.0
  H  H41  1  0.31326000  0.37845000  0.12648000  1.0
  H  H42  1  0.22813000  0.50009000  0.09650000  1.0
  H  H43  1  0.65593000  0.57244000  0.10489000  1.0
  H  H44  1  0.80657000  0.58289000  0.12996000  1.0
  H  H45  1  0.76614000  0.39331000  0.94257000  1.0
  H  H46  1  0.69720000  0.46894000  0.83509000  1.0
  H  H47  1  0.34404000  0.58060000  0.88139000  1.0
  H  H48  1  0.19566000  0.54571000  0.89790000  1.0
  H  H49  1  0.89270000  0.44030000  0.34167000  1.0
  H  H50  1  0.86317000  0.41715000  0.20139000  1.0
  H  H51  1  0.88275000  0.57300000  0.66007000  1.0
  H  H52  1  0.88806000  0.56289000  0.80473000  1.0
  H  H53  1  0.03575000  0.42233000  0.75150000  1.0
  H  H54  1  0.18083000  0.45136000  0.71297000  1.0
  H  H55  1  0.04772000  0.58870000  0.24733000  1.0
  H  H56  1  0.18536000  0.54833000  0.29951000  1.0
  H  H57  1  0.60951000  0.24341000  0.07092000  1.0
  H  H58  1  0.52294000  0.31387000  0.16907000  1.0
  H  H59  1  0.44956000  0.66018000  0.09258000  1.0
  H  H60  1  0.41817000  0.80353000  0.12389000  1.0
  H  H61  1  0.57898000  0.64843000  0.88479000  1.0
  H  H62  1  0.56870000  0.79780000  0.86762000  1.0
  H  H63  1  0.38800000  0.23965000  0.94163000  1.0
  H  H64  1  0.49189000  0.29913000  0.85190000  1.0
  H  H65  1  0.74831000  0.03328000  0.43280000  1.0
  H  H66  1  0.71537000  0.18042000  0.43527000  1.0
  H  H67  1  0.25145000  0.03776000  0.58010000  1.0
  H  H68  1  0.29593000  0.17754000  0.54515000  1.0
  H  H69  1  0.34172000  0.87087000  0.40467000  1.0
  H  H70  1  0.20485000  0.90253000  0.46270000  1.0
  H  H71  1  0.66418000  0.86667000  0.60886000  1.0
  H  H72  1  0.76792000  0.90290000  0.50766000  1.0
  H  H73  1  0.92882000  0.76684000  0.61637000  1.0
  H  H74  1  0.82460000  0.69739000  0.53468000  1.0
  H  H75  1  0.94403000  0.23483000  0.38944000  1.0
  H  H76  1  0.83745000  0.29793000  0.47343000  1.0
  H  H77  1  0.07455000  0.24273000  0.62366000  1.0
  H  H78  1  0.15783000  0.29507000  0.51337000  1.0
  H  H79  1  0.07241000  0.75777000  0.38706000  1.0
  H  H80  1  0.15926000  0.69845000  0.49212000  1.0
  H  H81  1  0.63338000  0.86329000  0.68490000  1.0
  H  H82  1  0.50682000  0.88794000  0.76180000  1.0
  H  H83  1  0.44471000  0.89255000  0.33506000  1.0
  H  H84  1  0.41634000  0.86985000  0.19445000  1.0
  H  H85  1  0.56171000  0.11044000  0.34522000  1.0
  H  H86  1  0.57474000  0.13293000  0.20240000  1.0
  H  H87  1  0.37025000  0.13460000  0.69897000  1.0
  H  H88  1  0.48366000  0.09231000  0.78738000  1.0
  H  H89  1  0.66567000  0.59938000  0.87558000  1.0
  H  H90  1  0.79912000  0.52931000  0.90109000  1.0
  H  H91  1  0.23427000  0.40141000  0.95010000  1.0
  H  H92  1  0.29676000  0.45728000  0.82881000  1.0
  H  H93  1  0.34824000  0.56555000  0.10406000  1.0
  H  H94  1  0.19970000  0.58690000  0.13313000  1.0
  H  H95  1  0.67356000  0.38788000  0.12988000  1.0
  H  H96  1  0.77759000  0.49421000  0.09970000  1.0
  H  H97  1  0.06663000  0.62284000  0.76158000  1.0
  H  H98  1  0.16540000  0.52493000  0.70397000  1.0
  H  H99  1  0.12543000  0.41773000  0.33766000  1.0
  H  H100  1  0.10505000  0.45410000  0.19781000  1.0
  H  H101  1  0.96297000  0.55249000  0.27011000  1.0
  H  H102  1  0.81273000  0.58329000  0.27493000  1.0
  H  H103  1  0.96212000  0.42971000  0.74544000  1.0
  H  H104  1  0.81250000  0.43743000  0.71304000  1.0
  H  H105  1  0.38258000  0.66650000  0.86794000  1.0
  H  H106  1  0.48972000  0.77145000  0.89085000  1.0
  H  H107  1  0.61477000  0.32419000  0.87889000  1.0
  H  H108  1  0.53186000  0.20257000  0.91428000  1.0
  H  H109  1  0.39302000  0.33829000  0.13140000  1.0
  H  H110  1  0.47508000  0.21437000  0.10282000  1.0
  H  H111  1  0.55844000  0.75026000  0.02905000  1.0
  H  H112  1  0.58463000  0.73501000  0.17150000  1.0
  H  H113  1  0.23828000  0.95166000  0.59965000  1.0
  H  H114  1  0.30543000  0.83697000  0.53089000  1.0
  H  H115  1  0.64791000  0.88557000  0.42363000  1.0
  H  H116  1  0.80080000  0.87534000  0.43038000  1.0
  H  H117  1  0.75594000  0.06924000  0.61926000  1.0
  H  H118  1  0.69912000  0.15235000  0.51086000  1.0
  H  H119  1  0.23720000  0.05948000  0.38308000  1.0
  H  H120  1  0.29989000  0.15839000  0.47411000  1.0
  C  C1  1  0.05520000  0.31628000  0.38732000  1.0
  C  C2  1  0.94386000  0.38468000  0.31233000  1.0
  C  C3  1  0.94874000  0.31418000  0.38823000  1.0
  C  C4  1  0.05334000  0.39035000  0.31114000  1.0
  C  C5  1  0.94691000  0.61363000  0.68856000  1.0
  C  C6  1  0.04917000  0.69027000  0.61035000  1.0
  C  C7  1  0.05440000  0.61673000  0.68524000  1.0
  C  C8  1  0.94075000  0.68776000  0.61496000  1.0
  C  C9  1  0.94795000  0.67840000  0.39962000  1.0
  C  C10  1  0.05569000  0.60893000  0.32175000  1.0
  C  C11  1  0.05517000  0.68065000  0.39833000  1.0
  C  C12  1  0.94704000  0.61052000  0.32043000  1.0
  C  C13  1  0.94843000  0.31767000  0.60438000  1.0
  C  C14  1  0.05233000  0.39282000  0.68200000  1.0
  C  C15  1  0.05571000  0.31846000  0.60774000  1.0
  C  C16  1  0.94533000  0.39093000  0.68015000  1.0
  C  C17  1  0.31717000  0.94573000  0.38669000  1.0
  C  C18  1  0.39345000  0.05007000  0.31152000  1.0
  C  C19  1  0.31820000  0.05072000  0.38470000  1.0
  C  C20  1  0.38764000  0.94289000  0.30791000  1.0
  C  C21  1  0.60415000  0.04908000  0.68523000  1.0
  C  C22  1  0.67360000  0.94617000  0.60219000  1.0
  C  C23  1  0.60610000  0.93904000  0.67919000  1.0
  C  C24  1  0.67735000  0.04976000  0.60679000  1.0
  C  C25  1  0.32315000  0.05451000  0.61161000  1.0
  C  C26  1  0.39042000  0.94375000  0.68779000  1.0
  C  C27  1  0.31917000  0.95220000  0.61164000  1.0
  C  C28  1  0.38904000  0.05605000  0.69340000  1.0
  C  C29  1  0.60943000  0.95083000  0.30726000  1.0
  C  C30  1  0.68411000  0.05072000  0.38800000  1.0
  C  C31  1  0.61099000  0.05671000  0.31232000  1.0
  C  C32  1  0.68338000  0.94508000  0.38256000  1.0
  C  C33  1  0.31504000  0.39625000  0.05163000  1.0
  C  C34  1  0.39639000  0.31862000  0.95463000  1.0
  C  C35  1  0.31497000  0.38902000  0.94905000  1.0
  C  C36  1  0.39152000  0.32017000  0.05600000  1.0
  C  C37  1  0.69191000  0.62019000  0.05175000  1.0
  C  C38  1  0.61777000  0.68700000  0.94197000  1.0
  C  C39  1  0.69126000  0.61032000  0.94829000  1.0
  C  C40  1  0.61617000  0.69466000  0.04407000  1.0
  C  C41  1  0.60861000  0.32228000  0.05755000  1.0
  C  C42  1  0.68475000  0.39164000  0.95092000  1.0
  C  C43  1  0.61331000  0.31217000  0.95534000  1.0
  C  C44  1  0.68410000  0.39704000  0.05376000  1.0
  C  C45  1  0.31442000  0.60777000  0.94899000  1.0
  C  C46  1  0.39045000  0.68966000  0.04703000  1.0
  C  C47  1  0.31464000  0.61682000  0.05231000  1.0
  C  C48  1  0.39353000  0.68053000  0.94359000  1.0
  C  C49  1  0.47813000  0.80789000  0.76146000  1.0
  C  C50  1  0.52259000  0.81004000  0.76110000  1.0
  C  C51  1  0.54510000  0.78575000  0.78752000  1.0
  C  C52  1  0.52549000  0.75972000  0.81426000  1.0
  C  C53  1  0.48162000  0.75734000  0.81492000  1.0
  C  C54  1  0.45876000  0.78080000  0.78793000  1.0
  C  C55  1  0.47849000  0.18011000  0.22994000  1.0
  C  C56  1  0.52234000  0.18396000  0.23282000  1.0
  C  C57  1  0.54297000  0.21176000  0.20832000  1.0
  C  C58  1  0.52149000  0.23408000  0.17972000  1.0
  C  C59  1  0.47773000  0.23190000  0.17812000  1.0
  C  C60  1  0.45677000  0.20471000  0.20296000  1.0
  C  C61  1  0.52340000  0.16797000  0.78614000  1.0
  C  C62  1  0.47923000  0.17149000  0.78564000  1.0
  C  C63  1  0.46000000  0.19785000  0.81224000  1.0
  C  C64  1  0.48311000  0.22019000  0.83954000  1.0
  C  C65  1  0.52701000  0.21835000  0.83842000  1.0
  C  C66  1  0.54652000  0.19262000  0.81154000  1.0
  C  C67  1  0.48106000  0.77718000  0.16465000  1.0
  C  C68  1  0.52359000  0.78587000  0.15822000  1.0
  C  C69  1  0.54386000  0.81382000  0.18249000  1.0
  C  C70  1  0.52227000  0.83525000  0.21139000  1.0
  C  C71  1  0.47970000  0.82693000  0.21789000  1.0
  C  C72  1  0.46001000  0.79737000  0.19487000  1.0
  C  C73  1  0.77519000  0.51861000  0.82858000  1.0
  C  C74  1  0.77829000  0.47562000  0.83013000  1.0
  C  C75  1  0.80396000  0.45555000  0.80328000  1.0
  C  C76  1  0.82938000  0.47766000  0.77755000  1.0
  C  C77  1  0.82662000  0.52057000  0.77646000  1.0
  C  C78  1  0.79931000  0.54052000  0.80174000  1.0
  C  C79  1  0.23066000  0.52800000  0.17669000  1.0
  C  C80  1  0.22876000  0.48480000  0.17315000  1.0
  C  C81  1  0.20091000  0.46288000  0.19694000  1.0
  C  C82  1  0.17542000  0.48254000  0.22408000  1.0
  C  C83  1  0.17615000  0.52529000  0.22642000  1.0
  C  C84  1  0.20460000  0.54740000  0.20387000  1.0
  C  C85  1  0.77198000  0.52873000  0.17667000  1.0
  C  C86  1  0.76840000  0.48570000  0.17618000  1.0
  C  C87  1  0.79279000  0.46248000  0.20211000  1.0
  C  C88  1  0.82185000  0.48051000  0.22746000  1.0
  C  C89  1  0.82744000  0.52336000  0.22581000  1.0
  C  C90  1  0.80120000  0.54671000  0.20171000  1.0
  C  C91  1  0.16916000  0.52362000  0.78138000  1.0
  C  C92  1  0.16459000  0.48075000  0.78270000  1.0
  C  C93  1  0.18964000  0.45764000  0.80811000  1.0
  C  C94  1  0.21765000  0.47654000  0.83362000  1.0
  C  C95  1  0.22326000  0.51914000  0.83130000  1.0
  C  C96  1  0.19963000  0.54206000  0.80468000  1.0
  C  C97  1  0.76317000  0.82326000  0.51677000  1.0
  C  C98  1  0.76606000  0.82079000  0.47535000  1.0
  C  C99  1  0.79552000  0.79467000  0.45858000  1.0
  C  C100  1  0.82408000  0.77318000  0.48179000  1.0
  C  C101  1  0.82167000  0.77615000  0.52320000  1.0
  C  C102  1  0.79028000  0.79990000  0.54005000  1.0
  C  C103  1  0.21786000  0.16179000  0.47665000  1.0
  C  C104  1  0.22079000  0.16218000  0.51806000  1.0
  C  C105  1  0.19711000  0.19023000  0.53946000  1.0
  C  C106  1  0.16741000  0.21535000  0.52112000  1.0
  C  C107  1  0.16480000  0.21504000  0.47952000  1.0
  C  C108  1  0.19116000  0.18955000  0.45801000  1.0
  C  C109  1  0.22415000  0.83463000  0.52248000  1.0
  C  C110  1  0.22840000  0.82917000  0.48162000  1.0
  C  C111  1  0.20429000  0.79987000  0.46247000  1.0
  C  C112  1  0.17422000  0.77733000  0.48285000  1.0
  C  C113  1  0.17182000  0.78104000  0.52416000  1.0
  C  C114  1  0.19698000  0.80939000  0.54346000  1.0
  C  C115  1  0.78128000  0.16384000  0.47813000  1.0
  C  C116  1  0.77945000  0.16577000  0.51965000  1.0
  C  C117  1  0.80270000  0.19581000  0.53894000  1.0
  C  C118  1  0.83035000  0.22098000  0.51832000  1.0
  C  C119  1  0.83334000  0.21771000  0.47706000  1.0
  C  C120  1  0.80693000  0.19081000  0.45743000  1.0
  C  C121  1  0.06743000  0.25831000  0.43114000  1.0
  C  C122  1  0.08380000  0.29237000  0.41183000  1.0
  C  C123  1  0.12651000  0.30126000  0.41467000  1.0
  C  C124  1  0.15190000  0.27516000  0.43711000  1.0
  C  C125  1  0.13549000  0.24115000  0.45696000  1.0
  C  C126  1  0.09264000  0.23199000  0.45331000  1.0
  C  C127  1  0.07255000  0.19545000  0.47289000  1.0
  C  C128  1  0.14487000  0.33777000  0.39359000  1.0
  C  C129  1  0.12176000  0.70338000  0.59226000  1.0
  C  C130  1  0.07978000  0.71310000  0.58730000  1.0
  C  C131  1  0.06789000  0.74525000  0.56198000  1.0
  C  C132  1  0.09898000  0.76735000  0.54249000  1.0
  C  C133  1  0.14109000  0.75770000  0.54738000  1.0
  C  C134  1  0.15296000  0.72516000  0.57248000  1.0
  C  C135  1  0.19818000  0.71339000  0.57831000  1.0
  C  C136  1  0.02257000  0.75608000  0.55595000  1.0
  C  C137  1  0.92110000  0.74330000  0.42500000  1.0
  C  C138  1  0.91677000  0.70083000  0.42305000  1.0
  C  C139  1  0.88225000  0.68192000  0.44140000  1.0
  C  C140  1  0.85174000  0.70686000  0.45850000  1.0
  C  C141  1  0.85692000  0.74913000  0.46172000  1.0
  C  C142  1  0.89224000  0.76780000  0.44471000  1.0
  C  C143  1  0.89918000  0.81344000  0.44653000  1.0
  C  C144  1  0.87766000  0.63592000  0.44368000  1.0
  C  C145  1  0.87759000  0.30679000  0.57834000  1.0
  C  C146  1  0.91898000  0.29383000  0.58069000  1.0
  C  C147  1  0.93121000  0.25739000  0.56208000  1.0
  C  C148  1  0.90109000  0.23452000  0.54227000  1.0
  C  C149  1  0.85949000  0.24685000  0.54074000  1.0
  C  C150  1  0.84713000  0.28335000  0.55930000  1.0
  C  C151  1  0.80199000  0.29670000  0.56057000  1.0
  C  C152  1  0.97607000  0.24336000  0.56220000  1.0
  C  C153  1  0.40132000  0.12265000  0.29501000  1.0
  C  C154  1  0.41542000  0.08267000  0.29045000  1.0
  C  C155  1  0.44952000  0.07456000  0.26585000  1.0
  C  C156  1  0.46786000  0.10707000  0.24545000  1.0
  C  C157  1  0.45549000  0.14761000  0.25147000  1.0
  C  C158  1  0.42155000  0.15568000  0.27691000  1.0
  C  C159  1  0.40529000  0.19815000  0.28536000  1.0
  C  C160  1  0.46595000  0.03167000  0.26087000  1.0
  C  C161  1  0.58734000  0.07678000  0.75112000  1.0
  C  C162  1  0.58397000  0.08077000  0.71019000  1.0
  C  C163  1  0.56212000  0.11486000  0.69446000  1.0
  C  C164  1  0.54324000  0.14260000  0.72027000  1.0
  C  C165  1  0.54609000  0.13814000  0.76105000  1.0
  C  C166  1  0.56863000  0.10464000  0.77697000  1.0
  C  C167  1  0.57303000  0.09766000  0.82095000  1.0
  C  C168  1  0.56041000  0.12345000  0.65076000  1.0
  C  C169  1  0.43524000  0.88199000  0.68420000  1.0
  C  C170  1  0.40852000  0.90638000  0.70693000  1.0
  C  C171  1  0.39971000  0.89352000  0.74601000  1.0
  C  C172  1  0.42261000  0.86076000  0.76206000  1.0
  C  C173  1  0.45077000  0.83767000  0.73974000  1.0
  C  C174  1  0.45428000  0.84653000  0.69914000  1.0
  C  C175  1  0.47667000  0.81945000  0.67018000  1.0
  C  C176  1  0.36623000  0.91320000  0.77096000  1.0
  C  C177  1  0.55943000  0.93541000  0.25473000  1.0
  C  C178  1  0.58743000  0.92103000  0.28303000  1.0
  C  C179  1  0.59585000  0.87897000  0.28616000  1.0
  C  C180  1  0.57459000  0.85213000  0.26133000  1.0
  C  C181  1  0.54526000  0.86626000  0.23400000  1.0
  C  C182  1  0.53905000  0.90874000  0.22907000  1.0
  C  C183  1  0.51288000  0.92765000  0.19669000  1.0
  C  C184  1  0.62627000  0.86268000  0.31641000  1.0
  C  C185  1  0.29505000  0.40552000  0.12029000  1.0
  C  C186  1  0.29178000  0.41906000  0.08141000  1.0
  C  C187  1  0.26820000  0.45439000  0.07269000  1.0
  C  C188  1  0.24785000  0.47431000  0.10343000  1.0
  C  C189  1  0.25232000  0.46195000  0.14272000  1.0
  C  C190  1  0.27702000  0.42706000  0.15145000  1.0
  C  C191  1  0.28575000  0.41147000  0.19275000  1.0
  C  C192  1  0.26385000  0.47310000  0.03212000  1.0
  C  C193  1  0.68896000  0.57525000  0.11032000  1.0
  C  C194  1  0.71305000  0.60060000  0.08596000  1.0
  C  C195  1  0.75562000  0.60663000  0.09571000  1.0
  C  C196  1  0.77340000  0.58187000  0.12497000  1.0
  C  C197  1  0.74943000  0.55565000  0.14837000  1.0
  C  C198  1  0.70581000  0.55539000  0.14320000  1.0
  C  C199  1  0.67556000  0.53717000  0.17239000  1.0
  C  C200  1  0.78245000  0.63922000  0.07667000  1.0
  C  C201  1  0.75113000  0.41029000  0.91923000  1.0
  C  C202  1  0.70757000  0.41257000  0.91883000  1.0
  C  C203  1  0.68741000  0.43420000  0.88798000  1.0
  C  C204  1  0.71190000  0.45273000  0.85893000  1.0
  C  C205  1  0.75532000  0.45163000  0.86014000  1.0
  C  C206  1  0.77556000  0.43009000  0.89082000  1.0
  C  C207  1  0.82261000  0.42802000  0.89413000  1.0
  C  C208  1  0.64046000  0.43809000  0.88520000  1.0
  C  C209  1  0.31174000  0.57222000  0.88527000  1.0
  C  C210  1  0.29125000  0.58377000  0.91974000  1.0
  C  C211  1  0.24886000  0.57376000  0.92479000  1.0
  C  C212  1  0.22832000  0.55263000  0.89494000  1.0
  C  C213  1  0.24863000  0.54112000  0.86050000  1.0
  C  C214  1  0.29088000  0.55175000  0.85494000  1.0
  C  C215  1  0.31515000  0.54383000  0.81765000  1.0
  C  C216  1  0.22519000  0.58538000  0.96138000  1.0
  C  C217  1  0.88644000  0.43500000  0.31087000  1.0
  C  C218  1  0.90893000  0.40479000  0.29090000  1.0
  C  C219  1  0.89731000  0.39539000  0.25166000  1.0
  C  C220  1  0.86908000  0.42128000  0.23237000  1.0
  C  C221  1  0.84864000  0.45315000  0.25175000  1.0
  C  C222  1  0.85464000  0.45748000  0.29270000  1.0
  C  C223  1  0.82734000  0.48302000  0.31916000  1.0
  C  C224  1  0.91349000  0.35838000  0.22985000  1.0
  C  C225  1  0.88405000  0.57084000  0.69174000  1.0
  C  C226  1  0.91613000  0.59067000  0.71195000  1.0
  C  C227  1  0.91801000  0.58786000  0.75343000  1.0
  C  C228  1  0.88722000  0.56553000  0.77307000  1.0
  C  C229  1  0.85544000  0.54551000  0.75276000  1.0
  C  C230  1  0.85282000  0.54922000  0.71145000  1.0
  C  C231  1  0.81740000  0.53279000  0.68675000  1.0
  C  C232  1  0.95327000  0.60643000  0.77689000  1.0
  C  C233  1  0.06754000  0.42875000  0.74332000  1.0
  C  C234  1  0.08159000  0.41584000  0.70662000  1.0
  C  C235  1  0.12275000  0.42431000  0.69491000  1.0
  C  C236  1  0.14896000  0.44504000  0.72103000  1.0
  C  C237  1  0.13462000  0.45890000  0.75741000  1.0
  C  C238  1  0.09327000  0.45044000  0.76907000  1.0
  C  C239  1  0.07461000  0.46592000  0.80699000  1.0
  C  C240  1  0.13869000  0.41173000  0.65503000  1.0
  C  C241  1  0.07782000  0.57970000  0.25879000  1.0
  C  C242  1  0.08736000  0.58794000  0.29804000  1.0
  C  C243  1  0.12661000  0.57659000  0.31333000  1.0
  C  C244  1  0.15503000  0.55692000  0.28860000  1.0
  C  C245  1  0.14499000  0.54762000  0.24970000  1.0
  C  C246  1  0.10584000  0.55943000  0.23420000  1.0
  C  C247  1  0.09157000  0.55169000  0.19239000  1.0
  C  C248  1  0.13860000  0.58563000  0.35537000  1.0
  C  C249  1  0.59017000  0.25876000  0.09213000  1.0
  C  C250  1  0.58596000  0.30121000  0.08959000  1.0
  C  C251  1  0.56119000  0.32184000  0.11764000  1.0
  C  C252  1  0.54175000  0.29886000  0.14730000  1.0
  C  C253  1  0.54542000  0.25639000  0.14923000  1.0
  C  C254  1  0.56955000  0.23574000  0.12085000  1.0
  C  C255  1  0.57445000  0.18969000  0.12064000  1.0
  C  C256  1  0.55530000  0.36774000  0.11689000  1.0
  C  C257  1  0.44231000  0.69176000  0.09868000  1.0
  C  C258  1  0.41068000  0.71178000  0.07717000  1.0
  C  C259  1  0.39989000  0.75247000  0.08817000  1.0
  C  C260  1  0.42397000  0.77192000  0.11695000  1.0
  C  C261  1  0.45619000  0.75207000  0.13706000  1.0
  C  C262  1  0.46348000  0.71036000  0.12979000  1.0
  C  C263  1  0.49068000  0.68317000  0.15518000  1.0
  C  C264  1  0.36364000  0.77620000  0.07043000  1.0
  C  C265  1  0.57669000  0.68118000  0.88114000  1.0
  C  C266  1  0.59593000  0.70662000  0.90869000  1.0
  C  C267  1  0.59398000  0.74949000  0.90359000  1.0
  C  C268  1  0.57171000  0.76517000  0.87148000  1.0
  C  C269  1  0.55177000  0.73969000  0.84448000  1.0
  C  C270  1  0.55586000  0.69695000  0.84822000  1.0
  C  C271  1  0.53969000  0.66701000  0.81817000  1.0
  C  C272  1  0.61414000  0.77883000  0.93217000  1.0
  C  C273  1  0.41149000  0.25269000  0.92269000  1.0
  C  C274  1  0.42101000  0.29437000  0.92598000  1.0
  C  C275  1  0.45322000  0.31081000  0.90208000  1.0
  C  C276  1  0.47007000  0.28624000  0.87249000  1.0
  C  C277  1  0.46086000  0.24465000  0.86965000  1.0
  C  C278  1  0.43259000  0.22703000  0.89665000  1.0
  C  C279  1  0.42459000  0.18145000  0.89904000  1.0
  C  C280  1  0.47151000  0.35302000  0.90814000  1.0
  C  C281  1  0.74159000  0.06554000  0.43298000  1.0
  C  C282  1  0.70730000  0.07996000  0.41191000  1.0
  C  C283  1  0.69734000  0.12181000  0.41228000  1.0
  C  C284  1  0.72260000  0.14824000  0.43410000  1.0
  C  C285  1  0.75720000  0.13384000  0.45513000  1.0
  C  C286  1  0.76776000  0.09196000  0.45360000  1.0
  C  C287  1  0.80615000  0.07392000  0.47279000  1.0
  C  C288  1  0.66046000  0.13821000  0.38944000  1.0
  C  C289  1  0.26095000  0.06850000  0.57258000  1.0
  C  C290  1  0.29965000  0.08227000  0.58562000  1.0
  C  C291  1  0.31349000  0.12162000  0.57477000  1.0
  C  C292  1  0.28657000  0.14688000  0.55291000  1.0
  C  C293  1  0.24753000  0.13317000  0.54019000  1.0
  C  C294  1  0.23447000  0.09314000  0.55004000  1.0
  C  C295  1  0.19398000  0.07447000  0.53628000  1.0
  C  C296  1  0.35608000  0.13690000  0.58647000  1.0
  C  C297  1  0.31177000  0.87775000  0.41752000  1.0
  C  C298  1  0.29377000  0.91597000  0.41036000  1.0
  C  C299  1  0.25502000  0.92567000  0.42737000  1.0
  C  C300  1  0.23491000  0.89605000  0.45016000  1.0
  C  C301  1  0.25282000  0.85787000  0.45743000  1.0
  C  C302  1  0.29195000  0.84827000  0.44094000  1.0
  C  C303  1  0.31435000  0.80803000  0.44693000  1.0
  C  C304  1  0.23614000  0.96780000  0.42341000  1.0
  C  C305  1  0.68615000  0.87434000  0.58591000  1.0
  C  C306  1  0.69401000  0.91541000  0.57773000  1.0
  C  C307  1  0.72285000  0.92621000  0.54837000  1.0
  C  C308  1  0.74404000  0.89508000  0.52866000  1.0
  C  C309  1  0.73629000  0.85371000  0.53657000  1.0
  C  C310  1  0.70636000  0.84304000  0.56549000  1.0
  C  C311  1  0.69507000  0.79960000  0.57670000  1.0
  C  C312  1  0.73180000  0.97046000  0.53868000  1.0
  C  C313  1  0.90704000  0.75115000  0.59748000  1.0
  C  C314  1  0.90875000  0.70840000  0.59465000  1.0
  C  C315  1  0.87847000  0.68829000  0.57121000  1.0
  C  C316  1  0.84946000  0.71204000  0.55047000  1.0
  C  C317  1  0.85143000  0.75461000  0.54943000  1.0
  C  C318  1  0.88013000  0.77481000  0.57425000  1.0
  C  C319  1  0.88465000  0.82075000  0.57783000  1.0
  C  C320  1  0.87427000  0.64217000  0.56996000  1.0
  C  C321  1  0.92095000  0.24894000  0.40802000  1.0
  C  C322  1  0.91961000  0.29176000  0.41048000  1.0
  C  C323  1  0.88935000  0.31006000  0.43532000  1.0
  C  C324  1  0.86152000  0.28463000  0.45570000  1.0
  C  C325  1  0.86382000  0.24209000  0.45390000  1.0
  C  C326  1  0.89495000  0.22377000  0.43058000  1.0
  C  C327  1  0.90198000  0.17797000  0.42995000  1.0
  C  C328  1  0.88414000  0.35599000  0.43894000  1.0
  C  C329  1  0.09146000  0.25443000  0.59862000  1.0
  C  C330  1  0.08566000  0.29533000  0.58686000  1.0
  C  C331  1  0.10896000  0.31001000  0.55406000  1.0
  C  C332  1  0.13762000  0.28360000  0.53611000  1.0
  C  C333  1  0.14017000  0.24205000  0.54567000  1.0
  C  C334  1  0.11599000  0.22701000  0.57740000  1.0
  C  C335  1  0.11349000  0.18211000  0.58848000  1.0
  C  C336  1  0.10432000  0.35282000  0.53727000  1.0
  C  C337  1  0.09056000  0.74437000  0.41057000  1.0
  C  C338  1  0.08469000  0.70294000  0.42058000  1.0
  C  C339  1  0.10815000  0.68663000  0.45269000  1.0
  C  C340  1  0.13909000  0.71112000  0.46985000  1.0
  C  C341  1  0.14375000  0.75244000  0.46029000  1.0
  C  C342  1  0.11749000  0.76991000  0.43142000  1.0
  C  C343  1  0.11636000  0.81546000  0.42281000  1.0
  C  C344  1  0.10108000  0.64429000  0.46982000  1.0
  C  C345  1  0.60424000  0.86813000  0.70005000  1.0
  C  C346  1  0.58611000  0.90706000  0.69900000  1.0
  C  C347  1  0.54813000  0.91313000  0.71869000  1.0
  C  C348  1  0.53202000  0.88174000  0.74186000  1.0
  C  C349  1  0.54616000  0.84183000  0.73873000  1.0
  C  C350  1  0.58298000  0.83451000  0.71661000  1.0
  C  C351  1  0.60037000  0.79234000  0.70896000  1.0
  C  C352  1  0.52482000  0.95266000  0.71659000  1.0
  C  C353  1  0.43823000  0.88829000  0.30414000  1.0
  C  C354  1  0.40712000  0.91193000  0.28568000  1.0
  C  C355  1  0.39684000  0.90304000  0.24574000  1.0
  C  C356  1  0.42142000  0.87471000  0.22547000  1.0
  C  C357  1  0.45349000  0.85280000  0.24370000  1.0
  C  C358  1  0.45969000  0.85727000  0.28452000  1.0
  C  C359  1  0.48575000  0.82865000  0.30949000  1.0
  C  C360  1  0.36130000  0.92337000  0.22336000  1.0
  C  C361  1  0.56496000  0.11502000  0.31385000  1.0
  C  C362  1  0.59069000  0.08870000  0.29215000  1.0
  C  C363  1  0.59542000  0.09594000  0.25106000  1.0
  C  C364  1  0.57353000  0.12841000  0.23381000  1.0
  C  C365  1  0.54817000  0.15451000  0.25561000  1.0
  C  C366  1  0.54549000  0.14903000  0.29670000  1.0
  C  C367  1  0.52401000  0.17867000  0.32387000  1.0
  C  C368  1  0.62055000  0.06821000  0.22436000  1.0
  C  C369  1  0.39660000  0.12578000  0.71681000  1.0
  C  C370  1  0.40914000  0.08479000  0.71719000  1.0
  C  C371  1  0.44247000  0.07324000  0.74173000  1.0
  C  C372  1  0.46084000  0.10197000  0.76610000  1.0
  C  C373  1  0.45264000  0.14342000  0.76208000  1.0
  C  C374  1  0.41991000  0.15597000  0.73657000  1.0
  C  C375  1  0.40966000  0.20040000  0.72893000  1.0
  C  C376  1  0.45978000  0.03097000  0.74132000  1.0
  C  C377  1  0.69447000  0.58323000  0.88100000  1.0
  C  C378  1  0.71255000  0.58586000  0.91836000  1.0
  C  C379  1  0.75081000  0.56631000  0.92596000  1.0
  C  C380  1  0.76950000  0.54388000  0.89599000  1.0
  C  C381  1  0.75186000  0.54158000  0.85855000  1.0
  C  C382  1  0.71421000  0.56223000  0.85033000  1.0
  C  C383  1  0.69645000  0.56465000  0.80908000  1.0
  C  C384  1  0.77335000  0.57147000  0.96451000  1.0
  C  C385  1  0.24783000  0.41413000  0.92369000  1.0
  C  C386  1  0.29073000  0.40986000  0.91792000  1.0
  C  C387  1  0.30885000  0.42488000  0.88289000  1.0
  C  C388  1  0.28358000  0.44558000  0.85573000  1.0
  C  C389  1  0.24116000  0.45154000  0.86243000  1.0
  C  C390  1  0.22254000  0.43486000  0.89652000  1.0
  C  C391  1  0.17620000  0.43798000  0.90396000  1.0
  C  C392  1  0.35416000  0.41770000  0.87345000  1.0
  C  C393  1  0.31564000  0.57060000  0.11021000  1.0
  C  C394  1  0.29290000  0.59821000  0.08677000  1.0
  C  C395  1  0.25118000  0.60710000  0.09759000  1.0
  C  C396  1  0.23248000  0.58330000  0.12710000  1.0
  C  C397  1  0.25482000  0.55436000  0.14909000  1.0
  C  C398  1  0.29804000  0.55054000  0.14264000  1.0
  C  C399  1  0.32720000  0.52735000  0.16962000  1.0
  C  C400  1  0.22624000  0.64168000  0.07934000  1.0
  C  C401  1  0.69555000  0.41199000  0.12351000  1.0
  C  C402  1  0.70471000  0.42105000  0.08435000  1.0
  C  C403  1  0.73420000  0.45134000  0.07526000  1.0
  C  C404  1  0.75371000  0.47201000  0.10617000  1.0
  C  C405  1  0.74389000  0.46393000  0.14568000  1.0
  C  C406  1  0.71403000  0.43330000  0.15458000  1.0
  C  C407  1  0.70045000  0.42149000  0.19579000  1.0
  C  C408  1  0.74563000  0.46078000  0.03306000  1.0
  C  C409  1  0.08750000  0.60067000  0.74896000  1.0
  C  C410  1  0.08660000  0.59442000  0.70821000  1.0
  C  C411  1  0.11550000  0.56693000  0.69130000  1.0
  C  C412  1  0.14277000  0.54554000  0.71625000  1.0
  C  C413  1  0.14142000  0.54974000  0.75712000  1.0
  C  C414  1  0.11376000  0.57831000  0.77394000  1.0
  C  C415  1  0.11183000  0.58645000  0.81784000  1.0
  C  C416  1  0.11832000  0.56021000  0.64733000  1.0
  C  C417  1  0.12091000  0.42576000  0.30707000  1.0
  C  C418  1  0.08443000  0.41340000  0.28811000  1.0
  C  C419  1  0.07832000  0.42364000  0.24809000  1.0
  C  C420  1  0.10917000  0.44589000  0.22838000  1.0
  C  C421  1  0.14565000  0.45807000  0.24730000  1.0
  C  C422  1  0.15226000  0.44718000  0.28715000  1.0
  C  C423  1  0.19175000  0.45599000  0.30993000  1.0
  C  C424  1  0.03906000  0.41197000  0.22649000  1.0
  C  C425  1  0.92995000  0.55891000  0.27126000  1.0
  C  C426  1  0.91573000  0.58942000  0.29649000  1.0
  C  C427  1  0.87307000  0.60003000  0.29620000  1.0
  C  C428  1  0.84569000  0.57668000  0.27358000  1.0
  C  C429  1  0.85961000  0.54547000  0.24886000  1.0
  C  C430  1  0.90300000  0.53851000  0.24552000  1.0
  C  C431  1  0.92306000  0.51267000  0.21404000  1.0
  C  C432  1  0.85419000  0.63538000  0.31840000  1.0
  C  C433  1  0.92946000  0.43196000  0.73813000  1.0
  C  C434  1  0.91504000  0.41357000  0.70381000  1.0
  C  C435  1  0.87237000  0.41495000  0.69448000  1.0
  C  C436  1  0.84536000  0.43598000  0.71961000  1.0
  C  C437  1  0.85996000  0.45535000  0.75350000  1.0
  C  C438  1  0.90261000  0.45239000  0.76368000  1.0
  C  C439  1  0.92165000  0.46861000  0.80125000  1.0
  C  C440  1  0.85552000  0.39279000  0.65910000  1.0
  C  C441  1  0.40703000  0.68862000  0.87266000  1.0
  C  C442  1  0.41696000  0.69949000  0.91121000  1.0
  C  C443  1  0.44832000  0.72853000  0.91818000  1.0
  C  C444  1  0.46774000  0.74715000  0.88591000  1.0
  C  C445  1  0.45906000  0.73555000  0.84708000  1.0
  C  C446  1  0.42825000  0.70538000  0.84027000  1.0
  C  C447  1  0.41606000  0.69083000  0.79965000  1.0
  C  C448  1  0.46071000  0.74006000  0.95958000  1.0
  C  C449  1  0.59617000  0.29786000  0.88628000  1.0
  C  C450  1  0.59255000  0.28672000  0.92584000  1.0
  C  C451  1  0.56974000  0.25164000  0.93646000  1.0
  C  C452  1  0.55018000  0.22913000  0.90680000  1.0
  C  C453  1  0.55275000  0.24086000  0.86723000  1.0
  C  C454  1  0.57659000  0.27543000  0.85649000  1.0
  C  C455  1  0.58112000  0.28887000  0.81398000  1.0
  C  C456  1  0.56567000  0.23863000  0.97902000  1.0
  C  C457  1  0.41151000  0.31146000  0.12550000  1.0
  C  C458  1  0.41462000  0.29806000  0.08668000  1.0
  C  C459  1  0.43782000  0.26271000  0.07797000  1.0
  C  C460  1  0.45712000  0.24146000  0.10882000  1.0
  C  C461  1  0.45405000  0.25468000  0.14773000  1.0
  C  C462  1  0.43084000  0.29014000  0.15648000  1.0
  C  C463  1  0.42562000  0.30480000  0.19831000  1.0
  C  C464  1  0.44259000  0.24799000  0.03613000  1.0
  C  C465  1  0.56421000  0.74712000  0.06022000  1.0
  C  C466  1  0.59411000  0.71922000  0.07326000  1.0
  C  C467  1  0.60259000  0.71520000  0.11373000  1.0
  C  C468  1  0.57949000  0.73853000  0.14026000  1.0
  C  C469  1  0.54834000  0.76542000  0.12744000  1.0
  C  C470  1  0.54207000  0.77156000  0.08660000  1.0
  C  C471  1  0.51418000  0.80415000  0.06902000  1.0
  C  C472  1  0.63478000  0.68521000  0.12870000  1.0
  C  C473  1  0.25303000  0.92680000  0.58423000  1.0
  C  C474  1  0.29639000  0.92275000  0.58658000  1.0
  C  C475  1  0.31604000  0.89018000  0.56659000  1.0
  C  C476  1  0.29124000  0.86253000  0.54559000  1.0
  C  C477  1  0.24794000  0.86639000  0.54380000  1.0
  C  C478  1  0.22838000  0.89953000  0.56276000  1.0
  C  C479  1  0.18164000  0.90595000  0.56179000  1.0
  C  C480  1  0.36261000  0.88336000  0.56855000  1.0
  C  C481  1  0.68145000  0.88333000  0.42470000  1.0
  C  C482  1  0.70550000  0.91196000  0.40398000  1.0
  C  C483  1  0.74951000  0.90821000  0.40462000  1.0
  C  C484  1  0.76740000  0.87738000  0.42781000  1.0
  C  C485  1  0.74331000  0.84925000  0.44885000  1.0
  C  C486  1  0.69953000  0.85087000  0.44561000  1.0
  C  C487  1  0.67069000  0.81882000  0.46243000  1.0
  C  C488  1  0.77802000  0.93654000  0.38171000  1.0
  C  C489  1  0.74345000  0.08639000  0.59473000  1.0
  C  C490  1  0.70171000  0.08050000  0.58373000  1.0
  C  C491  1  0.68580000  0.10332000  0.55130000  1.0
  C  C492  1  0.71158000  0.13265000  0.53347000  1.0
  C  C493  1  0.75371000  0.13674000  0.54320000  1.0
  C  C494  1  0.77025000  0.11252000  0.57412000  1.0
  C  C495  1  0.81576000  0.11302000  0.58631000  1.0
  C  C496  1  0.64269000  0.09662000  0.53419000  1.0
  C  C497  1  0.25102000  0.08048000  0.40368000  1.0
  C  C498  1  0.29439000  0.08090000  0.40804000  1.0
  C  C499  1  0.31270000  0.10943000  0.43391000  1.0
  C  C500  1  0.28651000  0.13564000  0.45513000  1.0
  C  C501  1  0.24303000  0.13350000  0.45230000  1.0
  C  C502  1  0.22485000  0.10545000  0.42582000  1.0
  C  C503  1  0.17829000  0.10150000  0.41937000  1.0
  C  C504  1  0.35942000  0.11318000  0.43861000  1.0
  O  O1  1  0.04065000  0.34970000  0.39982000  1.0
  O  O2  1  0.95899000  0.40171000  0.34255000  1.0
  O  O3  1  0.96016000  0.34938000  0.39895000  1.0
  O  O4  1  0.04057000  0.40465000  0.34344000  1.0
  O  O5  1  0.03989000  0.35648000  0.29864000  1.0
  O  O6  1  0.96431000  0.29848000  0.35756000  1.0
  O  O7  1  0.95866000  0.35111000  0.30072000  1.0
  O  O8  1  0.04342000  0.30155000  0.35488000  1.0
  O  O9  1  0.95983000  0.59877000  0.65656000  1.0
  O  O10  1  0.03550000  0.65654000  0.59776000  1.0
  O  O11  1  0.03995000  0.60185000  0.65380000  1.0
  O  O12  1  0.95415000  0.65381000  0.60269000  1.0
  O  O13  1  0.95706000  0.70387000  0.64507000  1.0
  O  O14  1  0.04020000  0.65008000  0.69831000  1.0
  O  O15  1  0.03717000  0.70463000  0.64283000  1.0
  O  O16  1  0.95966000  0.64810000  0.70017000  1.0
  O  O17  1  0.96158000  0.64403000  0.41090000  1.0
  O  O18  1  0.04235000  0.59247000  0.35301000  1.0
  O  O19  1  0.04230000  0.64587000  0.40932000  1.0
  O  O20  1  0.96105000  0.59367000  0.35142000  1.0
  O  O21  1  0.96066000  0.64476000  0.30897000  1.0
  O  O22  1  0.04094000  0.69621000  0.36684000  1.0
  O  O23  1  0.04140000  0.64293000  0.30997000  1.0
  O  O24  1  0.96133000  0.69465000  0.36817000  1.0
  O  O25  1  0.96140000  0.35186000  0.59190000  1.0
  O  O26  1  0.03994000  0.40762000  0.64956000  1.0
  O  O27  1  0.04245000  0.35242000  0.59489000  1.0
  O  O28  1  0.95906000  0.40611000  0.64835000  1.0
  O  O29  1  0.95877000  0.35717000  0.69310000  1.0
  O  O30  1  0.04082000  0.30406000  0.63942000  1.0
  O  O31  1  0.03865000  0.35894000  0.69453000  1.0
  O  O32  1  0.96084000  0.30325000  0.63695000  1.0
  O  O33  1  0.35253000  0.95726000  0.39855000  1.0
  O  O34  1  0.40949000  0.03475000  0.34220000  1.0
  O  O35  1  0.35254000  0.03625000  0.39689000  1.0
  O  O36  1  0.40382000  0.95477000  0.34001000  1.0
  O  O37  1  0.35419000  0.95904000  0.29616000  1.0
  O  O38  1  0.30242000  0.03805000  0.35296000  1.0
  O  O39  1  0.35830000  0.03831000  0.29910000  1.0
  O  O40  1  0.30180000  0.95959000  0.35494000  1.0
  O  O41  1  0.58774000  0.03872000  0.65300000  1.0
  O  O42  1  0.63785000  0.95948000  0.59285000  1.0
  O  O43  1  0.58689000  0.95895000  0.65271000  1.0
  O  O44  1  0.64155000  0.03839000  0.59585000  1.0
  O  O45  1  0.69342000  0.03416000  0.63749000  1.0
  O  O46  1  0.64304000  0.94847000  0.68831000  1.0
  O  O47  1  0.69190000  0.95841000  0.63294000  1.0
  O  O48  1  0.63755000  0.03193000  0.69666000  1.0
  O  O49  1  0.35985000  0.04371000  0.60304000  1.0
  O  O50  1  0.40847000  0.95895000  0.65806000  1.0
  O  O51  1  0.35496000  0.96505000  0.60186000  1.0
  O  O52  1  0.40866000  0.03948000  0.66532000  1.0
  O  O53  1  0.35221000  0.04513000  0.70128000  1.0
  O  O54  1  0.30196000  0.96506000  0.64272000  1.0
  O  O55  1  0.35706000  0.95992000  0.70014000  1.0
  O  O56  1  0.30485000  0.03965000  0.64141000  1.0
  O  O57  1  0.59326000  0.96316000  0.33899000  1.0
  O  O58  1  0.64969000  0.03693000  0.40020000  1.0
  O  O59  1  0.59584000  0.04281000  0.34412000  1.0
  O  O60  1  0.64867000  0.95790000  0.39525000  1.0
  O  O61  1  0.69893000  0.96029000  0.35168000  1.0
  O  O62  1  0.64461000  0.04215000  0.29919000  1.0
  O  O63  1  0.69944000  0.03918000  0.35565000  1.0
  O  O64  1  0.64446000  0.96380000  0.29589000  1.0
  O  O65  1  0.34838000  0.41108000  0.03798000  1.0
  O  O66  1  0.40954000  0.35254000  0.96696000  1.0
  O  O67  1  0.34872000  0.40439000  0.96146000  1.0
  O  O68  1  0.40508000  0.35397000  0.04292000  1.0
  O  O69  1  0.35833000  0.30473000  0.04279000  1.0
  O  O70  1  0.30066000  0.35665000  0.96427000  1.0
  O  O71  1  0.36191000  0.30469000  0.96700000  1.0
  O  O72  1  0.30198000  0.36161000  0.04070000  1.0
  O  O73  1  0.65819000  0.60511000  0.03892000  1.0
  O  O74  1  0.60228000  0.65534000  0.95772000  1.0
  O  O75  1  0.65696000  0.59790000  0.96208000  1.0
  O  O76  1  0.60107000  0.66070000  0.03379000  1.0
  O  O77  1  0.65023000  0.70749000  0.03000000  1.0
  O  O78  1  0.70707000  0.64375000  0.95941000  1.0
  O  O79  1  0.65204000  0.70125000  0.95398000  1.0
  O  O80  1  0.70689000  0.65181000  0.03576000  1.0
  O  O81  1  0.59312000  0.35345000  0.04110000  1.0
  O  O82  1  0.65046000  0.40571000  0.96287000  1.0
  O  O83  1  0.59733000  0.34606000  0.96500000  1.0
  O  O84  1  0.64998000  0.40936000  0.03918000  1.0
  O  O85  1  0.70035000  0.36376000  0.04308000  1.0
  O  O86  1  0.64715000  0.30007000  0.97043000  1.0
  O  O87  1  0.70013000  0.35982000  0.96664000  1.0
  O  O88  1  0.64337000  0.30823000  0.04628000  1.0
  O  O89  1  0.34849000  0.59435000  0.96271000  1.0
  O  O90  1  0.40430000  0.65498000  0.03687000  1.0
  O  O91  1  0.34752000  0.60012000  0.03953000  1.0
  O  O92  1  0.40761000  0.64868000  0.96012000  1.0
  O  O93  1  0.35931000  0.69610000  0.95428000  1.0
  O  O94  1  0.30116000  0.64909000  0.03605000  1.0
  O  O95  1  0.35822000  0.70363000  0.03044000  1.0
  O  O96  1  0.30023000  0.64194000  0.95969000  1.0
  F  F1  1  0.06128000  0.20567000  0.51055000  1.0
  F  F2  1  0.09908000  0.16248000  0.47405000  1.0
  F  F3  1  0.03724000  0.18350000  0.45281000  1.0
  F  F4  1  0.12659000  0.37302000  0.40727000  1.0
  F  F5  1  0.13764000  0.33456000  0.35374000  1.0
  F  F6  1  0.18728000  0.34070000  0.39948000  1.0
  F  F7  1  0.20208000  0.67701000  0.59868000  1.0
  F  F8  1  0.21832000  0.74327000  0.59940000  1.0
  F  F9  1  0.21762000  0.70884000  0.54248000  1.0
  F  F10  1  0.00585000  0.76897000  0.59104000  1.0
  F  F11  1  0.00103000  0.72231000  0.54298000  1.0
  F  F12  1  0.01749000  0.78692000  0.52851000  1.0
  F  F13  1  0.93740000  0.82456000  0.43139000  1.0
  F  F14  1  0.89778000  0.82619000  0.48494000  1.0
  F  F15  1  0.86887000  0.83338000  0.42515000  1.0
  F  F16  1  0.88018000  0.61901000  0.40683000  1.0
  F  F17  1  0.84003000  0.62447000  0.45988000  1.0
  F  F18  1  0.90892000  0.61998000  0.46694000  1.0
  F  F19  1  0.78034000  0.27168000  0.58601000  1.0
  F  F20  1  0.78401000  0.29451000  0.52382000  1.0
  F  F21  1  0.79811000  0.33639000  0.57351000  1.0
  F  F22  1  0.98885000  0.23525000  0.60015000  1.0
  F  F23  1  0.00083000  0.27347000  0.54613000  1.0
  F  F24  1  0.98144000  0.20831000  0.54046000  1.0
  F  F25  1  0.39065000  0.20032000  0.32345000  1.0
  F  F26  1  0.37295000  0.20683000  0.25999000  1.0
  F  F27  1  0.43561000  0.22758000  0.28138000  1.0
  F  F28  1  0.49836000  0.03015000  0.23432000  1.0
  F  F29  1  0.43449000  0.00684000  0.24746000  1.0
  F  F30  1  0.48020000  0.01694000  0.29649000  1.0
  F  F31  1  0.58445000  0.05791000  0.82936000  1.0
  F  F32  1  0.53604000  0.10505000  0.84016000  1.0
  F  F33  1  0.60329000  0.12316000  0.83567000  1.0
  F  F34  1  0.53553000  0.09503000  0.63241000  1.0
  F  F35  1  0.60011000  0.12196000  0.63557000  1.0
  F  F36  1  0.54439000  0.16169000  0.64254000  1.0
  F  F37  1  0.45053000  0.81131000  0.63896000  1.0
  F  F38  1  0.48839000  0.78255000  0.68641000  1.0
  F  F39  1  0.51145000  0.83927000  0.65604000  1.0
  F  F40  1  0.32812000  0.90900000  0.75273000  1.0
  F  F41  1  0.37466000  0.95394000  0.77646000  1.0
  F  F42  1  0.36322000  0.89519000  0.80766000  1.0
  F  F43  1  0.47834000  0.94569000  0.21296000  1.0
  F  F44  1  0.50002000  0.89991000  0.16891000  1.0
  F  F45  1  0.53580000  0.95728000  0.17753000  1.0
  F  F46  1  0.61319000  0.87354000  0.35349000  1.0
  F  F47  1  0.66524000  0.87886000  0.30965000  1.0
  F  F48  1  0.62939000  0.82068000  0.31523000  1.0
  F  F49  1  0.32627000  0.39767000  0.19549000  1.0
  F  F50  1  0.25936000  0.37942000  0.20110000  1.0
  F  F51  1  0.28092000  0.44117000  0.22086000  1.0
  F  F52  1  0.27970000  0.44900000  0.00285000  1.0
  F  F53  1  0.28460000  0.50991000  0.03144000  1.0
  F  F54  1  0.22235000  0.47990000  0.02384000  1.0
  F  F55  1  0.64492000  0.56541000  0.18061000  1.0
  F  F56  1  0.69432000  0.52690000  0.20750000  1.0
  F  F57  1  0.65701000  0.50315000  0.15644000  1.0
  F  F58  1  0.76513000  0.67714000  0.08303000  1.0
  F  F59  1  0.78568000  0.63239000  0.03703000  1.0
  F  F60  1  0.82227000  0.63982000  0.09200000  1.0
  F  F61  1  0.83817000  0.40217000  0.86593000  1.0
  F  F62  1  0.83509000  0.41353000  0.93049000  1.0
  F  F63  1  0.83984000  0.46619000  0.88918000  1.0
  F  F64  1  0.62623000  0.46324000  0.91465000  1.0
  F  F65  1  0.62209000  0.40024000  0.88868000  1.0
  F  F66  1  0.62795000  0.45468000  0.84968000  1.0
  F  F67  1  0.32876000  0.58056000  0.80236000  1.0
  F  F68  1  0.29220000  0.52445000  0.78904000  1.0
  F  F69  1  0.34936000  0.52000000  0.82641000  1.0
  F  F70  1  0.21818000  0.62689000  0.96111000  1.0
  F  F71  1  0.24783000  0.57463000  0.99429000  1.0
  F  F72  1  0.18718000  0.56587000  0.96366000  1.0
  F  F73  1  0.81218000  0.45867000  0.34912000  1.0
  F  F74  1  0.79359000  0.49973000  0.29988000  1.0
  F  F75  1  0.85065000  0.51387000  0.33559000  1.0
  F  F76  1  0.90423000  0.32341000  0.25086000  1.0
  F  F77  1  0.95579000  0.36124000  0.22462000  1.0
  F  F78  1  0.89553000  0.35453000  0.19314000  1.0
  F  F79  1  0.80019000  0.56437000  0.66518000  1.0
  F  F80  1  0.78604000  0.51534000  0.70871000  1.0
  F  F81  1  0.83262000  0.50404000  0.66104000  1.0
  F  F82  1  0.94993000  0.64838000  0.77647000  1.0
  F  F83  1  0.99087000  0.59502000  0.76091000  1.0
  F  F84  1  0.95292000  0.59355000  0.81563000  1.0
  F  F85  1  0.05884000  0.50451000  0.80069000  1.0
  F  F86  1  0.10354000  0.46717000  0.83682000  1.0
  F  F87  1  0.04258000  0.44092000  0.81944000  1.0
  F  F88  1  0.11798000  0.43370000  0.62638000  1.0
  F  F89  1  0.13199000  0.37057000  0.64949000  1.0
  F  F90  1  0.18077000  0.41909000  0.65102000  1.0
  F  F91  1  0.08186000  0.58847000  0.17467000  1.0
  F  F92  1  0.05632000  0.52769000  0.19320000  1.0
  F  F93  1  0.12085000  0.53251000  0.16947000  1.0
  F  F94  1  0.11480000  0.56208000  0.38040000  1.0
  F  F95  1  0.13211000  0.62642000  0.36315000  1.0
  F  F96  1  0.17997000  0.57703000  0.36271000  1.0
  F  F97  1  0.58752000  0.17596000  0.08438000  1.0
  F  F98  1  0.53728000  0.17048000  0.12894000  1.0
  F  F99  1  0.60379000  0.17843000  0.14822000  1.0
  F  F100  1  0.53124000  0.37866000  0.08490000  1.0
  F  F101  1  0.59336000  0.38702000  0.11463000  1.0
  F  F102  1  0.53555000  0.38156000  0.15030000  1.0
  F  F103  1  0.46720000  0.65085000  0.16890000  1.0
  F  F104  1  0.50695000  0.70289000  0.18739000  1.0
  F  F105  1  0.52282000  0.66783000  0.13290000  1.0
  F  F106  1  0.32688000  0.75574000  0.07756000  1.0
  F  F107  1  0.36923000  0.78124000  0.03054000  1.0
  F  F108  1  0.35968000  0.81465000  0.08646000  1.0
  F  F109  1  0.56900000  0.63693000  0.81184000  1.0
  F  F110  1  0.53158000  0.68529000  0.78237000  1.0
  F  F111  1  0.50388000  0.64898000  0.83215000  1.0
  F  F112  1  0.65682000  0.77697000  0.92841000  1.0
  F  F113  1  0.60312000  0.76894000  0.97018000  1.0
  F  F114  1  0.60198000  0.81868000  0.92531000  1.0
  F  F115  1  0.41073000  0.17036000  0.93601000  1.0
  F  F116  1  0.46048000  0.15958000  0.89197000  1.0
  F  F117  1  0.39458000  0.17069000  0.87204000  1.0
  F  F118  1  0.48742000  0.35583000  0.94573000  1.0
  F  F119  1  0.44160000  0.38251000  0.90247000  1.0
  F  F120  1  0.50368000  0.36115000  0.88237000  1.0
  F  F121  1  0.79558000  0.05732000  0.50870000  1.0
  F  F122  1  0.83701000  0.10254000  0.47792000  1.0
  F  F123  1  0.82245000  0.04339000  0.44959000  1.0
  F  F124  1  0.62442000  0.12013000  0.40293000  1.0
  F  F125  1  0.66528000  0.12965000  0.35005000  1.0
  F  F126  1  0.65638000  0.17993000  0.39337000  1.0
  F  F127  1  0.20105000  0.05319000  0.50209000  1.0
  F  F128  1  0.16383000  0.10339000  0.52962000  1.0
  F  F129  1  0.17860000  0.04773000  0.56423000  1.0
  F  F130  1  0.38622000  0.11402000  0.56801000  1.0
  F  F131  1  0.36104000  0.13351000  0.62657000  1.0
  F  F132  1  0.36185000  0.17730000  0.57607000  1.0
  F  F133  1  0.35356000  0.81539000  0.46187000  1.0
  F  F134  1  0.31830000  0.78883000  0.41115000  1.0
  F  F135  1  0.29424000  0.78187000  0.47243000  1.0
  F  F136  1  0.22718000  0.97610000  0.38453000  1.0
  F  F137  1  0.26395000  0.99621000  0.43744000  1.0
  F  F138  1  0.19975000  0.97153000  0.44463000  1.0
  F  F139  1  0.71244000  0.79040000  0.61278000  1.0
  F  F140  1  0.70835000  0.77124000  0.54977000  1.0
  F  F141  1  0.65238000  0.79601000  0.57956000  1.0
  F  F142  1  0.74905000  0.98929000  0.57098000  1.0
  F  F143  1  0.69531000  0.99003000  0.52855000  1.0
  F  F144  1  0.75912000  0.97439000  0.50759000  1.0
  F  F145  1  0.92572000  0.83138000  0.57178000  1.0
  F  F146  1  0.87342000  0.83224000  0.61529000  1.0
  F  F147  1  0.86096000  0.84271000  0.55147000  1.0
  F  F148  1  0.83760000  0.63007000  0.55232000  1.0
  F  F149  1  0.87446000  0.62652000  0.60765000  1.0
  F  F150  1  0.90668000  0.62564000  0.54885000  1.0
  F  F151  1  0.94132000  0.16848000  0.41650000  1.0
  F  F152  1  0.87339000  0.15978000  0.40543000  1.0
  F  F153  1  0.89836000  0.16164000  0.46723000  1.0
  F  F154  1  0.88131000  0.37365000  0.40209000  1.0
  F  F155  1  0.91755000  0.37216000  0.45902000  1.0
  F  F156  1  0.84851000  0.36628000  0.45926000  1.0
  F  F157  1  0.14621000  0.17175000  0.61279000  1.0
  F  F158  1  0.11407000  0.15806000  0.55551000  1.0
  F  F159  1  0.07695000  0.17333000  0.60812000  1.0
  F  F160  1  0.11188000  0.38126000  0.56605000  1.0
  F  F161  1  0.06467000  0.35796000  0.52243000  1.0
  F  F162  1  0.13185000  0.36036000  0.50694000  1.0
  F  F163  1  0.07901000  0.82679000  0.40582000  1.0
  F  F164  1  0.14788000  0.82571000  0.39717000  1.0
  F  F165  1  0.12055000  0.83769000  0.45693000  1.0
  F  F166  1  0.12697000  0.63620000  0.50138000  1.0
  F  F167  1  0.10860000  0.61506000  0.44181000  1.0
  F  F168  1  0.06068000  0.64100000  0.48314000  1.0
  F  F169  1  0.61684000  0.79055000  0.67153000  1.0
  F  F170  1  0.57021000  0.76254000  0.71152000  1.0
  F  F171  1  0.63162000  0.78396000  0.73564000  1.0
  F  F172  1  0.51138000  0.95914000  0.67852000  1.0
  F  F173  1  0.55017000  0.98427000  0.72840000  1.0
  F  F174  1  0.49029000  0.95151000  0.74050000  1.0
  F  F175  1  0.46082000  0.81146000  0.33812000  1.0
  F  F176  1  0.51698000  0.85031000  0.32774000  1.0
  F  F177  1  0.50313000  0.79724000  0.28832000  1.0
  F  F178  1  0.36714000  0.96503000  0.22173000  1.0
  F  F179  1  0.32400000  0.91458000  0.24155000  1.0
  F  F180  1  0.35830000  0.90974000  0.18511000  1.0
  F  F181  1  0.55010000  0.18777000  0.35489000  1.0
  F  F182  1  0.48831000  0.16106000  0.33862000  1.0
  F  F183  1  0.51403000  0.21493000  0.30544000  1.0
  F  F184  1  0.60928000  0.02803000  0.23037000  1.0
  F  F185  1  0.66245000  0.07304000  0.23187000  1.0
  F  F186  1  0.61409000  0.07696000  0.18504000  1.0
  F  F187  1  0.39192000  0.20543000  0.69220000  1.0
  F  F188  1  0.44503000  0.22423000  0.73000000  1.0
  F  F189  1  0.38178000  0.21394000  0.75670000  1.0
  F  F190  1  0.47807000  0.02517000  0.70524000  1.0
  F  F191  1  0.42833000  0.00314000  0.74690000  1.0
  F  F192  1  0.48934000  0.02489000  0.77034000  1.0
  F  F193  1  0.65617000  0.57933000  0.80910000  1.0
  F  F194  1  0.69603000  0.52680000  0.79167000  1.0
  F  F195  1  0.72053000  0.59063000  0.78666000  1.0
  F  F196  1  0.74655000  0.56514000  0.99559000  1.0
  F  F197  1  0.78903000  0.61055000  0.96583000  1.0
  F  F198  1  0.80608000  0.54442000  0.96845000  1.0
  F  F199  1  0.15528000  0.41324000  0.87795000  1.0
  F  F200  1  0.16280000  0.47763000  0.89917000  1.0
  F  F201  1  0.16597000  0.42574000  0.94163000  1.0
  F  F202  1  0.36335000  0.37684000  0.87824000  1.0
  F  F203  1  0.37875000  0.44074000  0.89806000  1.0
  F  F204  1  0.36356000  0.42840000  0.83515000  1.0
  F  F205  1  0.36081000  0.55177000  0.17875000  1.0
  F  F206  1  0.34161000  0.49296000  0.15087000  1.0
  F  F207  1  0.30859000  0.51624000  0.20451000  1.0
  F  F208  1  0.22083000  0.63524000  0.03977000  1.0
  F  F209  1  0.24671000  0.67817000  0.08512000  1.0
  F  F210  1  0.18724000  0.64526000  0.09597000  1.0
  F  F211  1  0.65774000  0.41704000  0.19682000  1.0
  F  F212  1  0.71086000  0.45002000  0.22367000  1.0
  F  F213  1  0.71851000  0.38471000  0.20591000  1.0
  F  F214  1  0.71081000  0.47374000  0.01276000  1.0
  F  F215  1  0.76120000  0.42617000  0.01551000  1.0
  F  F216  1  0.77548000  0.49093000  0.03052000  1.0
  F  F217  1  0.11707000  0.55115000  0.83952000  1.0
  F  F218  1  0.07385000  0.60285000  0.82830000  1.0
  F  F219  1  0.14251000  0.61387000  0.82789000  1.0
  F  F220  1  0.11970000  0.59722000  0.62782000  1.0
  F  F221  1  0.08428000  0.53820000  0.63475000  1.0
  F  F222  1  0.15366000  0.53869000  0.63726000  1.0
  F  F223  1  0.20833000  0.41967000  0.32344000  1.0
  F  F224  1  0.18234000  0.48006000  0.34185000  1.0
  F  F225  1  0.22182000  0.47547000  0.28794000  1.0
  F  F226  1  0.00484000  0.42356000  0.24811000  1.0
  F  F227  1  0.03858000  0.37034000  0.22093000  1.0
  F  F228  1  0.03631000  0.43072000  0.19010000  1.0
  F  F229  1  0.95369000  0.53511000  0.19548000  1.0
  F  F230  1  0.89548000  0.50011000  0.18552000  1.0
  F  F231  1  0.94125000  0.47894000  0.23124000  1.0
  F  F232  1  0.88307000  0.65873000  0.33787000  1.0
  F  F233  1  0.82586000  0.62058000  0.34536000  1.0
  F  F234  1  0.83351000  0.66055000  0.29221000  1.0
  F  F235  1  0.94096000  0.43699000  0.82110000  1.0
  F  F236  1  0.89310000  0.48572000  0.82636000  1.0
  F  F237  1  0.95115000  0.49767000  0.79200000  1.0
  F  F238  1  0.86372000  0.35166000  0.66319000  1.0
  F  F239  1  0.87432000  0.40743000  0.62544000  1.0
  F  F240  1  0.81305000  0.39777000  0.65508000  1.0
  F  F241  1  0.40512000  0.65008000  0.80085000  1.0
  F  F242  1  0.44809000  0.69474000  0.77302000  1.0
  F  F243  1  0.38234000  0.71308000  0.78649000  1.0
  F  F244  1  0.49281000  0.76808000  0.96000000  1.0
  F  F245  1  0.47368000  0.70578000  0.97991000  1.0
  F  F246  1  0.42708000  0.75691000  0.97855000  1.0
  F  F247  1  0.59994000  0.32664000  0.81091000  1.0
  F  F248  1  0.54268000  0.29153000  0.79605000  1.0
  F  F249  1  0.60526000  0.26109000  0.79405000  1.0
  F  F250  1  0.54851000  0.26993000  0.00055000  1.0
  F  F251  1  0.60443000  0.22926000  0.99398000  1.0
  F  F252  1  0.54062000  0.20467000  0.98324000  1.0
  F  F253  1  0.40698000  0.34274000  0.19966000  1.0
  F  F254  1  0.46371000  0.30761000  0.21680000  1.0
  F  F255  1  0.40094000  0.27766000  0.21869000  1.0
  F  F256  1  0.45919000  0.27877000  0.01323000  1.0
  F  F257  1  0.40430000  0.23698000  0.02129000  1.0
  F  F258  1  0.46862000  0.21456000  0.03379000  1.0
  F  F259  1  0.53686000  0.82736000  0.04272000  1.0
  F  F260  1  0.49792000  0.83027000  0.09664000  1.0
  F  F261  1  0.48194000  0.78585000  0.04900000  1.0
  F  F262  1  0.67305000  0.69424000  0.11257000  1.0
  F  F263  1  0.62334000  0.64623000  0.11817000  1.0
  F  F264  1  0.63865000  0.68629000  0.16912000  1.0
  F  F265  1  0.17154000  0.94613000  0.56928000  1.0
  F  F266  1  0.16319000  0.88175000  0.59008000  1.0
  F  F267  1  0.16529000  0.89634000  0.52552000  1.0
  F  F268  1  0.37547000  0.88241000  0.60723000  1.0
  F  F269  1  0.38286000  0.91438000  0.54879000  1.0
  F  F270  1  0.37414000  0.84688000  0.55158000  1.0
  F  F271  1  0.64161000  0.80803000  0.43443000  1.0
  F  F272  1  0.65012000  0.83452000  0.49448000  1.0
  F  F273  1  0.69143000  0.78376000  0.47345000  1.0
  F  F274  1  0.76901000  0.97662000  0.39019000  1.0
  F  F275  1  0.77303000  0.92996000  0.34196000  1.0
  F  F276  1  0.81944000  0.93013000  0.39072000  1.0
  F  F277  1  0.82752000  0.07562000  0.60165000  1.0
  F  F278  1  0.82171000  0.14218000  0.61482000  1.0
  F  F279  1  0.84174000  0.12098000  0.55502000  1.0
  F  F280  1  0.61272000  0.10453000  0.56196000  1.0
  F  F281  1  0.63897000  0.05692000  0.52142000  1.0
  F  F282  1  0.63495000  0.12180000  0.50227000  1.0
  F  F283  1  0.16803000  0.06287000  0.40650000  1.0
  F  F284  1  0.16559000  0.12934000  0.39128000  1.0
  F  F285  1  0.15647000  0.10798000  0.45346000  1.0
  F  F286  1  0.37804000  0.11634000  0.40218000  1.0
  F  F287  1  0.37465000  0.07937000  0.45822000  1.0
  F  F288  1  0.37032000  0.14731000  0.45992000  1.0
