# generated using pymatgen
data_H68C109(N2O3)4
_symmetry_space_group_name_H-M   'P 1'
_cell_length_a   36.71110000
_cell_length_b   37.07610468
_cell_length_c   37.06589746
_cell_angle_alpha   75.81383813
_cell_angle_beta   60.31613966
_cell_angle_gamma   60.32513058
_symmetry_Int_Tables_number   1
_chemical_formula_structural   H68C109(N2O3)4
_chemical_formula_sum   'H272 C436 N32 O48'
_cell_volume   38081.63009633
_cell_formula_units_Z   4
loop_
 _symmetry_equiv_pos_site_id
 _symmetry_equiv_pos_as_xyz
  1  'x, y, z'
loop_
 _atom_site_type_symbol
 _atom_site_label
 _atom_site_symmetry_multiplicity
 _atom_site_fract_x
 _atom_site_fract_y
 _atom_site_fract_z
 _atom_site_occupancy
  C  2  1  0.28620900  0.76877750  0.88065050  1
  C  3  1  0.36439400  0.73871700  0.87715900  1
  C  4  1  0.29546800  0.75399750  0.94421550  1
  C  5  1  0.28288100  0.72182150  0.96574550  1
  C  6  1  0.26301800  0.72024100  0.00931300  1
  C  7  1  0.25452500  0.75133900  0.03205700  1
  C  8  1  0.26656700  0.78386900  0.01049800  1
  C  9  1  0.28767200  0.78476000  0.96679400  1
  C  10  1  0.28855300  0.74043700  0.85924300  1
  C  11  1  0.25929650  0.75413500  0.83975600  1
  C  12  1  0.22707700  0.79642650  0.84154150  1
  C  13  1  0.22430800  0.82456950  0.86363950  1
  C  14  1  0.25387600  0.81090650  0.88269750  1
  C  15  1  0.38575900  0.76463100  0.85207600  1
  C  16  1  0.43482300  0.74820900  0.83037700  1
  C  17  1  0.46334850  0.70555150  0.83348950  1
  C  18  1  0.44168350  0.67969250  0.85854850  1
  C  19  1  0.39271650  0.69602600  0.87974500  1
  C  32  1  0.19787400  0.81039400  0.82261200  1
  C  33  1  0.22947800  0.75173550  0.07573950  1
  C  34  1  0.51173800  0.68970900  0.81525000  1
  C  39  1  0.95489000  0.73466050  0.57737550  1
  C  40  1  0.99953850  0.76470600  0.58086200  1
  C  41  1  0.01271150  0.74965850  0.51380650  1
  C  42  1  0.98931150  0.78198950  0.49249050  1
  C  43  1  0.01121250  0.78376300  0.44892900  1
  C  44  1  0.05650850  0.75272700  0.42598500  1
  C  45  1  0.07969850  0.72003900  0.44731500  1
  C  46  1  0.05820850  0.71894550  0.49101750  1
  C  47  1  0.90748300  0.76298400  0.59880600  1
  C  48  1  0.87244350  0.74928000  0.61823800  1
  C  49  1  0.88431550  0.70699750  0.61637650  1
  C  50  1  0.93179350  0.67886800  0.59427800  1
  C  51  1  0.96674900  0.69253650  0.57527050  1
  C  52  1  0.02189750  0.73873800  0.60581000  1
  C  53  1  0.03286200  0.75512750  0.62751650  1
  C  54  1  0.02173350  0.79780650  0.62452550  1
  C  55  1  0.99912050  0.82371400  0.59958800  1
  C  56  1  0.98762100  0.80741800  0.57841600  1
  C  69  1  0.85017000  0.69301650  0.63522350  1
  C  70  1  0.07533250  0.75262550  0.38232650  1
  C  71  1  0.03612550  0.81361500  0.64270800  1
  C  76  1  0.05348900  0.90319300  0.71184100  1
  C  77  1  0.10156700  0.89979750  0.74190250  1
  C  78  1  0.04756100  0.96679050  0.72692350  1
  C  79  1  0.00296450  0.98795450  0.75947750  1
  C  80  1  0.98112800  0.03150300  0.76135200  1
  C  81  1  0.00312950  0.05458700  0.73014400  1
  C  82  1  0.04751400  0.03340350  0.69721750  1
  C  83  1  0.06995250  0.98971650  0.69606750  1
  C  84  1  0.02753350  0.88175900  0.74019900  1
  C  85  1  0.01194400  0.86228700  0.72651800  1
  C  86  1  0.02194700  0.86411400  0.68422800  1
  C  87  1  0.04729350  0.88622450  0.65606850  1
  C  88  1  0.06323400  0.90526100  0.66971300  1
  C  89  1  0.14890500  0.87490200  0.71594000  1
  C  90  1  0.18153600  0.85323000  0.73236900  1
  C  91  1  0.16734100  0.85614650  0.77509350  1
  C  92  1  0.11976550  0.88103550  0.80099250  1
  C  93  1  0.08714350  0.90220800  0.78465000  1
  C  106  1  0.00663800  0.84524500  0.67027900  1
  C  107  1  0.97803100  0.09819850  0.73011850  1
  C  108  1  0.19986550  0.83793600  0.79095900  1
  C  113  1  0.68778300  0.60015100  0.74598300  1
  C  114  1  0.76246050  0.60370000  0.71587900  1
  C  115  1  0.76064800  0.53664350  0.73120650  1
  C  116  1  0.76954450  0.51504350  0.69910150  1
  C  117  1  0.79332200  0.47149300  0.69754500  1
  C  118  1  0.80768650  0.44884050  0.72859950  1
  C  119  1  0.79821750  0.47047000  0.76106100  1
  C  120  1  0.77555950  0.51415750  0.76191650  1
  C  121  1  0.66868800  0.62151500  0.71765800  1
  C  122  1  0.61993700  0.64095300  0.73139800  1
  C  123  1  0.58953400  0.63915650  0.77371550  1
  C  124  1  0.60889400  0.61711250  0.80184350  1
  C  125  1  0.65752700  0.59810200  0.78814000  1
  C  126  1  0.75871800  0.62879000  0.74180900  1
  C  127  1  0.78612050  0.65044750  0.72539550  1
  C  128  1  0.81778950  0.64731950  0.68272250  1
  C  129  1  0.82118450  0.62227000  0.65685100  1
  C  130  1  0.79339450  0.60109400  0.67318000  1
  C  143  1  0.54140000  0.65803550  0.78772650  1
  C  144  1  0.82644550  0.40516600  0.72903000  1
  C  145  1  0.84798150  0.66550500  0.66690200  1
  C  150  1  0.52022400  0.23662050  0.07724350  1
  C  151  1  0.44188650  0.26674150  0.08103350  1
  C  152  1  0.51063500  0.25140850  0.01384450  1
  C  153  1  0.52323650  0.28353850  0.99215050  1
  C  154  1  0.54298050  0.28501350  0.94858750  1
  C  155  1  0.55128400  0.25388200  0.92602000  1
  C  156  1  0.53921150  0.22140650  0.94773650  1
  C  157  1  0.51823750  0.22061500  0.99144200  1
  C  158  1  0.51809000  0.26489050  0.09856350  1
  C  159  1  0.54750600  0.25109200  0.11790500  1
  C  160  1  0.57966850  0.20877150  0.11605550  1
  C  161  1  0.58221950  0.18069850  0.09405050  1
  C  162  1  0.55249350  0.19446050  0.07514150  1
  C  163  1  0.42059850  0.24080100  0.10621700  1
  C  164  1  0.37154550  0.25717000  0.12798100  1
  C  165  1  0.34295050  0.29980750  0.12486550  1
  C  166  1  0.36454500  0.32569600  0.09972600  1
  C  167  1  0.41350500  0.30941600  0.07846000  1
  C  180  1  0.60900600  0.19469050  0.13485750  1
  C  181  1  0.57616000  0.25340900  0.88232800  1
  C  182  1  0.29457350  0.31556900  0.14310300  1
  C  187  1  0.85141850  0.27040900  0.38035300  1
  C  188  1  0.80680700  0.24042650  0.37672350  1
  C  189  1  0.79347250  0.25548650  0.44383850  1
  C  190  1  0.81675050  0.22298200  0.46513100  1
  C  191  1  0.79481250  0.22113500  0.50868800  1
  C  192  1  0.74962400  0.25228950  0.53165750  1
  C  193  1  0.72658500  0.28517400  0.51034900  1
  C  194  1  0.74808900  0.28632750  0.46664850  1
  C  195  1  0.89880750  0.24198500  0.35904500  1
  C  196  1  0.93393650  0.25557800  0.33964400  1
  C  197  1  0.92217350  0.29784300  0.34142200  1
  C  198  1  0.87471900  0.32606750  0.36342950  1
  C  199  1  0.83967200  0.31251100  0.38239400  1
  C  200  1  0.78450350  0.26634750  0.35171950  1
  C  201  1  0.77364750  0.24989800  0.32996500  1
  C  202  1  0.78489100  0.20719500  0.33291300  1
  C  203  1  0.80746000  0.18133200  0.35789400  1
  C  204  1  0.81880400  0.19769700  0.37915100  1
  C  217  1  0.95639750  0.31173150  0.32255450  1
  C  218  1  0.73092700  0.25235150  0.57529450  1
  C  219  1  0.77065050  0.19130600  0.31464900  1
  C  224  1  0.75361250  0.10160100  0.24541300  1
  C  225  1  0.70543100  0.10514250  0.21539550  1
  C  226  1  0.75905150  0.03808200  0.23065300  1
  C  227  1  0.80386550  0.01650300  0.19854000  1
  C  228  1  0.82525700  0.97295000  0.19701600  1
  C  229  1  0.80250350  0.95028300  0.22805900  1
  C  230  1  0.75787350  0.97188650  0.26052350  1
  C  231  1  0.73595250  0.01557550  0.26137650  1
  C  232  1  0.77960300  0.12301500  0.21708200  1
  C  233  1  0.79514400  0.14249600  0.23080700  1
  C  234  1  0.78505850  0.14069450  0.27311450  1
  C  235  1  0.75969000  0.11859050  0.30125050  1
  C  236  1  0.74380050  0.09953850  0.28756150  1
  C  237  1  0.65819150  0.13029700  0.24135500  1
  C  238  1  0.62551050  0.15203900  0.22498700  1
  C  239  1  0.63956400  0.14890800  0.18233400  1
  C  240  1  0.68705050  0.12378650  0.15642950  1
  C  241  1  0.71972550  0.10253600  0.17271100  1
  C  254  1  0.80024350  0.15963350  0.28712450  1
  C  255  1  0.82700650  0.90661200  0.22849600  1
  C  256  1  0.60695600  0.16721000  0.16656400  1
  C  261  1  0.11852500  0.40494600  0.21195800  1
  C  262  1  0.04400350  0.40115350  0.24192350  1
  C  263  1  0.04556400  0.46831450  0.22669850  1
  C  264  1  0.03623150  0.48988750  0.25905550  1
  C  265  1  0.01240050  0.53343250  0.26065150  1
  C  266  1  0.99837650  0.55610550  0.22941650  1
  C  267  1  0.00829900  0.53451400  0.19669600  1
  C  268  1  0.03100100  0.49082500  0.19579700  1
  C  269  1  0.13752400  0.38371600  0.24036900  1
  C  270  1  0.18625200  0.36438500  0.22673500  1
  C  271  1  0.21672500  0.36615850  0.18443750  1
  C  272  1  0.19745700  0.38808500  0.15622700  1
  C  273  1  0.14885050  0.40698150  0.16982550  1
  C  274  1  0.04782650  0.37604200  0.21596000  1
  C  275  1  0.02052400  0.35429300  0.23233700  1
  C  276  1  0.98886450  0.35736150  0.27500750  1
  C  277  1  0.98538850  0.38243050  0.30091750  1
  C  278  1  0.01311450  0.40366250  0.28463250  1
  C  291  1  0.26484100  0.34733700  0.17051400  1
  C  292  1  0.97966600  0.59975500  0.22905300  1
  C  293  1  0.95870850  0.33914150  0.29078850  1
  C  593  1  0.73988200  0.27083900  0.62811900  1
  C  594  1  0.77108150  0.23134550  0.63589050  1
  C  595  1  0.78269550  0.22533550  0.66844250  1
  C  596  1  0.76574650  0.25879100  0.69348000  1
  C  597  1  0.73224800  0.29773000  0.68691100  1
  C  598  1  0.72065850  0.30397050  0.65422550  1
  C  599  1  0.77783600  0.25238000  0.72922000  1
  C  600  1  0.73619050  0.24619900  0.76482700  1
  C  601  1  0.69474300  0.27975900  0.78980300  1
  C  602  1  0.65637150  0.27396650  0.82222050  1
  C  603  1  0.65660650  0.23459200  0.82993600  1
  C  604  1  0.69652800  0.20136750  0.80389450  1
  C  605  1  0.73475500  0.20740500  0.77131900  1
  C  606  1  0.82557700  0.21659750  0.72298650  1
  C  607  1  0.78382200  0.28793450  0.73557850  1
  C  608  1  0.77848900  0.29443150  0.77450750  1
  C  609  1  0.78408700  0.32696700  0.78070300  1
  C  610  1  0.79814650  0.35296950  0.74752850  1
  C  611  1  0.80636717  0.34524350  0.70803050  1
  C  612  1  0.80050650  0.31285250  0.70207450  1
  C  613  1  0.86581150  0.20996500  0.68414900  1
  C  614  1  0.90999250  0.17721300  0.67807000  1
  C  615  1  0.91659650  0.15107400  0.71127700  1
  C  616  1  0.87746100  0.15890500  0.75068500  1
  C  617  1  0.83339950  0.19154450  0.75653850  1
  C  691  1  0.00728750  0.65241950  0.21046250  1
  C  692  1  0.99920400  0.66005300  0.24993700  1
  C  693  1  0.00505600  0.69244750  0.25591550  1
  C  694  1  0.02163000  0.71743900  0.22244300  1
  C  695  1  0.02681100  0.71104250  0.18354850  1
  C  696  1  0.02118900  0.67853050  0.17733950  1
  C  697  1  0.02769000  0.75294250  0.22880550  1
  C  698  1  0.97992950  0.78874750  0.23515350  1
  C  699  1  0.97198700  0.81384200  0.20166600  1
  C  700  1  0.92786750  0.84642500  0.20760400  1
  C  701  1  0.88881000  0.85417100  0.24705300  1
  C  702  1  0.89554000  0.82803500  0.28021200  1
  C  703  1  0.93976600  0.79531200  0.27403600  1
  C  704  1  0.03988750  0.74645700  0.26449000  1
  C  705  1  0.06931000  0.75911450  0.19314050  1
  C  706  1  0.07080050  0.79788450  0.18661250  1
  C  707  1  0.10904550  0.80388050  0.15401050  1
  C  708  1  0.14889800  0.77064000  0.12795100  1
  C  709  1  0.14909450  0.73128350  0.13569750  1
  C  710  1  0.11071750  0.72553150  0.16815750  1
  C  711  1  0.07338950  0.70748800  0.27100900  1
  C  712  1  0.08505700  0.70117500  0.30365800  1
  C  713  1  0.06587600  0.73426250  0.32979350  1
  C  714  1  0.03472200  0.77380000  0.32204900  1
  C  715  1  0.02305100  0.77987700  0.28952000  1
  C  790  1  0.93209300  0.76877750  0.88065050  1
  C  791  1  0.01027800  0.73871700  0.87715900  1
  C  792  1  0.94135200  0.75399750  0.94421550  1
  C  793  1  0.92876500  0.72182150  0.96574550  1
  C  794  1  0.90890200  0.72024100  0.00931300  1
  C  795  1  0.90040900  0.75133900  0.03205700  1
  C  796  1  0.91245100  0.78386900  0.01049800  1
  C  797  1  0.93355600  0.78476000  0.96679400  1
  C  798  1  0.93443700  0.74043700  0.85924300  1
  C  799  1  0.90518050  0.75413500  0.83975600  1
  C  800  1  0.87296100  0.79642650  0.84154150  1
  C  801  1  0.87019200  0.82456950  0.86363950  1
  C  802  1  0.89976000  0.81090650  0.88269750  1
  C  803  1  0.03164300  0.76463100  0.85207600  1
  C  804  1  0.08070700  0.74820900  0.83037700  1
  C  805  1  0.10923250  0.70555150  0.83348950  1
  C  806  1  0.08756750  0.67969250  0.85854850  1
  C  807  1  0.03860050  0.69602600  0.87974500  1
  C  820  1  0.84375800  0.81039400  0.82261200  1
  C  821  1  0.87536200  0.75173550  0.07573950  1
  C  822  1  0.15762185  0.68970900  0.81525000  1
  C  827  1  0.60077400  0.73466050  0.57737550  1
  C  828  1  0.64542250  0.76470600  0.58086200  1
  C  829  1  0.65859550  0.74965850  0.51380650  1
  C  830  1  0.63519550  0.78198950  0.49249050  1
  C  831  1  0.65709650  0.78376300  0.44892900  1
  C  832  1  0.70239250  0.75272700  0.42598500  1
  C  833  1  0.72558250  0.72003900  0.44731500  1
  C  834  1  0.70409250  0.71894550  0.49101750  1
  C  835  1  0.55336700  0.76298400  0.59880600  1
  C  836  1  0.51832750  0.74928000  0.61823800  1
  C  837  1  0.53019950  0.70699750  0.61637650  1
  C  838  1  0.57767750  0.67886800  0.59427800  1
  C  839  1  0.61263300  0.69253650  0.57527050  1
  C  840  1  0.66778150  0.73873800  0.60581000  1
  C  841  1  0.67874600  0.75512750  0.62751650  1
  C  842  1  0.66761750  0.79780650  0.62452550  1
  C  843  1  0.64500450  0.82371400  0.59958800  1
  C  844  1  0.63350500  0.80741800  0.57841600  1
  C  857  1  0.49605400  0.69301650  0.63522350  1
  C  858  1  0.72121650  0.75262550  0.38232650  1
  C  859  1  0.68200935  0.81361500  0.64270800  1
  C  864  1  0.69937300  0.90319300  0.71184100  1
  C  865  1  0.74745100  0.89979750  0.74190250  1
  C  866  1  0.69344500  0.96679050  0.72692350  1
  C  867  1  0.64884850  0.98795450  0.75947750  1
  C  868  1  0.62701200  0.03150300  0.76135200  1
  C  869  1  0.64901350  0.05458700  0.73014400  1
  C  870  1  0.69339800  0.03340350  0.69721750  1
  C  871  1  0.71583650  0.98971650  0.69606750  1
  C  872  1  0.67341735  0.88175900  0.74019900  1
  C  873  1  0.65782785  0.86228700  0.72651800  1
  C  874  1  0.66783085  0.86411400  0.68422800  1
  C  875  1  0.69317735  0.88622450  0.65606850  1
  C  876  1  0.70911783  0.90526100  0.66971300  1
  C  877  1  0.79478900  0.87490200  0.71594000  1
  C  878  1  0.82742000  0.85323000  0.73236900  1
  C  879  1  0.81322500  0.85614650  0.77509350  1
  C  880  1  0.76564950  0.88103550  0.80099250  1
  C  881  1  0.73302750  0.90220800  0.78465000  1
  C  894  1  0.65252185  0.84524500  0.67027900  1
  C  895  1  0.62391500  0.09819850  0.73011850  1
  C  896  1  0.84574950  0.83793600  0.79095900  1
  C  901  1  0.33366700  0.60015100  0.74598300  1
  C  902  1  0.40834450  0.60370000  0.71587900  1
  C  903  1  0.40653200  0.53664350  0.73120650  1
  C  904  1  0.41542850  0.51504350  0.69910150  1
  C  905  1  0.43920600  0.47149300  0.69754500  1
  C  906  1  0.45357050  0.44884050  0.72859950  1
  C  907  1  0.44410150  0.47047000  0.76106100  1
  C  908  1  0.42144350  0.51415750  0.76191650  1
  C  909  1  0.31457185  0.62151500  0.71765800  1
  C  910  1  0.26582085  0.64095300  0.73139800  1
  C  911  1  0.23541785  0.63915650  0.77371550  1
  C  912  1  0.25477785  0.61711250  0.80184350  1
  C  913  1  0.30341084  0.59810200  0.78814000  1
  C  914  1  0.40460200  0.62879000  0.74180900  1
  C  915  1  0.43200450  0.65044750  0.72539550  1
  C  916  1  0.46367350  0.64731950  0.68272250  1
  C  917  1  0.46706850  0.62227000  0.65685100  1
  C  918  1  0.43927850  0.60109400  0.67318000  1
  C  931  1  0.18728385  0.65803550  0.78772650  1
  C  932  1  0.47232950  0.40516600  0.72903000  1
  C  933  1  0.49386550  0.66550500  0.66690200  1
  C  938  1  0.16610800  0.23662050  0.07724350  1
  C  939  1  0.08777050  0.26674150  0.08103350  1
  C  940  1  0.15651900  0.25140850  0.01384450  1
  C  941  1  0.16912050  0.28353850  0.99215050  1
  C  942  1  0.18886450  0.28501350  0.94858750  1
  C  943  1  0.19716800  0.25388200  0.92602000  1
  C  944  1  0.18509550  0.22140650  0.94773650  1
  C  945  1  0.16412150  0.22061500  0.99144200  1
  C  946  1  0.16397400  0.26489050  0.09856350  1
  C  947  1  0.19339000  0.25109200  0.11790500  1
  C  948  1  0.22555250  0.20877150  0.11605550  1
  C  949  1  0.22810350  0.18069850  0.09405050  1
  C  950  1  0.19836417  0.19446050  0.07514150  1
  C  951  1  0.06648250  0.24080100  0.10621700  1
  C  952  1  0.01742950  0.25717000  0.12798100  1
  C  953  1  0.98883450  0.29980750  0.12486550  1
  C  954  1  0.01042900  0.32569600  0.09972600  1
  C  955  1  0.05938900  0.30941600  0.07846000  1
  C  968  1  0.25488985  0.19469050  0.13485750  1
  C  969  1  0.22204400  0.25340900  0.88232800  1
  C  970  1  0.94045750  0.31556900  0.14310300  1
  C  975  1  0.49730250  0.27040900  0.38035300  1
  C  976  1  0.45269100  0.24042650  0.37672350  1
  C  977  1  0.43935650  0.25548650  0.44383850  1
  C  978  1  0.46263450  0.22298200  0.46513100  1
  C  979  1  0.44069650  0.22113500  0.50868800  1
  C  980  1  0.39550800  0.25228950  0.53165750  1
  C  981  1  0.37246900  0.28517400  0.51034900  1
  C  982  1  0.39397300  0.28632750  0.46664850  1
  C  983  1  0.54469150  0.24198500  0.35904500  1
  C  984  1  0.57982050  0.25557800  0.33964400  1
  C  985  1  0.56805750  0.29784300  0.34142200  1
  C  986  1  0.52060300  0.32606750  0.36342950  1
  C  987  1  0.48555600  0.31251100  0.38239400  1
  C  988  1  0.43038750  0.26634750  0.35171950  1
  C  989  1  0.41953150  0.24989800  0.32996500  1
  C  990  1  0.43077500  0.20719500  0.33291300  1
  C  991  1  0.45334400  0.18133200  0.35789400  1
  C  992  1  0.46468800  0.19769700  0.37915100  1
  C  1005  1  0.60228135  0.31173150  0.32255450  1
  C  1006  1  0.37681100  0.25235150  0.57529450  1
  C  1007  1  0.41653450  0.19130600  0.31464900  1
  C  1012  1  0.39949650  0.10160100  0.24541300  1
  C  1013  1  0.35131500  0.10514250  0.21539550  1
  C  1014  1  0.40493550  0.03808200  0.23065300  1
  C  1015  1  0.44974950  0.01650300  0.19854000  1
  C  1016  1  0.47114100  0.97295000  0.19701600  1
  C  1017  1  0.44838750  0.95028300  0.22805900  1
  C  1018  1  0.40375750  0.97188650  0.26052350  1
  C  1019  1  0.38183650  0.01557550  0.26137650  1
  C  1020  1  0.42548700  0.12301500  0.21708200  1
  C  1021  1  0.44102800  0.14249600  0.23080700  1
  C  1022  1  0.43094250  0.14069450  0.27311450  1
  C  1023  1  0.40557400  0.11859050  0.30125050  1
  C  1024  1  0.38968450  0.09953850  0.28756150  1
  C  1025  1  0.30407534  0.13029700  0.24135500  1
  C  1026  1  0.27139435  0.15203900  0.22498700  1
  C  1027  1  0.28544785  0.14890800  0.18233400  1
  C  1028  1  0.33293435  0.12378650  0.15642950  1
  C  1029  1  0.36560950  0.10253600  0.17271100  1
  C  1042  1  0.44612750  0.15963350  0.28712450  1
  C  1043  1  0.47289050  0.90661200  0.22849600  1
  C  1044  1  0.25283985  0.16721000  0.16656400  1
  C  1049  1  0.76440900  0.40494600  0.21195800  1
  C  1050  1  0.68988750  0.40115350  0.24192350  1
  C  1051  1  0.69144800  0.46831450  0.22669850  1
  C  1052  1  0.68211550  0.48988750  0.25905550  1
  C  1053  1  0.65828450  0.53343250  0.26065150  1
  C  1054  1  0.64426050  0.55610550  0.22941650  1
  C  1055  1  0.65418300  0.53451400  0.19669600  1
  C  1056  1  0.67688500  0.49082500  0.19579700  1
  C  1057  1  0.78340800  0.38371600  0.24036900  1
  C  1058  1  0.83213600  0.36438500  0.22673500  1
  C  1059  1  0.86260900  0.36615850  0.18443750  1
  C  1060  1  0.84334100  0.38808500  0.15622700  1
  C  1061  1  0.79473450  0.40698150  0.16982550  1
  C  1062  1  0.69371034  0.37604200  0.21596000  1
  C  1063  1  0.66640785  0.35429300  0.23233700  1
  C  1064  1  0.63474835  0.35736150  0.27500750  1
  C  1065  1  0.63127235  0.38243050  0.30091750  1
  C  1066  1  0.65899850  0.40366250  0.28463250  1
  C  1079  1  0.91072500  0.34733700  0.17051400  1
  C  1080  1  0.62555000  0.59975500  0.22905300  1
  C  1081  1  0.60459235  0.33914150  0.29078850  1
  C  1381  1  0.38576600  0.27083900  0.62811900  1
  C  1382  1  0.41696550  0.23134550  0.63589050  1
  C  1383  1  0.42857950  0.22533550  0.66844250  1
  C  1384  1  0.41163050  0.25879100  0.69348000  1
  C  1385  1  0.37813200  0.29773000  0.68691100  1
  C  1386  1  0.36654250  0.30397050  0.65422550  1
  C  1387  1  0.42371985  0.25238000  0.72922000  1
  C  1388  1  0.38207450  0.24619900  0.76482700  1
  C  1389  1  0.34062700  0.27975900  0.78980300  1
  C  1390  1  0.30225550  0.27396650  0.82222050  1
  C  1391  1  0.30249050  0.23459200  0.82993600  1
  C  1392  1  0.34241200  0.20136750  0.80389450  1
  C  1393  1  0.38063900  0.20740500  0.77131900  1
  C  1394  1  0.47146085  0.21659750  0.72298650  1
  C  1395  1  0.42970585  0.28793450  0.73557850  1
  C  1396  1  0.42437285  0.29443150  0.77450750  1
  C  1397  1  0.42997085  0.32696700  0.78070300  1
  C  1398  1  0.44403034  0.35296950  0.74752850  1
  C  1399  1  0.45226435  0.34524350  0.70803050  1
  C  1400  1  0.44639035  0.31285250  0.70207450  1
  C  1401  1  0.51169535  0.20996500  0.68414900  1
  C  1402  1  0.55587635  0.17721300  0.67807000  1
  C  1403  1  0.56248034  0.15107400  0.71127700  1
  C  1404  1  0.52334485  0.15890500  0.75068500  1
  C  1405  1  0.47928335  0.19154450  0.75653850  1
  C  1479  1  0.65317150  0.65241950  0.21046250  1
  C  1480  1  0.64508800  0.66005300  0.24993700  1
  C  1481  1  0.65094000  0.69244750  0.25591550  1
  C  1482  1  0.66751400  0.71743900  0.22244300  1
  C  1483  1  0.67269500  0.71104250  0.18354850  1
  C  1484  1  0.66707300  0.67853050  0.17733950  1
  C  1485  1  0.67357400  0.75294250  0.22880550  1
  C  1486  1  0.62581350  0.78874750  0.23515350  1
  C  1487  1  0.61787100  0.81384200  0.20166600  1
  C  1488  1  0.57375150  0.84642500  0.20760400  1
  C  1489  1  0.53469400  0.85417100  0.24705300  1
  C  1490  1  0.54142400  0.82803500  0.28021200  1
  C  1491  1  0.58565000  0.79531200  0.27403600  1
  C  1492  1  0.68577150  0.74645700  0.26449000  1
  C  1493  1  0.71519400  0.75911450  0.19314050  1
  C  1494  1  0.71668450  0.79788450  0.18661250  1
  C  1495  1  0.75492950  0.80388050  0.15401050  1
  C  1496  1  0.79478200  0.77064000  0.12795100  1
  C  1497  1  0.79497850  0.73128350  0.13569750  1
  C  1498  1  0.75660150  0.72553150  0.16815750  1
  C  1499  1  0.71927350  0.70748800  0.27100900  1
  C  1500  1  0.73094100  0.70117500  0.30365800  1
  C  1501  1  0.71176000  0.73426250  0.32979350  1
  C  1502  1  0.68060600  0.77380000  0.32204900  1
  C  1503  1  0.66893500  0.77987700  0.28952000  1
  H  20  1  0.26177850  0.73307850  0.82421250  1
  H  21  1  0.31162100  0.70974750  0.85773250  1
  H  22  1  0.25161800  0.83179850  0.89822150  1
  H  23  1  0.20097100  0.85529700  0.86580900  1
  H  24  1  0.28788550  0.69957950  0.94977750  1
  H  25  1  0.25312350  0.69714450  0.02426950  1
  H  26  1  0.36567800  0.79569650  0.85021150  1
  H  27  1  0.44954650  0.76779450  0.81306950  1
  H  28  1  0.46135200  0.64888200  0.86217900  1
  H  29  1  0.37787150  0.67680500  0.89791000  1
  H  30  1  0.29619900  0.80848200  0.95150100  1
  H  31  1  0.25989600  0.80711600  0.02639900  1
  H  57  1  0.83832050  0.77032650  0.63378250  1
  H  58  1  0.89834100  0.79366900  0.60035200  1
  H  59  1  0.00090750  0.67166100  0.55972300  1
  H  60  1  0.94136050  0.64814650  0.59205750  1
  H  61  1  0.95615200  0.80421200  0.50861200  1
  H  62  1  0.99310900  0.80703000  0.43412500  1
  H  63  1  0.03110000  0.70765900  0.60758800  1
  H  64  1  0.04999850  0.73550250  0.64470950  1
  H  65  1  0.99154850  0.85453650  0.59602250  1
  H  66  1  0.97164100  0.82667900  0.56032300  1
  H  67  1  0.07527350  0.69510100  0.50615300  1
  H  68  1  0.11214400  0.69683550  0.43125750  1
  H  94  1  0.99337850  0.84674250  0.74758950  1
  H  95  1  0.01993850  0.88023850  0.77089050  1
  H  96  1  0.08182450  0.92081600  0.64881000  1
  H  97  1  0.05462900  0.88842550  0.62534350  1
  H  98  1  0.98612100  0.97173700  0.78178300  1
  H  99  1  0.94827600  0.04618050  0.78475150  1
  H  100  1  0.15993250  0.87315250  0.68483850  1
  H  101  1  0.21587600  0.83603600  0.71275700  1
  H  102  1  0.10856400  0.88454400  0.83185300  1
  H  103  1  0.05303950  0.92021550  0.80392350  1
  H  104  1  0.10203650  0.97469400  0.67203900  1
  H  105  1  0.06365200  0.04955700  0.67389600  1
  H  131  1  0.60685250  0.65645800  0.71035100  1
  H  132  1  0.69022450  0.62302500  0.68695000  1
  H  133  1  0.67081650  0.58261200  0.80902100  1
  H  134  1  0.58774650  0.61494350  0.83259150  1
  H  135  1  0.75852700  0.53094600  0.67687600  1
  H  136  1  0.79837350  0.45647650  0.67449350  1
  H  137  1  0.73678200  0.63063950  0.77288850  1
  H  138  1  0.78354450  0.66773650  0.74499350  1
  H  139  1  0.84451250  0.61861800  0.62603300  1
  H  140  1  0.79673500  0.58291850  0.65395050  1
  H  141  1  0.76880950  0.52950200  0.78560000  1
  H  142  1  0.80753400  0.45463250  0.78427850  1
  H  168  1  0.54517750  0.27209350  0.13338950  1
  H  169  1  0.49506200  0.29559750  0.10011850  1
  H  170  1  0.55459150  0.17361950  0.05968750  1
  H  171  1  0.60550300  0.14994850  0.09185050  1
  H  172  1  0.51832450  0.30582500  0.00799500  1
  H  173  1  0.55281050  0.30812100  0.93350100  1
  H  174  1  0.44072650  0.20974400  0.10807300  1
  H  175  1  0.35687500  0.23756450  0.14535350  1
  H  176  1  0.34482950  0.35647450  0.09603050  1
  H  177  1  0.42829550  0.32863600  0.06016500  1
  H  178  1  0.50971750  0.19691550  0.00685450  1
  H  179  1  0.54575350  0.19813400  0.93195700  1
  H  205  1  0.96804300  0.23446650  0.32416650  1
  H  206  1  0.90786950  0.21131200  0.35754400  1
  H  207  1  0.80552750  0.33346150  0.39784550  1
  H  208  1  0.86522800  0.35678350  0.36557150  1
  H  209  1  0.84986250  0.20069900  0.44900100  1
  H  210  1  0.81287950  0.19777350  0.52346350  1
  H  211  1  0.77523450  0.29743850  0.34996250  1
  H  212  1  0.75658650  0.26948050  0.31270250  1
  H  213  1  0.81512200  0.15048750  0.36142450  1
  H  214  1  0.83479800  0.17845650  0.39723850  1
  H  215  1  0.73111000  0.31029200  0.45153200  1
  H  216  1  0.69423650  0.30847150  0.52642650  1
  H  242  1  0.81371400  0.15804600  0.20975900  1
  H  243  1  0.78722700  0.12453850  0.18638250  1
  H  244  1  0.72516250  0.08401700  0.30844700  1
  H  245  1  0.75228150  0.11642100  0.33199200  1
  H  246  1  0.82117100  0.03242350  0.17630450  1
  H  247  1  0.85824600  0.95794850  0.17392150  1
  H  248  1  0.64725750  0.13215950  0.27242150  1
  H  249  1  0.59122400  0.16937850  0.24460650  1
  H  250  1  0.69812900  0.12013900  0.12562700  1
  H  251  1  0.75376300  0.08432300  0.15346100  1
  H  252  1  0.70367300  0.03090850  0.28506450  1
  H  253  1  0.74120000  0.95603500  0.28374200  1
  H  279  1  0.19927300  0.34895450  0.24783750  1
  H  280  1  0.11593500  0.38220950  0.27106150  1
  H  281  1  0.13563250  0.42237050  0.14888250  1
  H  282  1  0.21865900  0.39022200  0.12548900  1
  H  283  1  0.04702100  0.47396950  0.28140750  1
  H  284  1  0.00698750  0.54842450  0.28392250  1
  H  285  1  0.06976350  0.37422800  0.18488300  1
  H  286  1  0.02317250  0.33697000  0.21271800  1
  H  287  1  0.96205000  0.38605700  0.33172900  1
  H  288  1  0.00967050  0.42188650  0.30388250  1
  H  289  1  0.03810950  0.47550300  0.17191500  1
  H  290  1  0.99926800  0.55037100  0.17333400  1
  H  618  1  0.77755100  0.33177800  0.80978400  1
  H  619  1  0.76880500  0.27617550  0.79942050  1
  H  620  1  0.81472350  0.36427250  0.68346150  1
  H  621  1  0.80767600  0.30836350  0.67271250  1
  H  622  1  0.86299150  0.22828700  0.65920900  1
  H  623  1  0.93744700  0.17233600  0.64904400  1
  H  624  1  0.80662250  0.19610750  0.78585150  1
  H  625  1  0.76257900  0.18245750  0.75304450  1
  H  626  1  0.69807900  0.17236300  0.80871300  1
  H  627  1  0.62914500  0.29854400  0.84130700  1
  H  628  1  0.69224650  0.30904600  0.78532500  1
  H  629  1  0.71695350  0.32262450  0.70521650  1
  H  630  1  0.80481900  0.19596700  0.67296500  1
  H  631  1  0.78740650  0.20680400  0.61679600  1
  H  632  1  0.69819300  0.33306050  0.64937050  1
  H  633  1  0.88003850  0.13982000  0.77527900  1
  H  635  1  0.97148750  0.10044150  0.67879950  1
  H  637  1  0.77020150  0.40351100  0.78002900  1
  H  639  1  0.73563000  0.30343150  0.57752050  1
  H  641  1  0.63392550  0.20222150  0.88059750  1
  H  716  1  0.10756450  0.83285900  0.14919500  1
  H  717  1  0.04302800  0.82283300  0.20491300  1
  H  718  1  0.17630100  0.70668650  0.11662550  1
  H  719  1  0.11316900  0.69626050  0.17264750  1
  H  720  1  0.08865650  0.68262900  0.25267000  1
  H  721  1  0.10754000  0.67207100  0.30846300  1
  H  722  1  0.00092150  0.80926250  0.28504050  1
  H  723  1  0.94266750  0.77696700  0.29893800  1
  H  724  1  0.86813600  0.83286450  0.30926350  1
  H  725  1  0.92518050  0.86554150  0.18305450  1
  H  726  1  0.99871250  0.80933550  0.17232650  1
  H  727  1  0.03642400  0.72934450  0.15865650  1
  H  728  1  0.99800450  0.69684900  0.28526200  1
  H  729  1  0.99102250  0.64093600  0.27446500  1
  H  730  1  0.02765900  0.67377450  0.14826650  1
  H  731  1  0.01845400  0.79831700  0.34115800  1
  H  733  1  0.07026250  0.70165050  0.38036450  1
  H  735  1  0.17179000  0.80298600  0.07738200  1
  H  737  1  0.03550100  0.60183800  0.17791500  1
  H  739  1  0.83383600  0.90480550  0.27955050  1
  H  808  1  0.90766250  0.73307850  0.82421250  1
  H  809  1  0.95750500  0.70974750  0.85773250  1
  H  810  1  0.89750200  0.83179850  0.89822150  1
  H  811  1  0.84685500  0.85529700  0.86580900  1
  H  812  1  0.93376950  0.69957950  0.94977750  1
  H  813  1  0.89900750  0.69714450  0.02426950  1
  H  814  1  0.01156200  0.79569650  0.85021150  1
  H  815  1  0.09543050  0.76779450  0.81306950  1
  H  816  1  0.10723600  0.64888200  0.86217900  1
  H  817  1  0.02375550  0.67680500  0.89791000  1
  H  818  1  0.94208300  0.80848200  0.95150100  1
  H  819  1  0.90578000  0.80711600  0.02639900  1
  H  845  1  0.48420450  0.77032650  0.63378250  1
  H  846  1  0.54422500  0.79366900  0.60035200  1
  H  847  1  0.64679150  0.67166100  0.55972300  1
  H  848  1  0.58724450  0.64814650  0.59205750  1
  H  849  1  0.60203600  0.80421200  0.50861200  1
  H  850  1  0.63899300  0.80703000  0.43412500  1
  H  851  1  0.67698400  0.70765900  0.60758800  1
  H  852  1  0.69588250  0.73550250  0.64470950  1
  H  853  1  0.63743250  0.85453650  0.59602250  1
  H  854  1  0.61752500  0.82667900  0.56032300  1
  H  855  1  0.72115750  0.69510100  0.50615300  1
  H  856  1  0.75802800  0.69683550  0.43125750  1
  H  882  1  0.63926235  0.84674250  0.74758950  1
  H  883  1  0.66582233  0.88023850  0.77089050  1
  H  884  1  0.72770850  0.92081600  0.64881000  1
  H  885  1  0.70051285  0.88842550  0.62534350  1
  H  886  1  0.63200500  0.97173700  0.78178300  1
  H  887  1  0.59416000  0.04618050  0.78475150  1
  H  888  1  0.80581650  0.87315250  0.68483850  1
  H  889  1  0.86176000  0.83603600  0.71275700  1
  H  890  1  0.75444800  0.88454400  0.83185300  1
  H  891  1  0.69892350  0.92021550  0.80392350  1
  H  892  1  0.74792050  0.97469400  0.67203900  1
  H  893  1  0.70953600  0.04955700  0.67389600  1
  H  919  1  0.25273635  0.65645800  0.71035100  1
  H  920  1  0.33610834  0.62302500  0.68695000  1
  H  921  1  0.31670050  0.58261200  0.80902100  1
  H  922  1  0.23363035  0.61494350  0.83259150  1
  H  923  1  0.40441100  0.53094600  0.67687600  1
  H  924  1  0.44425750  0.45647650  0.67449350  1
  H  925  1  0.38266600  0.63063950  0.77288850  1
  H  926  1  0.42942850  0.66773650  0.74499350  1
  H  927  1  0.49039650  0.61861800  0.62603300  1
  H  928  1  0.44261900  0.58291850  0.65395050  1
  H  929  1  0.41469350  0.52950200  0.78560000  1
  H  930  1  0.45341800  0.45463250  0.78427850  1
  H  956  1  0.19106150  0.27209350  0.13338950  1
  H  957  1  0.14094600  0.29559750  0.10011850  1
  H  958  1  0.20047550  0.17361950  0.05968750  1
  H  959  1  0.25138700  0.14994850  0.09185050  1
  H  960  1  0.16420850  0.30582500  0.00799500  1
  H  961  1  0.19869450  0.30812100  0.93350100  1
  H  962  1  0.08661050  0.20974400  0.10807300  1
  H  963  1  0.00275900  0.23756450  0.14535350  1
  H  964  1  0.99071350  0.35647450  0.09603050  1
  H  965  1  0.07417950  0.32863600  0.06016500  1
  H  966  1  0.15560150  0.19691550  0.00685450  1
  H  967  1  0.19163750  0.19813400  0.93195700  1
  H  993  1  0.61392700  0.23446650  0.32416650  1
  H  994  1  0.55375350  0.21131200  0.35754400  1
  H  995  1  0.45141150  0.33346150  0.39784550  1
  H  996  1  0.51111200  0.35678350  0.36557150  1
  H  997  1  0.49574650  0.20069900  0.44900100  1
  H  998  1  0.45876350  0.19777350  0.52346350  1
  H  999  1  0.42111850  0.29743850  0.34996250  1
  H  1000  1  0.40247050  0.26948050  0.31270250  1
  H  1001  1  0.46100600  0.15048750  0.36142450  1
  H  1002  1  0.48068200  0.17845650  0.39723850  1
  H  1003  1  0.37699400  0.31029200  0.45153200  1
  H  1004  1  0.34012050  0.30847150  0.52642650  1
  H  1030  1  0.45959800  0.15804600  0.20975900  1
  H  1031  1  0.43311100  0.12453850  0.18638250  1
  H  1032  1  0.37104650  0.08401700  0.30844700  1
  H  1033  1  0.39816550  0.11642100  0.33199200  1
  H  1034  1  0.46705500  0.03242350  0.17630450  1
  H  1035  1  0.50413000  0.95794850  0.17392150  1
  H  1036  1  0.29314134  0.13215950  0.27242150  1
  H  1037  1  0.23710785  0.16937850  0.24460650  1
  H  1038  1  0.34401285  0.12013900  0.12562700  1
  H  1039  1  0.39964700  0.08432300  0.15346100  1
  H  1040  1  0.34955700  0.03090850  0.28506450  1
  H  1041  1  0.38708400  0.95603500  0.28374200  1
  H  1067  1  0.84515700  0.34895450  0.24783750  1
  H  1068  1  0.76181900  0.38220950  0.27106150  1
  H  1069  1  0.78151650  0.42237050  0.14888250  1
  H  1070  1  0.86454300  0.39022200  0.12548900  1
  H  1071  1  0.69290500  0.47396950  0.28140750  1
  H  1072  1  0.65287150  0.54842450  0.28392250  1
  H  1073  1  0.71564734  0.37422800  0.18488300  1
  H  1074  1  0.66905635  0.33697000  0.21271800  1
  H  1075  1  0.60793385  0.38605700  0.33172900  1
  H  1076  1  0.65555450  0.42188650  0.30388250  1
  H  1077  1  0.68399350  0.47550300  0.17191500  1
  H  1078  1  0.64515200  0.55037100  0.17333400  1
  H  1406  1  0.42343484  0.33177800  0.80978400  1
  H  1407  1  0.41468885  0.27617550  0.79942050  1
  H  1408  1  0.46060735  0.36427250  0.68346150  1
  H  1409  1  0.45355985  0.30836350  0.67271250  1
  H  1410  1  0.50887535  0.22828700  0.65920900  1
  H  1411  1  0.58333084  0.17233600  0.64904400  1
  H  1412  1  0.45250635  0.19610750  0.78585150  1
  H  1413  1  0.40846300  0.18245750  0.75304450  1
  H  1414  1  0.34396300  0.17236300  0.80871300  1
  H  1415  1  0.27502900  0.29854400  0.84130700  1
  H  1416  1  0.33813050  0.30904600  0.78532500  1
  H  1417  1  0.36283750  0.32262450  0.70521650  1
  H  1418  1  0.45070300  0.19596700  0.67296500  1
  H  1419  1  0.43329050  0.20680400  0.61679600  1
  H  1420  1  0.34407700  0.33306050  0.64937050  1
  H  1421  1  0.52592235  0.13982000  0.77527900  1
  H  1423  1  0.61737150  0.10044150  0.67879950  1
  H  1425  1  0.41608550  0.40351100  0.78002900  1
  H  1427  1  0.38151400  0.30343150  0.57752050  1
  H  1429  1  0.27980950  0.20222150  0.88059750  1
  H  1504  1  0.75344850  0.83285900  0.14919500  1
  H  1505  1  0.68891200  0.82283300  0.20491300  1
  H  1506  1  0.82218500  0.70668650  0.11662550  1
  H  1507  1  0.75905300  0.69626050  0.17264750  1
  H  1508  1  0.73454050  0.68262900  0.25267000  1
  H  1509  1  0.75342400  0.67207100  0.30846300  1
  H  1510  1  0.64680550  0.80926250  0.28504050  1
  H  1511  1  0.58855150  0.77696700  0.29893800  1
  H  1512  1  0.51402000  0.83286450  0.30926350  1
  H  1513  1  0.57106450  0.86554150  0.18305450  1
  H  1514  1  0.64459650  0.80933550  0.17232650  1
  H  1515  1  0.68230800  0.72934450  0.15865650  1
  H  1516  1  0.64388850  0.69684900  0.28526200  1
  H  1517  1  0.63690650  0.64093600  0.27446500  1
  H  1518  1  0.67354300  0.67377450  0.14826650  1
  H  1519  1  0.66433800  0.79831700  0.34115800  1
  H  1521  1  0.71614650  0.70165050  0.38036450  1
  H  1523  1  0.81767400  0.80298600  0.07738200  1
  H  1525  1  0.68138500  0.60183800  0.17791500  1
  H  1527  1  0.47972000  0.90480550  0.27955050  1
  N  1  1  0.31525400  0.75565350  0.90041950  1
  N  38  1  0.99058100  0.74778400  0.55760000  1
  N  75  1  0.06939400  0.92301350  0.72492550  1
  N  112  1  0.73660400  0.58042400  0.73280900  1
  N  149  1  0.49100550  0.24985450  0.05763450  1
  N  186  1  0.81561450  0.25743050  0.40005150  1
  N  223  1  0.73769050  0.08186000  0.23226200  1
  N  260  1  0.06973400  0.42454300  0.22500300  1
  N  634  1  0.95830400  0.11623550  0.70343950  1
  N  636  1  0.79743500  0.38763350  0.75541550  1
  N  638  1  0.73295850  0.27880650  0.59329750  1
  N  640  1  0.62263000  0.22678850  0.86466650  1
  N  732  1  0.07292950  0.72625850  0.36454950  1
  N  734  1  0.18300450  0.77833100  0.09326700  1
  N  736  1  0.00816450  0.61770200  0.20247300  1
  N  738  1  0.84705950  0.88894350  0.25494650  1
  N  789  1  0.96113800  0.75565350  0.90041950  1
  N  826  1  0.63646500  0.74778400  0.55760000  1
  N  863  1  0.71527800  0.92301350  0.72492550  1
  N  900  1  0.38248800  0.58042400  0.73280900  1
  N  937  1  0.13688950  0.24985450  0.05763450  1
  N  974  1  0.46149850  0.25743050  0.40005150  1
  N  1011  1  0.38357450  0.08186000  0.23226200  1
  N  1048  1  0.71561800  0.42454300  0.22500300  1
  N  1422  1  0.60418800  0.11623550  0.70343950  1
  N  1424  1  0.44331900  0.38763350  0.75541550  1
  N  1426  1  0.37884250  0.27880650  0.59329750  1
  N  1428  1  0.26851400  0.22678850  0.86466650  1
  N  1520  1  0.71881350  0.72625850  0.36454950  1
  N  1522  1  0.82888850  0.77833100  0.09326700  1
  N  1524  1  0.65404850  0.61770200  0.20247300  1
  N  1526  1  0.49294350  0.88894350  0.25494650  1
  O  35  1  0.52687400  0.70463250  0.82758050  1
  O  36  1  0.24767900  0.71688950  0.09576850  1
  O  37  1  0.16796100  0.79788900  0.83771700  1
  O  72  1  0.07853700  0.79876850  0.63020350  1
  O  73  1  0.07922350  0.78730250  0.36230650  1
  O  74  1  0.82291400  0.70550400  0.62005900  1
  O  109  1  0.22980650  0.85039550  0.77614850  1
  O  110  1  0.96178900  0.11821150  0.76485950  1
  O  111  1  0.96420900  0.86035250  0.68285050  1
  O  146  1  0.87545900  0.65311700  0.68182500  1
  O  147  1  0.86484900  0.38516700  0.69423800  1
  O  148  1  0.52658750  0.64284600  0.77531800  1
  O  183  1  0.27952400  0.30056200  0.13075700  1
  O  184  1  0.55787250  0.28812800  0.86221200  1
  O  185  1  0.63903200  0.20707150  0.11964550  1
  O  220  1  0.72826450  0.20614750  0.32699650  1
  O  221  1  0.72695050  0.21769950  0.59532650  1
  O  222  1  0.98358500  0.29927900  0.33778800  1
  O  257  1  0.57687150  0.15490450  0.18152350  1
  O  258  1  0.84337750  0.88671100  0.19364000  1
  O  259  1  0.84265100  0.14453900  0.27467600  1
  O  294  1  0.93124850  0.35154200  0.27584400  1
  O  295  1  0.94110000  0.61979550  0.26375650  1
  O  296  1  0.27956200  0.36265200  0.18289500  1
  O  823  1  0.17275785  0.70463250  0.82758050  1
  O  824  1  0.89356300  0.71688950  0.09576850  1
  O  825  1  0.81384500  0.79788900  0.83771700  1
  O  860  1  0.72442085  0.79876850  0.63020350  1
  O  861  1  0.72510750  0.78730250  0.36230650  1
  O  862  1  0.46879800  0.70550400  0.62005900  1
  O  897  1  0.87569050  0.85039550  0.77614850  1
  O  898  1  0.60767300  0.11821150  0.76485950  1
  O  899  1  0.61009300  0.86035250  0.68285050  1
  O  934  1  0.52134300  0.65311700  0.68182500  1
  O  935  1  0.51073300  0.38516700  0.69423800  1
  O  936  1  0.17247150  0.64284600  0.77531800  1
  O  971  1  0.92540800  0.30056200  0.13075700  1
  O  972  1  0.20375650  0.28812800  0.86221200  1
  O  973  1  0.28491585  0.20707150  0.11964550  1
  O  1008  1  0.37414850  0.20614750  0.32699650  1
  O  1009  1  0.37283450  0.21769950  0.59532650  1
  O  1010  1  0.62946885  0.29927900  0.33778800  1
  O  1045  1  0.22275550  0.15490450  0.18152350  1
  O  1046  1  0.48926150  0.88671100  0.19364000  1
  O  1047  1  0.48853500  0.14453900  0.27467600  1
  O  1082  1  0.57713250  0.35154200  0.27584400  1
  O  1083  1  0.58698400  0.61979550  0.26375650  1
  O  1084  1  0.92544600  0.36265200  0.18289500  1
