# generated using pymatgen
data_H32C43(N2O)4
_symmetry_space_group_name_H-M   'P 1'
_cell_length_a   58.15220000
_cell_length_b   58.26800000
_cell_length_c   113.73600000
_cell_angle_alpha   90.00000000
_cell_angle_beta   90.00000000
_cell_angle_gamma   90.00000000
_symmetry_Int_Tables_number   1
_chemical_formula_structural   H32C43(N2O)4
_chemical_formula_sum   'H1024 C1376 N256 O128'
_cell_volume   385384.47154355
_cell_formula_units_Z   32
loop_
 _symmetry_equiv_pos_site_id
 _symmetry_equiv_pos_as_xyz
  1  'x, y, z'
loop_
 _atom_site_type_symbol
 _atom_site_label
 _atom_site_symmetry_multiplicity
 _atom_site_fract_x
 _atom_site_fract_y
 _atom_site_fract_z
 _atom_site_occupancy
  H  26  1  0.96206100  0.83865000  0.89578100  1
  H  27  1  0.94064000  0.85873700  0.90986100  1
  H  28  1  0.92578500  0.77814100  0.90381300  1
  H  29  1  0.90364200  0.79883800  0.91802100  1
  H  30  1  0.89358800  0.81506500  0.94339600  1
  H  31  1  0.91149100  0.81031400  0.96190100  1
  H  32  1  0.96682800  0.85166200  0.95080600  1
  H  33  1  0.94854100  0.85686500  0.93233500  1
  H  34  1  0.91218900  0.88265100  0.93998800  1
  H  35  1  0.91251900  0.92234800  0.93609300  1
  H  36  1  0.89349900  0.90941900  0.90093000  1
  H  37  1  0.89425700  0.86935900  0.90472400  1
  H  38  1  0.87215800  0.82669700  0.90860100  1
  H  39  1  0.87458000  0.85738100  0.94204800  1
  H  40  1  0.83425700  0.85570800  0.94334600  1
  H  41  1  0.83127100  0.82484200  0.90991300  1
  H  44  1  0.93833500  0.82700800  0.97642500  1
  H  45  1  0.97026700  0.80512300  0.88467100  1
  H  47  1  0.90517300  0.94853900  0.90728100  1
  H  49  1  0.79803000  0.84154000  0.93634500  1
  H  75  1  0.01990600  0.67466500  0.39606100  1
  H  76  1  0.04144900  0.65455100  0.41009500  1
  H  77  1  0.05700300  0.73489900  0.40364700  1
  H  78  1  0.07924500  0.71417200  0.41780300  1
  H  79  1  0.08831100  0.69856500  0.44312800  1
  H  80  1  0.07039100  0.70328800  0.46164300  1
  H  81  1  0.01613300  0.66018600  0.45090700  1
  H  82  1  0.03444200  0.65502700  0.43244000  1
  H  83  1  0.07189200  0.63024100  0.43988800  1
  H  84  1  0.07245100  0.59055600  0.43598700  1
  H  85  1  0.08875500  0.60411000  0.40050800  1
  H  86  1  0.08756500  0.64407400  0.40441100  1
  H  87  1  0.11041700  0.68574900  0.40839500  1
  H  88  1  0.10792800  0.65644100  0.44215500  1
  H  89  1  0.14823100  0.65811300  0.44345100  1
  H  90  1  0.15131300  0.68758800  0.40969400  1
  H  93  1  0.04408600  0.68604000  0.47632400  1
  H  94  1  0.01188700  0.70809400  0.38483600  1
  H  96  1  0.08118700  0.56465800  0.40682700  1
  H  98  1  0.18452600  0.67155400  0.43628200  1
  H  124  1  0.07340500  0.78587700  0.64626600  1
  H  125  1  0.09345400  0.80743300  0.66031600  1
  H  126  1  0.01290900  0.82268800  0.65382600  1
  H  127  1  0.03356700  0.84493000  0.66800800  1
  H  128  1  0.04923800  0.85397000  0.69341400  1
  H  129  1  0.04455000  0.83593000  0.71189400  1
  H  130  1  0.08777100  0.78190900  0.70102600  1
  H  131  1  0.09290400  0.80033500  0.68260300  1
  H  132  1  0.11765100  0.83780900  0.69013700  1
  H  133  1  0.15742100  0.83839600  0.68624300  1
  H  134  1  0.14385500  0.85470500  0.65076700  1
  H  135  1  0.10381000  0.85349200  0.65466300  1
  H  136  1  0.06197100  0.87614400  0.65862700  1
  H  137  1  0.09126700  0.87374500  0.69240100  1
  H  138  1  0.08952300  0.91396600  0.69368300  1
  H  139  1  0.06006400  0.91695400  0.65990900  1
  H  142  1  0.06182400  0.80951600  0.72651500  1
  H  143  1  0.03999100  0.77785100  0.63498200  1
  H  145  1  0.18336800  0.84709300  0.65708200  1
  H  147  1  0.07631800  0.95020500  0.68646200  1
  H  173  1  0.90866100  0.72637100  0.14597400  1
  H  174  1  0.88861200  0.70492700  0.16005100  1
  H  175  1  0.96947300  0.69055700  0.15410200  1
  H  176  1  0.94880600  0.66838400  0.16830700  1
  H  177  1  0.93242400  0.65826500  0.19373400  1
  H  178  1  0.93714700  0.67633700  0.21218800  1
  H  179  1  0.89581900  0.73148600  0.20089600  1
  H  180  1  0.89063000  0.71303600  0.18248400  1
  H  181  1  0.86480300  0.67671400  0.19024400  1
  H  182  1  0.82502500  0.67701000  0.18634900  1
  H  183  1  0.83798600  0.65779800  0.15122100  1
  H  184  1  0.87812500  0.65859100  0.15501200  1
  H  185  1  0.92098900  0.63677000  0.15886500  1
  H  186  1  0.89020500  0.63912300  0.19229600  1
  H  187  1  0.89190500  0.59888300  0.19358200  1
  H  188  1  0.92287500  0.59596500  0.16016100  1
  H  191  1  0.92058000  0.70338300  0.22662100  1
  H  192  1  0.94225200  0.73476900  0.13491300  1
  H  194  1  0.79881100  0.66960100  0.15754100  1
  H  196  1  0.90576600  0.56269000  0.18653500  1
  H  222  1  0.97059500  0.68114700  0.58662500  1
  H  223  1  0.94708500  0.66050500  0.57352900  1
  H  224  1  0.91936600  0.73178900  0.58988900  1
  H  225  1  0.89567300  0.71094300  0.57646800  1
  H  226  1  0.90284500  0.70659200  0.54992500  1
  H  227  1  0.92073200  0.71351700  0.53144200  1
  H  228  1  0.95761200  0.65159800  0.53467500  1
  H  229  1  0.93984400  0.64477900  0.55302400  1
  H  230  1  0.89466000  0.63201400  0.55001300  1
  H  231  1  0.89407300  0.59213500  0.55360700  1
  H  232  1  0.90780500  0.60434000  0.58948700  1
  H  233  1  0.90832000  0.64432300  0.58585400  1
  H  234  1  0.87073200  0.67417300  0.58198300  1
  H  235  1  0.87485000  0.67023100  0.54515000  1
  H  236  1  0.83474200  0.67211200  0.54378200  1
  H  237  1  0.82981900  0.67567800  0.58065200  1
  H  240  1  0.94004800  0.69535600  0.51390600  1
  H  241  1  0.97949300  0.71628000  0.59653700  1
  H  243  1  0.90235300  0.56508400  0.58257900  1
  H  245  1  0.79761000  0.67199700  0.55243200  1
  H  271  1  0.01180600  0.83165500  0.08670000  1
  H  272  1  0.03532600  0.85231100  0.07360800  1
  H  273  1  0.06304800  0.78102900  0.08997100  1
  H  274  1  0.08675500  0.80189500  0.07656200  1
  H  275  1  0.07958400  0.80618200  0.05004500  1
  H  276  1  0.06173400  0.79918800  0.03155500  1
  H  277  1  0.02479100  0.86108800  0.03473700  1
  H  278  1  0.04254100  0.86797500  0.05308700  1
  H  279  1  0.08771400  0.88078500  0.05007100  1
  H  280  1  0.08828900  0.92066900  0.05365000  1
  H  281  1  0.07457100  0.90852800  0.08953100  1
  H  282  1  0.07407900  0.86853700  0.08591700  1
  H  283  1  0.11167700  0.83871400  0.08205800  1
  H  284  1  0.10755500  0.84256900  0.04521800  1
  H  285  1  0.14766600  0.84070100  0.04384600  1
  H  286  1  0.15259400  0.83723300  0.08072100  1
  H  289  1  0.04239700  0.81721500  0.01401400  1
  H  290  1  0.00288500  0.79644100  0.09654700  1
  H  292  1  0.07995900  0.94777600  0.08260300  1
  H  294  1  0.18478500  0.84096200  0.05249800  1
  H  320  1  0.06714200  0.73520300  0.83657100  1
  H  321  1  0.08780200  0.71167500  0.82349500  1
  H  322  1  0.01597500  0.68444600  0.83958100  1
  H  323  1  0.03684900  0.66072500  0.82618300  1
  H  324  1  0.04148600  0.66756900  0.79968800  1
  H  325  1  0.03456700  0.68556800  0.78124000  1
  H  326  1  0.09639800  0.72265600  0.78466700  1
  H  327  1  0.10322200  0.70475200  0.80297600  1
  H  328  1  0.11617600  0.65977900  0.79982400  1
  H  329  1  0.15613300  0.65920900  0.80344900  1
  H  330  1  0.14374700  0.67214100  0.83938900  1
  H  331  1  0.10370000  0.67268700  0.83572000  1
  H  332  1  0.07352200  0.63563900  0.83181200  1
  H  333  1  0.07802100  0.63969800  0.79499300  1
  H  334  1  0.07606900  0.59965000  0.79363400  1
  H  335  1  0.07193100  0.59480700  0.83049000  1
  H  338  1  0.05270100  0.70516800  0.76379100  1
  H  339  1  0.03163200  0.74435200  0.84620700  1
  H  341  1  0.18310200  0.66726700  0.83249200  1
  H  343  1  0.07626700  0.56260000  0.80231900  1
  H  369  1  0.91530000  0.77786900  0.33658300  1
  H  370  1  0.89465200  0.80138800  0.32350100  1
  H  371  1  0.96647200  0.82862400  0.33959300  1
  H  372  1  0.94560800  0.85233600  0.32618700  1
  H  373  1  0.94098600  0.84555600  0.29969400  1
  H  374  1  0.94795600  0.82755700  0.28125400  1
  H  375  1  0.88619400  0.79034600  0.28467400  1
  H  376  1  0.87930900  0.80826500  0.30297400  1
  H  377  1  0.86629100  0.85320000  0.29981200  1
  H  378  1  0.82633000  0.85373500  0.30343100  1
  H  379  1  0.83871100  0.84091600  0.33938400  1
  H  380  1  0.87876100  0.84040100  0.33572000  1
  H  381  1  0.90896200  0.87740600  0.33181900  1
  H  382  1  0.90440500  0.87336800  0.29500100  1
  H  383  1  0.90636900  0.91341600  0.29364600  1
  H  384  1  0.91056700  0.91823600  0.33050300  1
  H  387  1  0.92986500  0.80792200  0.26380200  1
  H  388  1  0.95069100  0.76875100  0.34630100  1
  H  390  1  0.79935700  0.84571700  0.33247700  1
  H  392  1  0.90629000  0.95046500  0.30233300  1
  H  418  1  0.01711300  0.17408000  0.09056900  1
  H  419  1  0.03908800  0.15399500  0.07661500  1
  H  420  1  0.05992000  0.23181200  0.08653300  1
  H  421  1  0.08228200  0.21126300  0.07237700  1
  H  422  1  0.08508500  0.19970500  0.04684400  1
  H  423  1  0.06703600  0.20501600  0.02832800  1
  H  424  1  0.01885400  0.15351100  0.03666300  1
  H  425  1  0.03720000  0.14794200  0.05505600  1
  H  426  1  0.07833900  0.12806200  0.04887600  1
  H  427  1  0.07958000  0.08835600  0.05295500  1
  H  428  1  0.08478100  0.10289400  0.08920600  1
  H  429  1  0.08346200  0.14269200  0.08505600  1
  H  430  1  0.11089100  0.17928700  0.08095900  1
  H  431  1  0.10791600  0.15913900  0.04550800  1
  H  432  1  0.14816800  0.16099400  0.04421600  1
  H  433  1  0.15178900  0.18109300  0.07971000  1
  H  436  1  0.04360800  0.18575700  0.01262500  1
  H  437  1  0.01177600  0.20599800  0.10348400  1
  H  439  1  0.08275100  0.06336600  0.08274300  1
  H  441  1  0.18488900  0.16942900  0.05234800  1
  H  467  1  0.96541300  0.33878500  0.59055000  1
  H  468  1  0.94342000  0.35885600  0.57660000  1
  H  469  1  0.92256500  0.28106700  0.58656200  1
  H  470  1  0.90020700  0.30159400  0.57239300  1
  H  471  1  0.89742100  0.31316200  0.54683200  1
  H  472  1  0.91546700  0.30789100  0.52831000  1
  H  473  1  0.96363900  0.35939300  0.53667000  1
  H  474  1  0.94529000  0.36492800  0.55506600  1
  H  475  1  0.90412400  0.38478800  0.54887300  1
  H  476  1  0.90284700  0.42449000  0.55296300  1
  H  477  1  0.89765900  0.40994200  0.58921100  1
  H  478  1  0.89901600  0.37014700  0.58505400  1
  H  479  1  0.87159600  0.33360500  0.58095600  1
  H  480  1  0.87457000  0.35370400  0.54550800  1
  H  481  1  0.83432000  0.35188400  0.54421700  1
  H  482  1  0.83070000  0.33182900  0.57972400  1
  H  485  1  0.93886800  0.32725200  0.51260500  1
  H  486  1  0.97067700  0.30691300  0.60351700  1
  H  488  1  0.89953500  0.44947500  0.58274500  1
  H  490  1  0.79759300  0.34352300  0.55235900  1
  H  516  1  0.91386900  0.23524700  0.33798900  1
  H  517  1  0.89406300  0.21261900  0.32412000  1
  H  518  1  0.96714700  0.18639700  0.33912600  1
  H  519  1  0.94710900  0.16359200  0.32503200  1
  H  520  1  0.94056700  0.16829800  0.29886800  1
  H  521  1  0.94652700  0.18613800  0.28029000  1
  H  522  1  0.88614800  0.22504500  0.28500100  1
  H  523  1  0.88012700  0.20707800  0.30340600  1
  H  524  1  0.86681500  0.16174100  0.29955800  1
  H  525  1  0.82686300  0.16069700  0.30322400  1
  H  526  1  0.83934500  0.17193300  0.33931000  1
  H  527  1  0.87937500  0.17294400  0.33559200  1
  H  528  1  0.91090400  0.13829000  0.33197600  1
  H  529  1  0.90453800  0.14029300  0.29517200  1
  H  530  1  0.90956000  0.10018700  0.29427300  1
  H  531  1  0.91551100  0.09759900  0.33112100  1
  H  534  1  0.92541100  0.20495800  0.26305300  1
  H  535  1  0.94308600  0.23846200  0.35302400  1
  H  537  1  0.80000100  0.16755300  0.33239700  1
  H  539  1  0.92705500  0.06564800  0.30488600  1
  H  565  1  0.06864900  0.27780400  0.83796100  1
  H  566  1  0.08846100  0.30042600  0.82409200  1
  H  567  1  0.01537600  0.32666300  0.83909100  1
  H  568  1  0.03541900  0.34945800  0.82499500  1
  H  569  1  0.04197400  0.34475500  0.79882500  1
  H  570  1  0.03601700  0.32689300  0.78025300  1
  H  571  1  0.09638100  0.28797500  0.78498100  1
  H  572  1  0.10240200  0.30596000  0.80338000  1
  H  573  1  0.11572700  0.35127300  0.79952700  1
  H  574  1  0.15568100  0.35228900  0.80319800  1
  H  575  1  0.14317000  0.34110100  0.83928500  1
  H  576  1  0.10314300  0.34010300  0.83556200  1
  H  577  1  0.07160600  0.37476700  0.83194800  1
  H  578  1  0.07799800  0.37273100  0.79514300  1
  H  579  1  0.07296200  0.41283600  0.79423600  1
  H  580  1  0.06698800  0.41545800  0.83108100  1
  H  583  1  0.05715600  0.30805400  0.76302100  1
  H  584  1  0.03943700  0.27462200  0.85300600  1
  H  586  1  0.18251500  0.34555300  0.83238100  1
  H  588  1  0.05549700  0.44739100  0.80482700  1
  H  614  1  0.01157400  0.33272000  0.40321800  1
  H  615  1  0.03525200  0.35337100  0.41622300  1
  H  616  1  0.06403200  0.28380200  0.39846700  1
  H  617  1  0.08787600  0.30459800  0.41181900  1
  H  618  1  0.07887700  0.30798700  0.43868100  1
  H  619  1  0.06085000  0.30109000  0.45714200  1
  H  620  1  0.02699100  0.36484500  0.45475100  1
  H  621  1  0.04480600  0.37159700  0.43641800  1
  H  622  1  0.09069900  0.38309200  0.43828700  1
  H  623  1  0.09145400  0.42298300  0.43441200  1
  H  624  1  0.07261600  0.41008400  0.39920400  1
  H  625  1  0.07237000  0.37025000  0.40304200  1
  H  626  1  0.11230300  0.34181400  0.40687600  1
  H  627  1  0.10831400  0.34300100  0.44376800  1
  H  628  1  0.14838800  0.34075300  0.44506200  1
  H  629  1  0.15321100  0.34006500  0.40814700  1
  H  632  1  0.04275800  0.31991300  0.47502500  1
  H  633  1  0.00326300  0.29865100  0.39244800  1
  H  635  1  0.08021000  0.44916400  0.40555300  1
  H  637  1  0.18549000  0.34224600  0.43635700  1
  H  663  1  0.97113300  0.18066700  0.90339200  1
  H  664  1  0.94745900  0.15998000  0.91638000  1
  H  665  1  0.91833600  0.22909000  0.89830300  1
  H  666  1  0.89449100  0.20826400  0.91164000  1
  H  667  1  0.90393200  0.20513100  0.93859700  1
  H  668  1  0.92197100  0.21202000  0.95705900  1
  H  669  1  0.95522600  0.14793200  0.95483900  1
  H  670  1  0.93746000  0.14121500  0.93649800  1
  H  671  1  0.89141900  0.12996700  0.93814800  1
  H  672  1  0.89115200  0.09006300  0.93433600  1
  H  673  1  0.91111600  0.10290900  0.89928100  1
  H  674  1  0.91086100  0.14275600  0.90305300  1
  H  675  1  0.87025100  0.17087300  0.90685000  1
  H  676  1  0.87421300  0.17044700  0.94375100  1
  H  677  1  0.83414000  0.17272300  0.94502300  1
  H  678  1  0.82934000  0.17262500  0.90810700  1
  H  681  1  0.93986700  0.19314200  0.97500400  1
  H  682  1  0.97928900  0.21460100  0.89250000  1
  H  684  1  0.90559200  0.06370600  0.90578200  1
  H  686  1  0.79705500  0.17084500  0.93631600  1
  H  712  1  0.91682900  0.27527300  0.15315000  1
  H  713  1  0.89647100  0.29923100  0.16615900  1
  H  714  1  0.96592100  0.32736200  0.14788400  1
  H  715  1  0.94549000  0.35143600  0.16123100  1
  H  716  1  0.94260100  0.34210400  0.18807600  1
  H  717  1  0.94950600  0.32415900  0.20655600  1
  H  718  1  0.88458600  0.29227000  0.20476700  1
  H  719  1  0.87785900  0.30992100  0.18640600  1
  H  720  1  0.86775400  0.35639600  0.18794800  1
  H  721  1  0.82769500  0.35730100  0.18445100  1
  H  722  1  0.83899800  0.33600800  0.14947800  1
  H  723  1  0.87906800  0.33544000  0.15294800  1
  H  724  1  0.90780900  0.37566200  0.15625700  1
  H  725  1  0.90939200  0.37291300  0.19319800  1
  H  726  1  0.91487700  0.41286100  0.19402700  1
  H  727  1  0.91271000  0.41633800  0.15709100  1
  H  730  1  0.93033100  0.30704300  0.22469200  1
  H  731  1  0.95059800  0.26675000  0.14208900  1
  H  733  1  0.80001300  0.34482700  0.15610500  1
  H  735  1  0.92869100  0.44794400  0.18315200  1
  H  761  1  0.06566500  0.23764000  0.65316500  1
  H  762  1  0.08601500  0.21368300  0.66617700  1
  H  763  1  0.01660100  0.18553200  0.64787300  1
  H  764  1  0.03702100  0.16145900  0.66122500  1
  H  765  1  0.03991200  0.17078500  0.68809400  1
  H  766  1  0.03301100  0.18874900  0.70656800  1
  H  767  1  0.09792400  0.22064800  0.70476900  1
  H  768  1  0.10465400  0.20297200  0.68641500  1
  H  769  1  0.11473600  0.15647400  0.68794500  1
  H  770  1  0.15479500  0.15556400  0.68445000  1
  H  771  1  0.14350400  0.17695500  0.64949100  1
  H  772  1  0.10343300  0.17750900  0.65295700  1
  H  773  1  0.07471200  0.13725500  0.65625700  1
  H  774  1  0.07306600  0.13998100  0.69319900  1
  H  775  1  0.06758300  0.10003100  0.69401700  1
  H  776  1  0.06981300  0.09658100  0.65708100  1
  H  779  1  0.05219400  0.20588000  0.72470000  1
  H  780  1  0.03198500  0.24613300  0.64204400  1
  H  782  1  0.18248800  0.16810800  0.65611400  1
  H  784  1  0.05377700  0.06495500  0.68312300  1
  H  810  1  0.47091900  0.33494700  0.40078100  1
  H  811  1  0.44828400  0.35484700  0.41462900  1
  H  812  1  0.42144200  0.28228900  0.39939100  1
  H  813  1  0.39865700  0.30239200  0.41346800  1
  H  814  1  0.40386200  0.30867000  0.43966200  1
  H  815  1  0.42159300  0.30273600  0.45828000  1
  H  816  1  0.46015900  0.36331800  0.45378000  1
  H  817  1  0.44231300  0.36930700  0.43533300  1
  H  818  1  0.39671600  0.38233700  0.43900500  1
  H  819  1  0.39566300  0.42222300  0.43536200  1
  H  820  1  0.40793600  0.40989700  0.39935400  1
  H  821  1  0.40894000  0.36993900  0.40304300  1
  H  822  1  0.37360400  0.33879000  0.40663000  1
  H  823  1  0.37565700  0.34435500  0.44347500  1
  H  824  1  0.33548300  0.33927700  0.44435800  1
  H  825  1  0.33283100  0.33414700  0.40747800  1
  H  828  1  0.43998500  0.32410200  0.47562500  1
  H  829  1  0.47391500  0.30587600  0.38564400  1
  H  831  1  0.40308200  0.44912500  0.40625300  1
  H  833  1  0.30085800  0.32210100  0.43367000  1
  H  859  1  0.51189400  0.17760000  0.90053100  1
  H  860  1  0.53451400  0.15768200  0.91437100  1
  H  861  1  0.56073700  0.23088700  0.89968300  1
  H  862  1  0.58353200  0.21073000  0.91373700  1
  H  863  1  0.57908700  0.20399400  0.93979800  1
  H  864  1  0.56134700  0.20988200  0.95841300  1
  H  865  1  0.52195600  0.14991600  0.95361200  1
  H  866  1  0.53983700  0.14395700  0.93516700  1
  H  867  1  0.58522600  0.13048200  0.93910100  1
  H  868  1  0.58629700  0.09060200  0.93545900  1
  H  869  1  0.57533000  0.10299500  0.89934600  1
  H  870  1  0.57428600  0.14295700  0.90304100  1
  H  871  1  0.60886200  0.17459500  0.90662800  1
  H  872  1  0.60694700  0.16791500  0.94342000  1
  H  873  1  0.64713300  0.17296800  0.94430600  1
  H  874  1  0.64963100  0.17923900  0.90747000  1
  H  877  1  0.54255400  0.18867600  0.97562900  1
  H  878  1  0.50856500  0.20705900  0.88566700  1
  H  880  1  0.57952600  0.06373300  0.90628800  1
  H  882  1  0.68164700  0.19072700  0.93366500  1
  H  908  1  0.57361700  0.28185500  0.14828800  1
  H  909  1  0.59362000  0.30397100  0.16221000  1
  H  910  1  0.51570300  0.32456200  0.15208400  1
  H  911  1  0.53616700  0.34705800  0.16622000  1
  H  912  1  0.54747700  0.34969800  0.19177500  1
  H  913  1  0.54215600  0.33172600  0.21030300  1
  H  914  1  0.59427300  0.28406800  0.20214500  1
  H  915  1  0.59984500  0.30233400  0.18374200  1
  H  916  1  0.61941900  0.34357600  0.18987800  1
  H  917  1  0.65921800  0.34497000  0.18583200  1
  H  918  1  0.64477500  0.34970300  0.14955600  1
  H  919  1  0.60488800  0.34823900  0.15366900  1
  H  920  1  0.56826700  0.37572600  0.15775100  1
  H  921  1  0.58803400  0.37271700  0.19325300  1
  H  922  1  0.58606000  0.41286800  0.19457400  1
  H  923  1  0.56634100  0.41654400  0.15901600  1
  H  926  1  0.56155400  0.30860300  0.22608900  1
  H  927  1  0.54177300  0.27643300  0.13528000  1
  H  929  1  0.68435200  0.34803300  0.15606500  1
  H  931  1  0.57753800  0.44950400  0.18646800  1
  H  957  1  0.40875100  0.23083700  0.64817600  1
  H  958  1  0.38875200  0.20873700  0.66210400  1
  H  959  1  0.46685100  0.18845200  0.65218000  1
  H  960  1  0.44639000  0.16597600  0.66632800  1
  H  961  1  0.43483100  0.16290800  0.69188000  1
  H  962  1  0.44012600  0.18087800  0.71040600  1
  H  963  1  0.38853000  0.22898700  0.70208100  1
  H  964  1  0.38297100  0.21071800  0.68367700  1
  H  965  1  0.36305000  0.16971900  0.68990900  1
  H  966  1  0.32325300  0.16834600  0.68585900  1
  H  967  1  0.33771900  0.16282900  0.64961400  1
  H  968  1  0.37760700  0.16429400  0.65372800  1
  H  969  1  0.41455200  0.13714000  0.65779700  1
  H  970  1  0.39411500  0.14014700  0.69320300  1
  H  971  1  0.39606600  0.09999300  0.69453300  1
  H  972  1  0.41646500  0.09632000  0.65907400  1
  H  975  1  0.42086100  0.20422000  0.72612300  1
  H  976  1  0.44068100  0.23634900  0.63523700  1
  H  978  1  0.29814100  0.16490200  0.65610000  1
  H  980  1  0.40495300  0.06337300  0.68648800  1
  H  1006  1  0.47276800  0.18073600  0.08582100  1
  H  1007  1  0.44884400  0.16025600  0.07283500  1
  H  1008  1  0.42037800  0.22953900  0.09102600  1
  H  1009  1  0.39634600  0.20899100  0.07770500  1
  H  1010  1  0.40564700  0.20607400  0.05088900  1
  H  1011  1  0.42348300  0.21298500  0.03238100  1
  H  1012  1  0.45572100  0.14833400  0.03415700  1
  H  1013  1  0.43817200  0.14159600  0.05255100  1
  H  1014  1  0.39160800  0.13133500  0.05103800  1
  H  1015  1  0.39077100  0.09135200  0.05454700  1
  H  1016  1  0.41216800  0.10270500  0.08949600  1
  H  1017  1  0.41267500  0.14269200  0.08601400  1
  H  1018  1  0.37222800  0.17128600  0.08273500  1
  H  1019  1  0.37494000  0.17278300  0.04578900  1
  H  1020  1  0.33490200  0.17816800  0.04497200  1
  H  1021  1  0.33145900  0.17608100  0.08190800  1
  H  1024  1  0.44060400  0.19395400  0.01424300  1
  H  1025  1  0.48113200  0.21436600  0.09695200  1
  H  1027  1  0.40349800  0.06378800  0.08290200  1
  H  1029  1  0.29976300  0.19205900  0.05590100  1
  H  1055  1  0.50974500  0.33213600  0.58585100  1
  H  1056  1  0.53366000  0.35263400  0.57287000  1
  H  1057  1  0.56212000  0.28329600  0.59101000  1
  H  1058  1  0.58614800  0.30386800  0.57769200  1
  H  1059  1  0.57693900  0.30681800  0.55089600  1
  H  1060  1  0.55913800  0.29988000  0.53237800  1
  H  1061  1  0.52665900  0.36441300  0.53419800  1
  H  1062  1  0.54421300  0.37118500  0.55258900  1
  H  1063  1  0.59075800  0.38156400  0.55102900  1
  H  1064  1  0.59156600  0.42154700  0.55453400  1
  H  1065  1  0.57036500  0.41016500  0.58951700  1
  H  1066  1  0.56988200  0.37017900  0.58603700  1
  H  1067  1  0.61023100  0.34157200  0.58274900  1
  H  1068  1  0.60757800  0.34018000  0.54580300  1
  H  1069  1  0.64762500  0.33480300  0.54499400  1
  H  1070  1  0.65100400  0.33678700  0.58193500  1
  H  1073  1  0.54192600  0.31882300  0.51425700  1
  H  1074  1  0.50136200  0.29842300  0.59692200  1
  H  1076  1  0.57893700  0.44909200  0.58290900  1
  H  1078  1  0.68272000  0.32078300  0.55596300  1
  H  1104  1  0.56796600  0.23661900  0.33552300  1
  H  1105  1  0.58856100  0.21282900  0.32255400  1
  H  1106  1  0.51881600  0.18444600  0.34041300  1
  H  1107  1  0.53956500  0.16047700  0.32710100  1
  H  1108  1  0.54281200  0.16957200  0.30027700  1
  H  1109  1  0.53585900  0.18754200  0.28181300  1
  H  1110  1  0.60009700  0.22070800  0.28396400  1
  H  1111  1  0.60688800  0.20298800  0.30231200  1
  H  1112  1  0.61816000  0.15722900  0.30057800  1
  H  1113  1  0.65813100  0.15628500  0.30446500  1
  H  1114  1  0.64526500  0.17533800  0.33964000  1
  H  1115  1  0.60536500  0.17578400  0.33579300  1
  H  1116  1  0.57678800  0.13588900  0.33194500  1
  H  1117  1  0.57771500  0.13997200  0.29505200  1
  H  1118  1  0.57523700  0.09999500  0.29373100  1
  H  1119  1  0.57482200  0.09506900  0.33064200  1
  H  1122  1  0.55482300  0.20524300  0.26383200  1
  H  1123  1  0.53385700  0.24512600  0.34626500  1
  H  1125  1  0.68437100  0.16775800  0.33333333  1
  H  1127  1  0.57636800  0.06294500  0.30237700  1
  H  1153  1  0.41452200  0.27626700  0.83555900  1
  H  1154  1  0.39394000  0.30004800  0.82258200  1
  H  1155  1  0.46370500  0.32841900  0.84042400  1
  H  1156  1  0.44297000  0.35237700  0.82710100  1
  H  1157  1  0.43970500  0.34338200  0.80027200  1
  H  1158  1  0.44667400  0.32543200  0.78180800  1
  H  1159  1  0.38254200  0.29206300  0.78399200  1
  H  1160  1  0.37571900  0.30979300  0.80233600  1
  H  1161  1  0.36436400  0.35552100  0.80056500  1
  H  1162  1  0.32439200  0.35647700  0.80445300  1
  H  1163  1  0.33726800  0.33762300  0.83965600  1
  H  1164  1  0.37716900  0.33716300  0.83580600  1
  H  1165  1  0.40579300  0.37696300  0.83195600  1
  H  1166  1  0.40472200  0.37289400  0.79506200  1
  H  1167  1  0.40717600  0.41287200  0.79374300  1
  H  1168  1  0.40773800  0.41778500  0.83065600  1
  H  1171  1  0.42774300  0.30768200  0.76383600  1
  H  1172  1  0.44857300  0.26777000  0.84633800  1
  H  1174  1  0.29816200  0.34525800  0.83333500  1
  H  1176  1  0.40608600  0.44991900  0.80239200  1
  H  1202  1  0.51094900  0.67938800  0.58670500  1
  H  1203  1  0.53374600  0.65952500  0.57289000  1
  H  1204  1  0.56270100  0.72941200  0.59025300  1
  H  1205  1  0.58559100  0.70946700  0.57619400  1
  H  1206  1  0.57718900  0.70494400  0.54964600  1
  H  1207  1  0.55922200  0.71115900  0.53109900  1
  H  1208  1  0.52504400  0.64768100  0.53415300  1
  H  1209  1  0.54297500  0.64151300  0.55254400  1
  H  1210  1  0.58943900  0.63036700  0.55043300  1
  H  1211  1  0.59068800  0.59046500  0.55438100  1
  H  1212  1  0.57175600  0.60339300  0.58957000  1
  H  1213  1  0.57099500  0.64318500  0.58565800  1
  H  1214  1  0.60969800  0.67206700  0.58207000  1
  H  1215  1  0.60736500  0.67120200  0.54511500  1
  H  1216  1  0.64742700  0.67692000  0.54432700  1
  H  1217  1  0.65040900  0.67719700  0.58129200  1
  H  1220  1  0.54239200  0.68977500  0.51321900  1
  H  1221  1  0.50892100  0.70690300  0.60280400  1
  H  1223  1  0.57990400  0.56444000  0.58333800  1
  H  1225  1  0.68216700  0.69247100  0.55536300  1
  H  1251  1  0.47146900  0.83353400  0.08666500  1
  H  1252  1  0.44866200  0.85339400  0.07285200  1
  H  1253  1  0.41974000  0.78347500  0.09019900  1
  H  1254  1  0.39685300  0.80341200  0.07613200  1
  H  1255  1  0.40517400  0.80797900  0.04957900  1
  H  1256  1  0.42315000  0.80177800  0.03102700  1
  H  1257  1  0.45743600  0.86518900  0.03413100  1
  H  1258  1  0.43948800  0.87134700  0.05251600  1
  H  1259  1  0.39301800  0.88253300  0.05037900  1
  H  1260  1  0.39175300  0.92243300  0.05433600  1
  H  1261  1  0.41057100  0.90948700  0.08953100  1
  H  1262  1  0.41135500  0.86969600  0.08561900  1
  H  1263  1  0.37273000  0.84079000  0.08202200  1
  H  1264  1  0.37502900  0.84177500  0.04507700  1
  H  1265  1  0.33496400  0.83607900  0.04429500  1
  H  1266  1  0.33202200  0.83567300  0.08125800  1
  H  1269  1  0.44000500  0.82324800  0.01315200  1
  H  1270  1  0.47349700  0.80601200  0.10276400  1
  H  1272  1  0.40244200  0.94844200  0.08329700  1
  H  1274  1  0.30022200  0.82053300  0.05530300  1
  H  1300  1  0.41373800  0.73611400  0.83654600  1
  H  1301  1  0.39390100  0.71330400  0.82274200  1
  H  1302  1  0.46406500  0.68465200  0.84005800  1
  H  1303  1  0.44413100  0.66173900  0.82600400  1
  H  1304  1  0.43950000  0.66993000  0.79941000  1
  H  1305  1  0.44572000  0.68799900  0.78089700  1
  H  1306  1  0.38224500  0.72229900  0.78408900  1
  H  1307  1  0.37606500  0.70425400  0.80244000  1
  H  1308  1  0.36485100  0.65788100  0.80022600  1
  H  1309  1  0.32488200  0.65655200  0.80417900  1
  H  1310  1  0.33783600  0.67510600  0.83941700  1
  H  1311  1  0.37770700  0.67595100  0.83549700  1
  H  1312  1  0.40671300  0.63757000  0.83190000  1
  H  1313  1  0.40561500  0.63985000  0.79495400  1
  H  1314  1  0.41113600  0.59983500  0.79417000  1
  H  1315  1  0.41165200  0.59691800  0.83113300  1
  H  1318  1  0.42434700  0.70510400  0.76307700  1
  H  1319  1  0.44134700  0.73831300  0.85258900  1
  H  1321  1  0.29879000  0.66698000  0.83315800  1
  H  1323  1  0.42659400  0.56508900  0.80518600  1
  H  1349  1  0.56875600  0.77675400  0.33654300  1
  H  1350  1  0.58858300  0.79956200  0.32273500  1
  H  1351  1  0.51841000  0.82819900  0.34005100  1
  H  1352  1  0.53833400  0.85111300  0.32599200  1
  H  1353  1  0.54297000  0.84295300  0.29939400  1
  H  1354  1  0.53674800  0.82488200  0.28088200  1
  H  1355  1  0.60020400  0.79055200  0.28408200  1
  H  1356  1  0.60639100  0.80860000  0.30243000  1
  H  1357  1  0.61761500  0.85495900  0.30020800  1
  H  1358  1  0.65758500  0.85628700  0.30415900  1
  H  1359  1  0.64463400  0.83776900  0.33940300  1
  H  1360  1  0.60476300  0.83692600  0.33548400  1
  H  1361  1  0.57573000  0.87530000  0.33189600  1
  H  1362  1  0.57686200  0.87299800  0.29494700  1
  H  1363  1  0.57133700  0.91301100  0.29415800  1
  H  1364  1  0.57079000  0.91595200  0.33112100  1
  H  1367  1  0.55816800  0.80778100  0.26306000  1
  H  1368  1  0.54115400  0.77455600  0.35258900  1
  H  1370  1  0.68367800  0.84587900  0.33314100  1
  H  1372  1  0.55588400  0.94776800  0.30516400  1
  H  1398  1  0.50983900  0.83196500  0.90343900  1
  H  1399  1  0.53388000  0.85240200  0.91638500  1
  H  1400  1  0.56236200  0.78345100  0.89787200  1
  H  1401  1  0.58650200  0.80392800  0.91116200  1
  H  1402  1  0.57683100  0.80681700  0.93804200  1
  H  1403  1  0.55888000  0.80000700  0.95653600  1
  H  1404  1  0.52769600  0.86518700  0.95491800  1
  H  1405  1  0.54535000  0.87182700  0.93654200  1
  H  1406  1  0.59197700  0.88182900  0.93759400  1
  H  1407  1  0.59298200  0.92180800  0.93380700  1
  H  1408  1  0.57019700  0.90961500  0.89915200  1
  H  1409  1  0.56972000  0.86976900  0.90287300  1
  H  1410  1  0.61056700  0.84159100  0.90617700  1
  H  1411  1  0.60807700  0.83961500  0.94312100  1
  H  1412  1  0.64804900  0.83365000  0.94384800  1
  H  1413  1  0.65127200  0.83626500  0.90691300  1
  H  1416  1  0.54220500  0.81954800  0.97478300  1
  H  1417  1  0.50151800  0.79861300  0.89210000  1
  H  1419  1  0.57949800  0.94840200  0.90531500  1
  H  1421  1  0.68288900  0.81922500  0.93269900  1
  H  1447  1  0.47273300  0.68094700  0.40349100  1
  H  1448  1  0.44869100  0.66050500  0.41643500  1
  H  1449  1  0.42013900  0.72934700  0.39784200  1
  H  1450  1  0.39599800  0.70886900  0.41112900  1
  H  1451  1  0.40585000  0.70604600  0.43802300  1
  H  1452  1  0.42382500  0.71283600  0.45651300  1
  H  1453  1  0.45465100  0.64748400  0.45497600  1
  H  1454  1  0.43702900  0.64088200  0.43659000  1
  H  1455  1  0.39039300  0.63101400  0.43755000  1
  H  1456  1  0.38938500  0.59103600  0.43374900  1
  H  1457  1  0.41248800  0.60324200  0.39915200  1
  H  1458  1  0.41296800  0.64308200  0.40288200  1
  H  1459  1  0.37198000  0.67115600  0.40618500  1
  H  1460  1  0.37446000  0.67342500  0.44312700  1
  H  1461  1  0.33448900  0.67941900  0.44383700  1
  H  1462  1  0.33128000  0.67650700  0.40690700  1
  H  1465  1  0.44038700  0.69324500  0.47478700  1
  H  1466  1  0.48101700  0.71424100  0.39210600  1
  H  1468  1  0.40291800  0.56446600  0.40527500  1
  H  1470  1  0.29965000  0.69373800  0.43265600  1
  H  1496  1  0.41553200  0.77562600  0.65371300  1
  H  1497  1  0.39512000  0.79966700  0.66666667  1
  H  1498  1  0.46416400  0.82799300  0.64806600  1
  H  1499  1  0.44370100  0.85214400  0.66135700  1
  H  1500  1  0.44082900  0.84240100  0.68832800  1
  H  1501  1  0.44760400  0.82429100  0.70678400  1
  H  1502  1  0.38221700  0.79336200  0.70508800  1
  H  1503  1  0.37563300  0.81112300  0.68674800  1
  H  1504  1  0.36578100  0.85771400  0.68785800  1
  H  1505  1  0.32572400  0.85874000  0.68410300  1
  H  1506  1  0.33780100  0.83591800  0.64944600  1
  H  1507  1  0.37774600  0.83542700  0.65313300  1
  H  1508  1  0.40590900  0.87619700  0.65643400  1
  H  1509  1  0.40814600  0.87371000  0.69337400  1
  H  1510  1  0.41383100  0.91364900  0.69409300  1
  H  1511  1  0.41095100  0.91685600  0.65716500  1
  H  1514  1  0.42799900  0.80744000  0.72498400  1
  H  1515  1  0.44907600  0.76721000  0.64247400  1
  H  1517  1  0.29894800  0.84547300  0.65565800  1
  H  1519  1  0.42776500  0.94858800  0.68296800  1
  H  1545  1  0.56657700  0.73735300  0.15381600  1
  H  1546  1  0.58699900  0.71331800  0.16675100  1
  H  1547  1  0.51825700  0.68478900  0.14795100  1
  H  1548  1  0.53872700  0.66063500  0.16123700  1
  H  1549  1  0.54147900  0.67050500  0.18830100  1
  H  1550  1  0.53470200  0.68860400  0.20675900  1
  H  1551  1  0.60015400  0.71940000  0.20511600  1
  H  1552  1  0.60674400  0.70166100  0.18677400  1
  H  1553  1  0.61655300  0.65502200  0.18776500  1
  H  1554  1  0.65661800  0.65445700  0.18407000  1
  H  1555  1  0.64452700  0.67783700  0.14950800  1
  H  1556  1  0.60457000  0.67785400  0.15313500  1
  H  1557  1  0.57657500  0.63668100  0.15640800  1
  H  1558  1  0.57404700  0.63915900  0.19334400  1
  H  1559  1  0.56838800  0.59922300  0.19405000  1
  H  1560  1  0.57156500  0.59601500  0.15712800  1
  H  1563  1  0.55431200  0.70540300  0.22498000  1
  H  1564  1  0.53319700  0.74566800  0.14246000  1
  H  1566  1  0.68356300  0.67046700  0.15589700  1
  H  1568  1  0.55457200  0.56426700  0.18289700  1
  H  1576  1  0.75956000  0.83142800  0.90245300  1
  H  1581  1  0.71119000  0.89037500  0.93582500  1
  H  1582  1  0.71276200  0.88968900  0.95148100  1
  H  1583  1  0.66844900  0.88827800  0.93689900  1
  H  1584  1  0.67911400  0.91243200  0.94469800  1
  H  1585  1  0.66991900  0.88768400  0.95250000  1
  H  1595  1  0.22304400  0.68164300  0.40241000  1
  H  1600  1  0.27201000  0.62276700  0.43557200  1
  H  1601  1  0.26992400  0.62300900  0.45121500  1
  H  1602  1  0.31467600  0.62527100  0.43701900  1
  H  1603  1  0.30402800  0.60081300  0.44457000  1
  H  1604  1  0.31271000  0.62545800  0.45260900  1
  H  1614  1  0.06507400  0.98847500  0.65263500  1
  H  1619  1  0.12522400  0.03606100  0.68545100  1
  H  1620  1  0.12498200  0.03416100  0.70110000  1
  H  1621  1  0.12431300  0.07876700  0.68681600  1
  H  1622  1  0.14851200  0.06719800  0.69426400  1
  H  1623  1  0.12433700  0.07688600  0.70240900  1
  H  1633  1  0.91746400  0.52447700  0.15272300  1
  H  1638  1  0.85678000  0.47727400  0.18570500  1
  H  1639  1  0.85751300  0.47836900  0.20137000  1
  H  1640  1  0.85764000  0.43450300  0.18649300  1
  H  1641  1  0.83369700  0.44573200  0.19428500  1
  H  1642  1  0.85809600  0.43559200  0.20210400  1
  H  1652  1  0.75846300  0.68071000  0.58619700  1
  H  1657  1  0.71120100  0.62218000  0.55273200  1
  H  1658  1  0.71345000  0.62253000  0.53709600  1
  H  1659  1  0.66849600  0.62360100  0.55116400  1
  H  1660  1  0.67986400  0.59942900  0.54364400  1
  H  1661  1  0.67063700  0.62384200  0.53557900  1
  H  1671  1  0.22400000  0.83217000  0.08623400  1
  H  1676  1  0.27048600  0.89099200  0.05252400  1
  H  1677  1  0.26871300  0.89019500  0.03687400  1
  H  1678  1  0.31325700  0.88997600  0.05128500  1
  H  1679  1  0.30185400  0.91383600  0.04352100  1
  H  1680  1  0.31157200  0.88932000  0.03569600  1
  H  1690  1  0.06568400  0.52362200  0.83597500  1
  H  1695  1  0.12625800  0.47770500  0.80305900  1
  H  1696  1  0.12606400  0.47949500  0.78740700  1
  H  1697  1  0.12617900  0.43498000  0.80177100  1
  H  1698  1  0.15019700  0.44696700  0.79434500  1
  H  1699  1  0.12627000  0.43675600  0.78617500  1
  H  1709  1  0.91661000  0.98940800  0.33602100  1
  H  1714  1  0.85628900  0.03509100  0.30291200  1
  H  1715  1  0.85672800  0.03338400  0.28725900  1
  H  1716  1  0.85615700  0.07782500  0.30168000  1
  H  1717  1  0.83231200  0.06573900  0.29415100  1
  H  1718  1  0.85629600  0.07612200  0.28608100  1
  H  1728  1  0.22307600  0.18012800  0.08625200  1
  H  1733  1  0.27048500  0.12045400  0.05310500  1
  H  1734  1  0.26932400  0.12125400  0.03744600  1
  H  1735  1  0.31333800  0.12132600  0.05226900  1
  H  1736  1  0.30204700  0.09745300  0.04447900  1
  H  1737  1  0.31217900  0.12182200  0.03666300  1
  H  1747  1  0.75940700  0.33272500  0.58625800  1
  H  1752  1  0.71116300  0.39215500  0.55340900  1
  H  1753  1  0.71291900  0.39191700  0.53775600  1
  H  1754  1  0.66837000  0.39075100  0.55215200  1
  H  1755  1  0.67962300  0.41502900  0.54467900  1
  H  1756  1  0.67010700  0.39080100  0.53655400  1
  H  1766  1  0.22446700  0.33301100  0.40257900  1
  H  1771  1  0.27026600  0.39251900  0.43576400  1
  H  1772  1  0.26826100  0.39213300  0.45140800  1
  H  1773  1  0.31305600  0.39281600  0.43720400  1
  H  1774  1  0.30071700  0.41659900  0.44464900  1
  H  1775  1  0.31106300  0.39273700  0.45279400  1
  H  1785  1  0.75805500  0.17990500  0.90253600  1
  H  1790  1  0.71327500  0.12000800  0.93616000  1
  H  1791  1  0.71434600  0.12118000  0.95181900  1
  H  1792  1  0.67041600  0.11922800  0.93695400  1
  H  1793  1  0.68260300  0.09597200  0.94488600  1
  H  1794  1  0.67149800  0.12008800  0.95256100  1
  H  1804  1  0.56737500  0.48789900  0.15259900  1
  H  1809  1  0.62579400  0.53694800  0.18571300  1
  H  1810  1  0.62565300  0.53484600  0.20135500  1
  H  1811  1  0.62325100  0.57953100  0.18718300  1
  H  1812  1  0.64783100  0.56890400  0.19467300  1
  H  1813  1  0.62320200  0.57753700  0.20277200  1
  H  1823  1  0.41498300  0.02495700  0.65261400  1
  H  1828  1  0.35642100  0.97663300  0.68597600  1
  H  1829  1  0.35701300  0.97827100  0.70163100  1
  H  1830  1  0.35853000  0.93397900  0.68710700  1
  H  1831  1  0.33426200  0.94466100  0.69484000  1
  H  1832  1  0.35899700  0.93552400  0.70270700  1
  H  1842  1  0.56825700  0.02379500  0.33615000  1
  H  1847  1  0.62622700  0.97685100  0.30260600  1
  H  1848  1  0.62589000  0.97917100  0.28697300  1
  H  1849  1  0.62499100  0.93422900  0.30097900  1
  H  1850  1  0.64918600  0.94572800  0.29349700  1
  H  1851  1  0.62479500  0.93645000  0.28539700  1
  H  1861  1  0.41423700  0.48906600  0.83616300  1
  H  1866  1  0.35622900  0.53600900  0.80259500  1
  H  1867  1  0.35660500  0.53369600  0.78696200  1
  H  1868  1  0.35746700  0.57863300  0.80097300  1
  H  1869  1  0.33333333  0.56713500  0.79347500  1
  H  1870  1  0.35770200  0.57641800  0.78539100  1
  H  1880  1  0.91244200  0.02341300  0.90423300  1
  H  1885  1  0.86730300  0.95678600  0.95935800  1
  H  1886  1  0.88837900  0.94390500  0.95014900  1
  H  1887  1  0.83628600  0.93869400  0.94739600  1
  H  1888  1  0.85545300  0.91765300  0.95301200  1
  H  1889  1  0.85730900  0.92615800  0.93805400  1
  H  1899  1  0.07779900  0.48953100  0.40313600  1
  H  1904  1  0.12790400  0.54283800  0.44154900  1
  H  1905  1  0.12185600  0.54117900  0.45689500  1
  H  1906  1  0.11985100  0.58463800  0.44176800  1
  H  1907  1  0.14158300  0.57761200  0.45210900  1
  H  1908  1  0.11314900  0.58328400  0.45699700  1
  H  1918  1  0.25855700  0.84341300  0.65331700  1
  H  1923  1  0.20517800  0.89374200  0.69184800  1
  H  1924  1  0.20700600  0.88763500  0.70718300  1
  H  1925  1  0.16332300  0.88558000  0.69216100  1
  H  1926  1  0.17039400  0.90722800  0.70251900  1
  H  1927  1  0.16484500  0.87880300  0.70737500  1
  H  1937  1  0.72387600  0.67730700  0.15446000  1
  H  1942  1  0.79042200  0.63180300  0.20953500  1
  H  1943  1  0.80323000  0.65293000  0.20034700  1
  H  1944  1  0.80877200  0.60097500  0.19758300  1
  H  1945  1  0.82972600  0.62022900  0.20321300  1
  H  1946  1  0.82122400  0.62203400  0.18825000  1
  H  1956  1  0.90441300  0.48968400  0.58558700  1
  H  1961  1  0.85171600  0.53697600  0.54514700  1
  H  1962  1  0.86183200  0.53858900  0.53036900  1
  H  1963  1  0.85230600  0.57945200  0.54659900  1
  H  1964  1  0.83502300  0.57046100  0.53459600  1
  H  1965  1  0.86305000  0.58143900  0.53200400  1
  H  1975  1  0.07785200  0.02316700  0.08557500  1
  H  1980  1  0.13099000  0.97578100  0.04461100  1
  H  1981  1  0.12003300  0.97348100  0.03001600  1
  H  1982  1  0.13036100  0.93336800  0.04660700  1
  H  1983  1  0.14702600  0.94175100  0.03426300  1
  H  1984  1  0.11884600  0.93073800  0.03219700  1
  H  1994  1  0.25845400  0.66963900  0.83576900  1
  H  1999  1  0.21089100  0.61580600  0.79525600  1
  H  2000  1  0.20953900  0.62590400  0.78047100  1
  H  2001  1  0.16834600  0.61723200  0.79665600  1
  H  2002  1  0.17705600  0.59980600  0.78466400  1
  H  2003  1  0.16662800  0.62799100  0.78205900  1
  H  2013  1  0.72401400  0.84328300  0.33575300  1
  H  2018  1  0.77155100  0.89710300  0.29523100  1
  H  2019  1  0.77290600  0.88699900  0.28044700  1
  H  2020  1  0.81409600  0.89569800  0.29663200  1
  H  2021  1  0.80537800  0.91311200  0.28463700  1
  H  2022  1  0.81581900  0.88493000  0.28203700  1
  H  2032  1  0.72474500  0.17021900  0.33582000  1
  H  2037  1  0.77273100  0.11555100  0.29447400  1
  H  2038  1  0.77461500  0.12688100  0.27994000  1
  H  2039  1  0.81515600  0.11758800  0.29646600  1
  H  2040  1  0.80737600  0.10109700  0.28396300  1
  H  2041  1  0.81740000  0.12965400  0.28216000  1
  H  2051  1  0.25777300  0.34301800  0.83584500  1
  H  2056  1  0.20993500  0.39683900  0.79483600  1
  H  2057  1  0.20863500  0.38616900  0.78015600  1
  H  2058  1  0.16745000  0.39490500  0.79633900  1
  H  2059  1  0.17579300  0.41187300  0.78410300  1
  H  2060  1  0.16574700  0.38343200  0.78188400  1
  H  2070  1  0.72455900  0.34294100  0.15323000  1
  H  2075  1  0.77066400  0.39674800  0.19508400  1
  H  2076  1  0.77387300  0.38453200  0.20936700  1
  H  2077  1  0.81307700  0.39792900  0.19274000  1
  H  2078  1  0.80448700  0.41300700  0.20556700  1
  H  2079  1  0.81663600  0.38516000  0.20681400  1
  H  2089  1  0.25794500  0.17011900  0.65327100  1
  H  2094  1  0.21206200  0.11591800  0.69543900  1
  H  2095  1  0.20805000  0.12863300  0.70955300  1
  H  2096  1  0.16976300  0.11445600  0.69254200  1
  H  2097  1  0.17779900  0.09981800  0.70559500  1
  H  2098  1  0.16545200  0.12763300  0.70646100  1
  H  2108  1  0.40521700  0.52422400  0.40279500  1
  H  2113  1  0.35090300  0.47632700  0.44388200  1
  H  2114  1  0.36179000  0.47494300  0.45852300  1
  H  2115  1  0.35295600  0.43394100  0.44228300  1
  H  2116  1  0.33608800  0.44211900  0.45459300  1
  H  2117  1  0.36464300  0.43216700  0.45669500  1
  H  2127  1  0.57706800  0.98863700  0.90285400  1
  H  2132  1  0.63203600  0.03679900  0.94416200  1
  H  2133  1  0.62070000  0.03862000  0.95870100  1
  H  2134  1  0.62969600  0.07912600  0.94215900  1
  H  2135  1  0.64630600  0.07148700  0.95465200  1
  H  2136  1  0.61762600  0.08129300  0.95647300  1
  H  2146  1  0.40520500  0.98860900  0.08597900  1
  H  2151  1  0.35054700  0.03456300  0.04402200  1
  H  2152  1  0.36290100  0.03773400  0.02976100  1
  H  2153  1  0.34978200  0.07688800  0.04643100  1
  H  2154  1  0.33467700  0.06855700  0.03356800  1
  H  2155  1  0.36271200  0.08040100  0.03239000  1
  H  2165  1  0.57719600  0.52426400  0.58601100  1
  H  2170  1  0.63188000  0.47829300  0.54407600  1
  H  2171  1  0.61956900  0.47518200  0.52980400  1
  H  2172  1  0.63257300  0.43596100  0.54645600  1
  H  2173  1  0.64773500  0.44430700  0.53360500  1
  H  2174  1  0.61968600  0.43250800  0.53239800  1
  H  2184  1  0.01498800  0.82758300  0.97733000  1
  H  2189  1  0.94120300  0.87080400  0.02647300  1
  H  2190  1  0.96146200  0.88483200  0.01715300  1
  H  2191  1  0.96820000  0.87534800  0.04341500  1
  H  2192  1  0.96086900  0.90224000  0.03710300  1
  H  2193  1  0.98804500  0.88969400  0.03408700  1
  H  2203  1  0.96744300  0.68464900  0.47725300  1
  H  2208  1  0.04128400  0.64189400  0.52613800  1
  H  2209  1  0.02003500  0.62830900  0.51722600  1
  H  2210  1  0.01528900  0.63832500  0.54355600  1
  H  2211  1  0.02155000  0.61116900  0.53723700  1
  H  2212  1  0.99450900  0.62432700  0.53462300  1
  H  2222  1  0.06324000  0.73302200  0.72722100  1
  H  2227  1  0.10616100  0.80623800  0.77627900  1
  H  2228  1  0.11979200  0.78511200  0.76732300  1
  H  2229  1  0.10986100  0.78021400  0.79365400  1
  H  2230  1  0.13703700  0.78653300  0.78731400  1
  H  2231  1  0.12387800  0.75953900  0.78467900  1
  H  2241  1  0.91955900  0.77990000  0.22724600  1
  H  2246  1  0.87683400  0.70674300  0.27664800  1
  H  2247  1  0.86272200  0.72682300  0.26726600  1
  H  2248  1  0.87215400  0.73382600  0.29352100  1
  H  2249  1  0.84524600  0.72635900  0.28721100  1
  H  2250  1  0.85773000  0.75349600  0.28413100  1
  H  2260  1  0.96731300  0.18096000  0.01163100  1
  H  2265  1  0.04090800  0.14048500  0.96250500  1
  H  2266  1  0.01896000  0.12705900  0.97102800  1
  H  2267  1  0.01564300  0.13818900  0.94476000  1
  H  2268  1  0.02096900  0.11065600  0.95087200  1
  H  2269  1  0.99413400  0.12436000  0.95330000  1
  H  2279  1  0.01516500  0.33170200  0.51163100  1
  H  2284  1  0.94138000  0.37217200  0.46225200  1
  H  2285  1  0.96225900  0.38614000  0.47123900  1
  H  2286  1  0.96773800  0.37571400  0.44498800  1
  H  2287  1  0.96113000  0.40292300  0.45115300  1
  H  2288  1  0.98820700  0.39000700  0.45398500  1
  H  2298  1  0.91720100  0.28034400  0.26141000  1
  H  2303  1  0.87766400  0.20629200  0.21266300  1
  H  2304  1  0.86462300  0.22892500  0.22084700  1
  H  2305  1  0.87614300  0.23063800  0.19458100  1
  H  2306  1  0.84837400  0.22626100  0.20067200  1
  H  2307  1  0.86268300  0.25283900  0.20278600  1
  H  2317  1  0.06531300  0.23264900  0.76140900  1
  H  2322  1  0.10483700  0.30664500  0.71263700  1
  H  2323  1  0.11788300  0.28403600  0.72083700  1
  H  2324  1  0.10639100  0.28226300  0.69456800  1
  H  2325  1  0.13415100  0.28666700  0.70066400  1
  H  2326  1  0.11985400  0.26008600  0.70278900  1
  H  2336  1  0.51551900  0.33137400  0.47744700  1
  H  2341  1  0.44093600  0.37221100  0.52609400  1
  H  2342  1  0.46267200  0.38548800  0.51736900  1
  H  2343  1  0.46646500  0.37522300  0.54371200  1
  H  2344  1  0.46092600  0.40253000  0.53738700  1
  H  2345  1  0.48778000  0.38885700  0.53496500  1
  H  2355  1  0.46696600  0.18123200  0.97744100  1
  H  2360  1  0.54141900  0.14054900  0.02588400  1
  H  2361  1  0.51873700  0.12770800  0.01762800  1
  H  2362  1  0.51699000  0.13872300  0.04395200  1
  H  2363  1  0.52137100  0.11111900  0.03772700  1
  H  2364  1  0.49475100  0.12545100  0.03566900  1
  H  2374  1  0.56693300  0.23252700  0.22718900  1
  H  2379  1  0.60694800  0.30646500  0.27622600  1
  H  2380  1  0.62050900  0.28447000  0.26780800  1
  H  2381  1  0.60921800  0.28152800  0.29407200  1
  H  2382  1  0.63682700  0.28680200  0.28797700  1
  H  2383  1  0.62315900  0.25995700  0.28563700  1
  H  2393  1  0.41576400  0.28032200  0.72719300  1
  H  2398  1  0.37605900  0.20625400  0.77655000  1
  H  2399  1  0.36194500  0.22720700  0.76768400  1
  H  2400  1  0.37274200  0.23233700  0.79391600  1
  H  2401  1  0.34539700  0.22581900  0.78782400  1
  H  2402  1  0.35829900  0.25288000  0.78503900  1
  H  2412  1  0.46728200  0.67902100  0.51142300  1
  H  2417  1  0.54160300  0.64261200  0.46251400  1
  H  2418  1  0.51816200  0.62966000  0.47014400  1
  H  2419  1  0.51832200  0.64265100  0.44404600  1
  H  2420  1  0.52168600  0.61451600  0.44979000  1
  H  2421  1  0.49527300  0.62930400  0.45168700  1
  H  2431  1  0.51517200  0.83342500  0.01142900  1
  H  2436  1  0.44064200  0.87015600  0.96230000  1
  H  2437  1  0.46298000  0.88366600  0.97051800  1
  H  2438  1  0.46531300  0.87167600  0.94432200  1
  H  2439  1  0.46047900  0.89944700  0.95025300  1
  H  2440  1  0.48725000  0.88554100  0.95255500  1
  H  2450  1  0.41372300  0.78010900  0.76153400  1
  H  2455  1  0.37715300  0.70657100  0.71236300  1
  H  2456  1  0.36412500  0.72980000  0.72010200  1
  H  2457  1  0.37709600  0.73011400  0.69399900  1
  H  2458  1  0.34892500  0.72658200  0.69973900  1
  H  2459  1  0.36367100  0.75295000  0.70174600  1
  H  2469  1  0.56859400  0.73273700  0.26153700  1
  H  2474  1  0.60532900  0.80619600  0.21235700  1
  H  2475  1  0.61832900  0.78296100  0.22010400  1
  H  2476  1  0.60536600  0.78263500  0.19399900  1
  H  2477  1  0.63353900  0.78614000  0.19974200  1
  H  2478  1  0.61876100  0.75979100  0.20175300  1
  H  2488  1  0.01340400  0.76990500  0.85904200  1
  H  2493  1  0.91168400  0.70992300  0.88173000  1
  H  2494  1  0.91676100  0.73439300  0.87267400  1
  H  2495  1  0.89319400  0.73536200  0.89675100  1
  H  2496  1  0.87909000  0.73709200  0.88293400  1
  H  2497  1  0.89788100  0.75941500  0.88744500  1
  H  2507  1  0.96892800  0.74323600  0.35913100  1
  H  2512  1  0.07110600  0.80283300  0.38136600  1
  H  2513  1  0.06586800  0.77802600  0.37258000  1
  H  2514  1  0.08955600  0.77788700  0.39663000  1
  H  2515  1  0.10360200  0.77563500  0.38281700  1
  H  2516  1  0.08477700  0.75352300  0.38755000  1
  H  2526  1  0.00500000  0.73477000  0.60928400  1
  H  2531  1  0.94454700  0.83622100  0.63151500  1
  H  2532  1  0.96946900  0.83118800  0.62274700  1
  H  2533  1  0.96931100  0.85500600  0.64675200  1
  H  2534  1  0.97148800  0.86893400  0.63291100  1
  H  2535  1  0.99380400  0.85039400  0.63770700  1
  H  2545  1  0.97734700  0.77801200  0.10931400  1
  H  2550  1  0.03770400  0.67662500  0.13183400  1
  H  2551  1  0.01308200  0.68173600  0.12286000  1
  H  2552  1  0.01239300  0.65805800  0.14689900  1
  H  2553  1  0.01051000  0.64407200  0.13306200  1
  H  2554  1  0.98818400  0.66278400  0.13767200  1
  H  2564  1  0.96913400  0.24112400  0.12942200  1
  H  2569  1  0.07093200  0.30233600  0.10697500  1
  H  2570  1  0.06644900  0.27852000  0.11655000  1
  H  2571  1  0.09054000  0.27623900  0.09263500  1
  H  2572  1  0.10441200  0.27619600  0.10654400  1
  H  2573  1  0.08646600  0.25288300  0.10246500  1
  H  2583  1  0.01334900  0.27177200  0.62943600  1
  H  2588  1  0.91168000  0.21018900  0.60665000  1
  H  2589  1  0.91597700  0.23347600  0.61658800  1
  H  2590  1  0.89201100  0.23694000  0.59267100  1
  H  2591  1  0.87807900  0.23623400  0.60655900  1
  H  2592  1  0.89596600  0.25980500  0.60281500  1
  H  2602  1  0.97784400  0.28055500  0.37951200  1
  H  2607  1  0.04074400  0.17865400  0.35711800  1
  H  2608  1  0.01799000  0.18232800  0.36746300  1
  H  2609  1  0.01348700  0.15832200  0.34361200  1
  H  2610  1  0.01569800  0.14440500  0.35745500  1
  H  2611  1  0.99127400  0.16153300  0.35422100  1
  H  2621  1  0.00467300  0.23254600  0.87949700  1
  H  2626  1  0.94172400  0.33434300  0.85705800  1
  H  2627  1  0.96447600  0.33067500  0.86740500  1
  H  2628  1  0.96897200  0.35470800  0.84356100  1
  H  2629  1  0.96674600  0.36860900  0.85740700  1
  H  2630  1  0.99118300  0.35150300  0.85417200  1
  H  2640  1  0.51594400  0.27070100  0.35918600  1
  H  2645  1  0.41363000  0.20819000  0.38223800  1
  H  2646  1  0.41706700  0.22997200  0.37136000  1
  H  2647  1  0.39333300  0.23643000  0.39517800  1
  H  2648  1  0.37922400  0.23308000  0.38144000  1
  H  2649  1  0.39638400  0.25772500  0.38409700  1
  H  2659  1  0.46660100  0.24218400  0.85920100  1
  H  2664  1  0.56903100  0.30423900  0.88179300  1
  H  2665  1  0.56528400  0.28164500  0.87138900  1
  H  2666  1  0.58919800  0.27681100  0.89525800  1
  H  2667  1  0.60322000  0.27906900  0.88143800  1
  H  2668  1  0.58591700  0.25475400  0.88459300  1
  H  2678  1  0.50679700  0.23340800  0.10943700  1
  H  2683  1  0.44459000  0.33470200  0.13179000  1
  H  2684  1  0.46841000  0.33051200  0.12214700  1
  H  2685  1  0.47061000  0.35466300  0.14604000  1
  H  2686  1  0.47035700  0.36845400  0.13211900  1
  H  2687  1  0.49397800  0.35085800  0.13615800  1
  H  2697  1  0.47570100  0.27945000  0.60943600  1
  H  2702  1  0.53798300  0.17817000  0.63205400  1
  H  2703  1  0.51463700  0.18236900  0.62211300  1
  H  2704  1  0.51128900  0.15828400  0.64599000  1
  H  2705  1  0.51209600  0.14447000  0.63208100  1
  H  2706  1  0.48836300  0.16215400  0.63584800  1
  H  2716  1  0.46750400  0.74160600  0.62971800  1
  H  2721  1  0.56846500  0.80558500  0.60617600  1
  H  2722  1  0.56567200  0.78387800  0.61714000  1
  H  2723  1  0.58934300  0.77766200  0.59328900  1
  H  2724  1  0.60350100  0.78161900  0.60697200  1
  H  2725  1  0.58697200  0.75648900  0.60447400  1
  H  2735  1  0.51490700  0.77124700  0.12966000  1
  H  2740  1  0.41390700  0.70710700  0.10570900  1
  H  2741  1  0.41651000  0.72802100  0.11708600  1
  H  2742  1  0.39300500  0.73579700  0.09331200  1
  H  2743  1  0.37877300  0.73093100  0.10689600  1
  H  2744  1  0.39526900  0.75624400  0.10484700  1
  H  2754  1  0.47594000  0.78000800  0.87938500  1
  H  2759  1  0.53991400  0.67862800  0.85639500  1
  H  2760  1  0.51799000  0.68161800  0.86725400  1
  H  2761  1  0.51203700  0.65785500  0.84342100  1
  H  2762  1  0.51569800  0.64380100  0.85714600  1
  H  2763  1  0.49065000  0.66041600  0.85450800  1
  H  2773  1  0.50658200  0.73285200  0.37938600  1
  H  2778  1  0.44258500  0.83421200  0.35641500  1
  H  2779  1  0.46452700  0.83120900  0.36726300  1
  H  2780  1  0.47044100  0.85499200  0.34343200  1
  H  2781  1  0.46680800  0.86903400  0.35716300  1
  H  2782  1  0.49184700  0.85242000  0.35451000  1
  C  1  1  0.82816100  0.83976500  0.92683000  1
  C  2  1  0.84184500  0.84895600  0.93598900  1
  C  3  1  0.86601500  0.84976800  0.93523700  1
  C  4  1  0.87858400  0.84092600  0.92548100  1
  C  5  1  0.86464900  0.83208500  0.91622700  1
  C  6  1  0.84024400  0.83139000  0.91688300  1
  C  7  1  0.90487700  0.84495200  0.92471000  1
  C  8  1  0.90496100  0.87109600  0.92257300  1
  C  9  1  0.89841700  0.88021800  0.91145900  1
  C  10  1  0.89790000  0.90399600  0.90919400  1
  C  11  1  0.90318300  0.92012700  0.91808500  1
  C  12  1  0.90864700  0.91142700  0.92934200  1
  C  13  1  0.90905800  0.88764700  0.93154200  1
  C  14  1  0.91805700  0.83801300  0.93595700  1
  C  15  1  0.91809300  0.83173100  0.91503900  1
  C  16  1  0.93628100  0.84197400  0.90850200  1
  C  17  1  0.94945600  0.82983200  0.90016200  1
  C  18  1  0.94599800  0.80616100  0.89793500  1
  C  19  1  0.92873600  0.79533200  0.90479000  1
  C  20  1  0.91548400  0.80770100  0.91317200  1
  C  21  1  0.90895900  0.82313800  0.94470100  1
  C  22  1  0.91974300  0.82006600  0.95571000  1
  C  23  1  0.94091200  0.83083200  0.95845500  1
  C  24  1  0.95152200  0.84348900  0.94933200  1
  C  25  1  0.94057000  0.84653000  0.93834100  1
  C  42  1  0.95976300  0.79518400  0.88934600  1
  C  43  1  0.80401200  0.83943300  0.92821100  1
  C  46  1  0.90314900  0.94359100  0.91559400  1
  C  48  1  0.94955200  0.82992800  0.96997900  1
  C  50  1  0.15438200  0.67339200  0.42677600  1
  C  51  1  0.14066800  0.66460800  0.43602800  1
  C  52  1  0.11649700  0.66381200  0.43527900  1
  C  53  1  0.10394400  0.67230000  0.42543600  1
  C  54  1  0.11791600  0.68070000  0.41608700  1
  C  55  1  0.14232300  0.68138400  0.41674000  1
  C  56  1  0.07768900  0.66811500  0.42463300  1
  C  57  1  0.07781100  0.64201600  0.42239300  1
  C  58  1  0.08391200  0.63309900  0.41117400  1
  C  59  1  0.08470000  0.60935700  0.40884700  1
  C  60  1  0.08022700  0.59303200  0.41776800  1
  C  61  1  0.07537100  0.60157200  0.42914200  1
  C  62  1  0.07458300  0.62533100  0.43138700  1
  C  63  1  0.06441800  0.67479700  0.43588700  1
  C  64  1  0.06440000  0.68138900  0.41501800  1
  C  65  1  0.04591400  0.67126200  0.40865500  1
  C  66  1  0.03269600  0.68341300  0.40033600  1
  C  67  1  0.03638200  0.70700600  0.39798600  1
  C  68  1  0.05389100  0.71775400  0.40470800  1
  C  69  1  0.06720100  0.70536800  0.41305800  1
  C  70  1  0.07317000  0.69012000  0.44451900  1
  C  71  1  0.06237900  0.69315600  0.45553100  1
  C  72  1  0.04151300  0.68190900  0.45837300  1
  C  73  1  0.03121600  0.66871200  0.44935900  1
  C  74  1  0.04218400  0.66569100  0.43837300  1
  C  91  1  0.02258900  0.71799100  0.38941500  1
  C  92  1  0.17853800  0.67365300  0.42814800  1
  C  95  1  0.08081700  0.56956300  0.41520800  1
  C  97  1  0.03289100  0.68287900  0.46989700  1
  C  99  1  0.07423900  0.92007500  0.67699900  1
  C  100  1  0.08303300  0.90640100  0.68626000  1
  C  101  1  0.08387100  0.88227500  0.68552000  1
  C  102  1  0.07541900  0.86971700  0.67567500  1
  C  103  1  0.06700800  0.88364500  0.66631800  1
  C  104  1  0.06626900  0.90800400  0.66696500  1
  C  105  1  0.07970900  0.84352400  0.67486800  1
  C  106  1  0.10586500  0.84373300  0.67264200  1
  C  107  1  0.11480300  0.84985600  0.66142800  1
  C  108  1  0.13859500  0.85065300  0.65910500  1
  C  109  1  0.15494800  0.84617500  0.66802700  1
  C  110  1  0.14638400  0.84132300  0.67939900  1
  C  111  1  0.12257600  0.84052200  0.68163900  1
  C  112  1  0.07306000  0.83021000  0.68611000  1
  C  113  1  0.06647200  0.83023400  0.66523700  1
  C  114  1  0.07669700  0.81183300  0.65886900  1
  C  115  1  0.06458700  0.79861000  0.65054000  1
  C  116  1  0.04093900  0.80220400  0.64818000  1
  C  117  1  0.03009500  0.81963700  0.65490000  1
  C  118  1  0.04244000  0.83294700  0.66326400  1
  C  119  1  0.05773800  0.83887100  0.69477500  1
  C  120  1  0.05470100  0.82799500  0.70576100  1
  C  121  1  0.06599700  0.80716000  0.70855700  1
  C  122  1  0.07921600  0.79697100  0.69951500  1
  C  123  1  0.08222700  0.80801800  0.68855400  1
  C  140  1  0.03000700  0.78841400  0.63959400  1
  C  141  1  0.07398500  0.94419700  0.67835100  1
  C  144  1  0.17846400  0.84673800  0.66546400  1
  C  146  1  0.06501300  0.79841900  0.72005800  1
  C  148  1  0.90792000  0.59281600  0.17707400  1
  C  149  1  0.89869300  0.60646500  0.18623300  1
  C  150  1  0.89787100  0.63059100  0.18549100  1
  C  151  1  0.90674300  0.64316600  0.17574700  1
  C  152  1  0.91559500  0.62926100  0.16648900  1
  C  153  1  0.91632100  0.60490300  0.16713700  1
  C  154  1  0.90258400  0.66939000  0.17496700  1
  C  155  1  0.87638300  0.66939800  0.17284300  1
  C  156  1  0.86724300  0.66275800  0.16174400  1
  C  157  1  0.84341900  0.66223500  0.15947800  1
  C  158  1  0.82725300  0.66757400  0.16835800  1
  C  159  1  0.83596800  0.67309500  0.17960600  1
  C  160  1  0.85979700  0.67351900  0.18180500  1
  C  161  1  0.90948900  0.68262700  0.18619800  1
  C  162  1  0.91576900  0.68258000  0.16527400  1
  C  163  1  0.90543500  0.70066100  0.15871200  1
  C  164  1  0.91755400  0.71385500  0.15037200  1
  C  165  1  0.94130100  0.71053900  0.14817300  1
  C  166  1  0.95222400  0.69339800  0.15505400  1
  C  167  1  0.93987500  0.68012800  0.16343500  1
  C  168  1  0.92432900  0.67361700  0.19498900  1
  C  169  1  0.92737500  0.68449600  0.20597200  1
  C  170  1  0.91661500  0.70567400  0.20864700  1
  C  171  1  0.90397000  0.71616800  0.19948200  1
  C  172  1  0.90094500  0.70511600  0.18852200  1
  C  189  1  0.95225000  0.72432700  0.13959000  1
  C  190  1  0.90821300  0.56869800  0.17843300  1
  C  193  1  0.80374600  0.66757900  0.16585800  1
  C  195  1  0.91755700  0.71447100  0.22013900  1
  C  197  1  0.82761100  0.67464000  0.56205700  1
  C  198  1  0.84189800  0.67343800  0.55198300  1
  C  199  1  0.86609000  0.67280000  0.55281100  1
  C  200  1  0.87808700  0.67393900  0.56371100  1
  C  201  1  0.86353100  0.67481600  0.57379200  1
  C  202  1  0.83915400  0.67542700  0.57303100  1
  C  203  1  0.90414800  0.66875000  0.56460000  1
  C  204  1  0.90327700  0.64288100  0.56732800  1
  C  205  1  0.90589400  0.63368600  0.57882800  1
  C  206  1  0.90531400  0.60987300  0.58103600  1
  C  207  1  0.90148700  0.59384900  0.57188800  1
  C  208  1  0.89737200  0.60283000  0.56052800  1
  C  209  1  0.89776700  0.62662900  0.55841400  1
  C  210  1  0.91770900  0.67395000  0.55321100  1
  C  211  1  0.91800900  0.68260800  0.57377000  1
  C  212  1  0.94052600  0.67532800  0.57696500  1
  C  213  1  0.95462400  0.68767100  0.58481400  1
  C  214  1  0.94745400  0.70863100  0.58995700  1
  C  215  1  0.92523200  0.71643600  0.58672400  1
  C  216  1  0.91109300  0.70390300  0.57879400  1
  C  217  1  0.91435000  0.69472300  0.54688400  1
  C  218  1  0.92497200  0.69885700  0.53590600  1
  C  219  1  0.94077800  0.68307800  0.53095500  1
  C  220  1  0.94616100  0.66349500  0.53775500  1
  C  221  1  0.93518000  0.65931200  0.54861300  1
  C  238  1  0.96304200  0.72069700  0.59723100  1
  C  239  1  0.80345200  0.67394100  0.56060300  1
  C  242  1  0.90140100  0.57027400  0.57425600  1
  C  244  1  0.94948700  0.68637200  0.51957000  1
  C  246  1  0.15479900  0.83821700  0.06212600  1
  C  247  1  0.14050800  0.83940500  0.05205000  1
  C  248  1  0.11631800  0.84001600  0.05287600  1
  C  249  1  0.10433100  0.83891200  0.06377800  1
  C  250  1  0.11887700  0.83803400  0.07386300  1
  C  251  1  0.14325600  0.83744400  0.07309800  1
  C  252  1  0.07826100  0.84406900  0.06468400  1
  C  253  1  0.07910900  0.86994500  0.06739200  1
  C  254  1  0.07649400  0.87916300  0.07889200  1
  C  255  1  0.07705900  0.90298000  0.08108200  1
  C  256  1  0.08087500  0.91899000  0.07192900  1
  C  257  1  0.08499200  0.90998800  0.06056900  1
  C  258  1  0.08460500  0.88618400  0.05846800  1
  C  259  1  0.06470600  0.83882900  0.05329800  1
  C  260  1  0.06441200  0.83021900  0.07385400  1
  C  261  1  0.04189000  0.83749300  0.07704600  1
  C  262  1  0.02778700  0.82514400  0.08489800  1
  C  263  1  0.03495600  0.80418200  0.09004100  1
  C  264  1  0.05718400  0.79638600  0.08680500  1
  C  265  1  0.07132600  0.80892400  0.07888400  1
  C  266  1  0.06809500  0.81804400  0.04698500  1
  C  267  1  0.05747300  0.81385700  0.03601200  1
  C  268  1  0.04168200  0.82962300  0.03103600  1
  C  269  1  0.03626100  0.84921500  0.03782400  1
  C  270  1  0.04722600  0.85343700  0.04868200  1
  C  287  1  0.01934500  0.79209200  0.09728600  1
  C  288  1  0.17895600  0.83896300  0.06066600  1
  C  291  1  0.08095100  0.94257000  0.07428500  1
  C  293  1  0.03297900  0.82627000  0.01965900  1
  C  295  1  0.07324900  0.59256500  0.81190200  1
  C  296  1  0.07465700  0.60681000  0.80182800  1
  C  297  1  0.07535000  0.63095700  0.80264700  1
  C  298  1  0.07406700  0.64294600  0.81353600  1
  C  299  1  0.07296300  0.62844400  0.82362100  1
  C  300  1  0.07229100  0.60411200  0.82286600  1
  C  301  1  0.07929500  0.66895200  0.81444400  1
  C  302  1  0.10521500  0.66803000  0.81717200  1
  C  303  1  0.11438700  0.67040700  0.82869300  1
  C  304  1  0.13824000  0.66981400  0.83092100  1
  C  305  1  0.15434100  0.66620600  0.82176800  1
  C  306  1  0.14538400  0.66232200  0.81037800  1
  C  307  1  0.12153800  0.66270700  0.80824700  1
  C  308  1  0.07410000  0.68252200  0.80306300  1
  C  309  1  0.06544500  0.68281200  0.82361900  1
  C  310  1  0.07287000  0.70520700  0.82688000  1
  C  311  1  0.06051800  0.71931800  0.83471900  1
  C  312  1  0.03941000  0.71228300  0.83978900  1
  C  313  1  0.03144800  0.69019500  0.83648200  1
  C  314  1  0.04399100  0.67604300  0.82856200  1
  C  315  1  0.05334900  0.67912200  0.79668900  1
  C  316  1  0.04921400  0.68982100  0.78573400  1
  C  317  1  0.06496900  0.70573000  0.78084800  1
  C  318  1  0.08452300  0.71112800  0.78769600  1
  C  319  1  0.08870600  0.70007700  0.79853200  1
  C  336  1  0.02730200  0.72792600  0.84700600  1
  C  337  1  0.07394200  0.56844100  0.81046200  1
  C  340  1  0.17795800  0.66615300  0.82416500  1
  C  342  1  0.06166500  0.71455200  0.76948800  1
  C  344  1  0.90921400  0.92049100  0.31191500  1
  C  345  1  0.90777800  0.90625200  0.30184000  1
  C  346  1  0.90708000  0.88210600  0.30265600  1
  C  347  1  0.90838100  0.87011100  0.31354200  1
  C  348  1  0.90948300  0.88460700  0.32362900  1
  C  349  1  0.91017100  0.90893900  0.32287700  1
  C  350  1  0.90316900  0.84410300  0.31444500  1
  C  351  1  0.87724700  0.84500400  0.31716800  1
  C  352  1  0.86807300  0.84265100  0.32869000  1
  C  353  1  0.84421900  0.84322300  0.33091300  1
  C  354  1  0.82812000  0.84679000  0.32175600  1
  C  355  1  0.83707900  0.85065200  0.31036500  1
  C  356  1  0.86092700  0.85028800  0.30823600  1
  C  357  1  0.90839500  0.83054000  0.30306600  1
  C  358  1  0.91701400  0.83024800  0.32362300  1
  C  359  1  0.90958400  0.80785700  0.32688500  1
  C  360  1  0.92192900  0.79375000  0.33472700  1
  C  361  1  0.94304400  0.80078100  0.33979200  1
  C  362  1  0.95099500  0.82287900  0.33649600  1
  C  363  1  0.93846500  0.83701800  0.32856600  1
  C  364  1  0.92914700  0.83397500  0.29669800  1
  C  365  1  0.93331500  0.82327700  0.28574700  1
  C  366  1  0.91759600  0.80733300  0.28086000  1
  C  367  1  0.89803400  0.80191500  0.28769900  1
  C  368  1  0.89382900  0.81295100  0.29853600  1
  C  385  1  0.95511600  0.78516300  0.34703700  1
  C  386  1  0.90855100  0.94461500  0.31047800  1
  C  389  1  0.80450300  0.84682600  0.32415000  1
  C  391  1  0.92092600  0.79852100  0.26950100  1
  C  393  1  0.15462700  0.17172900  0.06176500  1
  C  394  1  0.14072500  0.16564500  0.05202300  1
  C  395  1  0.11654200  0.16482600  0.05276200  1
  C  396  1  0.10416800  0.17077600  0.06312800  1
  C  397  1  0.11831000  0.17636400  0.07295800  1
  C  398  1  0.14270600  0.17706600  0.07228900  1
  C  399  1  0.07803600  0.16605500  0.06401600  1
  C  400  1  0.07879600  0.14010400  0.06655700  1
  C  401  1  0.08207200  0.13156100  0.07814500  1
  C  402  1  0.08301600  0.10788300  0.08062400  1
  C  403  1  0.08166500  0.09128000  0.07156000  1
  C  404  1  0.08002600  0.09953800  0.05989200  1
  C  405  1  0.07902300  0.12324600  0.05750100  1
  C  406  1  0.06442200  0.17192600  0.05276200  1
  C  407  1  0.06445500  0.17956900  0.07341500  1
  C  408  1  0.04435400  0.17021300  0.07870800  1
  C  409  1  0.03104000  0.18229700  0.08700800  1
  C  410  1  0.03633400  0.20510400  0.09037500  1
  C  411  1  0.05551400  0.21522300  0.08466900  1
  C  412  1  0.06892600  0.20290000  0.07634300  1
  C  413  1  0.07120900  0.18963800  0.04490100  1
  C  414  1  0.06035800  0.19296500  0.03392000  1
  C  415  1  0.04121200  0.17957900  0.03042000  1
  C  416  1  0.03264800  0.16365200  0.03872000  1
  C  417  1  0.04373500  0.16030100  0.04964000  1
  C  434  1  0.02263500  0.21592600  0.09902700  1
  C  435  1  0.17882200  0.17167400  0.06045500  1
  C  438  1  0.08218000  0.06786400  0.07432000  1
  C  440  1  0.03263600  0.18117800  0.01892000  1
  C  442  1  0.82785900  0.34115500  0.56176900  1
  C  443  1  0.84176100  0.34722100  0.55202400  1
  C  444  1  0.86594700  0.34800900  0.55276700  1
  C  445  1  0.87833700  0.34203900  0.56312500  1
  C  446  1  0.86417800  0.33650500  0.57295400  1
  C  447  1  0.83978100  0.33581700  0.57229900  1
  C  448  1  0.90445900  0.34679200  0.56401400  1
  C  449  1  0.90369300  0.37274000  0.56655800  1
  C  450  1  0.90039600  0.38128000  0.57814600  1
  C  451  1  0.89943200  0.40495600  0.58062400  1
  C  452  1  0.90077500  0.42156200  0.57156400  1
  C  453  1  0.90241900  0.41330600  0.55989600  1
  C  454  1  0.90343700  0.38960000  0.55749900  1
  C  455  1  0.91807700  0.34093500  0.55275800  1
  C  456  1  0.91803400  0.33333333  0.57341400  1
  C  457  1  0.93815600  0.34263900  0.57869200  1
  C  458  1  0.95147800  0.33056600  0.58699600  1
  C  459  1  0.94617800  0.30777100  0.59037300  1
  C  460  1  0.92698500  0.29764700  0.58467900  1
  C  461  1  0.91357300  0.30995900  0.57634800  1
  C  462  1  0.91130200  0.32322500  0.54489600  1
  C  463  1  0.92214100  0.31993500  0.53390900  1
  C  464  1  0.94128300  0.33333333  0.53041500  1
  C  465  1  0.94984000  0.34924800  0.53871600  1
  C  466  1  0.93876100  0.35257300  0.54964100  1
  C  483  1  0.95987100  0.29696600  0.59903000  1
  C  484  1  0.80366300  0.34123400  0.56046200  1
  C  487  1  0.90022500  0.44497500  0.57432100  1
  C  489  1  0.94985200  0.33176900  0.51891100  1
  C  491  1  0.91339000  0.09452200  0.31259400  1
  C  492  1  0.91040000  0.10794900  0.30234400  1
  C  493  1  0.90789600  0.13203000  0.30289500  1
  C  494  1  0.90923600  0.14462500  0.31360900  1
  C  495  1  0.91128300  0.13071500  0.32387500  1
  C  496  1  0.91357600  0.10648200  0.32342500  1
  C  497  1  0.90366300  0.17056500  0.31428200  1
  C  498  1  0.87776600  0.16930400  0.31699100  1
  C  499  1  0.86865100  0.17094800  0.32855500  1
  C  500  1  0.84482000  0.17008300  0.33080400  1
  C  501  1  0.82870000  0.16684300  0.32162500  1
  C  502  1  0.83762600  0.16356800  0.31017600  1
  C  503  1  0.86146000  0.16426700  0.30801700  1
  C  504  1  0.90861100  0.18408000  0.30287400  1
  C  505  1  0.91745200  0.18461800  0.32339700  1
  C  506  1  0.90937300  0.20645800  0.32719400  1
  C  507  1  0.92122100  0.22004200  0.33548000  1
  C  508  1  0.94259700  0.21317400  0.34030600  1
  C  509  1  0.95161400  0.19210200  0.33610100  1
  C  510  1  0.93948800  0.17840300  0.32783200  1
  C  511  1  0.92878900  0.18016400  0.29611400  1
  C  512  1  0.93242000  0.19083900  0.28510900  1
  C  513  1  0.91678200  0.20724900  0.28058400  1
  C  514  1  0.89794200  0.21321500  0.28781200  1
  C  515  1  0.89424700  0.20216600  0.29869800  1
  C  532  1  0.95306200  0.22703200  0.34898700  1
  C  533  1  0.91706500  0.07076300  0.31149400  1
  C  536  1  0.80509900  0.16656700  0.32405900  1
  C  538  1  0.91915400  0.21562600  0.26909700  1
  C  540  1  0.06912500  0.41852000  0.81255500  1
  C  541  1  0.07212200  0.40508000  0.80230800  1
  C  542  1  0.07463500  0.38100200  0.80286300  1
  C  543  1  0.07330500  0.36842500  0.81358400  1
  C  544  1  0.07123200  0.38233700  0.82384500  1
  C  545  1  0.06893100  0.40656600  0.82338800  1
  C  546  1  0.07886700  0.34247800  0.81424900  1
  C  547  1  0.10476400  0.34374100  0.81696000  1
  C  548  1  0.11387000  0.34209300  0.82852600  1
  C  549  1  0.13770000  0.34294800  0.83077800  1
  C  550  1  0.15382700  0.34617500  0.82160100  1
  C  551  1  0.14491100  0.34943400  0.81015000  1
  C  552  1  0.12107800  0.34875200  0.80798700  1
  C  553  1  0.07391800  0.32895600  0.80284300  1
  C  554  1  0.06507400  0.32842900  0.82336400  1
  C  555  1  0.07314900  0.30659000  0.82716400  1
  C  556  1  0.06129900  0.29301000  0.83545000  1
  C  557  1  0.03992200  0.29988300  0.84027500  1
  C  558  1  0.03090800  0.32095300  0.83606600  1
  C  559  1  0.04303800  0.33464700  0.82779700  1
  C  560  1  0.05374000  0.33286700  0.79608300  1
  C  561  1  0.05012300  0.32219700  0.78507400  1
  C  562  1  0.06574900  0.30576600  0.78055800  1
  C  563  1  0.08458800  0.29981000  0.78778800  1
  C  564  1  0.08828300  0.31086900  0.79867100  1
  C  581  1  0.02945700  0.28603500  0.84895900  1
  C  582  1  0.06544800  0.44227900  0.81145200  1
  C  585  1  0.17742500  0.34645100  0.82403800  1
  C  587  1  0.06338800  0.29738300  0.76907100  1
  C  589  1  0.15546400  0.33965000  0.42674600  1
  C  590  1  0.14120100  0.34008900  0.43684500  1
  C  591  1  0.11700600  0.34091600  0.43605100  1
  C  592  1  0.10498100  0.34078100  0.42514300  1
  C  593  1  0.11952000  0.34051600  0.41504400  1
  C  594  1  0.14389600  0.33973900  0.41577400  1
  C  595  1  0.07893900  0.34617500  0.42430800  1
  C  596  1  0.07983300  0.37196200  0.42135700  1
  C  597  1  0.07576300  0.38096200  0.40992900  1
  C  598  1  0.07621300  0.40471300  0.40757800  1
  C  599  1  0.08138900  0.42089100  0.41647700  1
  C  600  1  0.08700700  0.41213400  0.42771300  1
  C  601  1  0.08661500  0.38836200  0.42997600  1
  C  602  1  0.06553800  0.34142200  0.43580400  1
  C  603  1  0.06488100  0.33208300  0.41529600  1
  C  604  1  0.04198600  0.33886000  0.41253000  1
  C  605  1  0.02779600  0.32652400  0.40472400  1
  C  606  1  0.03526200  0.30607200  0.39916900  1
  C  607  1  0.05787400  0.29875400  0.40197200  1
  C  608  1  0.07210900  0.31127700  0.40986400  1
  C  609  1  0.06801900  0.32027000  0.44191100  1
  C  610  1  0.05729900  0.31613800  0.45286400  1
  C  611  1  0.04227800  0.33240900  0.45802400  1
  C  612  1  0.03785200  0.35257400  0.45149900  1
  C  613  1  0.04893700  0.35672800  0.44066600  1
  C  630  1  0.01968900  0.29409300  0.39184200  1
  C  631  1  0.17962800  0.34031500  0.42818900  1
  C  634  1  0.08130900  0.44438300  0.41392400  1
  C  636  1  0.03342900  0.32901400  0.46936200  1
  C  638  1  0.82707600  0.17343700  0.92670200  1
  C  639  1  0.84133400  0.17320000  0.93680500  1
  C  640  1  0.86553100  0.17237800  0.93602100  1
  C  641  1  0.87755600  0.17225200  0.92511500  1
  C  642  1  0.86302800  0.17233500  0.91501000  1
  C  643  1  0.83865200  0.17312800  0.91573200  1
  C  644  1  0.90360600  0.16687000  0.92428200  1
  C  645  1  0.90276500  0.14108900  0.92130000  1
  C  646  1  0.90727400  0.13206200  0.90992100  1
  C  647  1  0.90712600  0.10829400  0.90760600  1
  C  648  1  0.90178200  0.09211400  0.91648100  1
  C  649  1  0.89564500  0.10090400  0.92764100  1
  C  650  1  0.89576500  0.12468800  0.92987200  1
  C  651  1  0.91697400  0.17155700  0.93579900  1
  C  652  1  0.91767100  0.18102000  0.91529400  1
  C  653  1  0.94065800  0.17440100  0.91262600  1
  C  654  1  0.95484500  0.18675100  0.90482500  1
  C  655  1  0.94728000  0.20706700  0.89917500  1
  C  656  1  0.92457300  0.21423400  0.90187900  1
  C  657  1  0.91034600  0.20169900  0.90977000  1
  C  658  1  0.91465000  0.19276800  0.94186800  1
  C  659  1  0.92538500  0.19690200  0.95281800  1
  C  660  1  0.94023800  0.18053300  0.95802600  1
  C  661  1  0.94449200  0.16027500  0.95155000  1
  C  662  1  0.93341300  0.15613700  0.94071600  1
  C  679  1  0.96284400  0.21906500  0.89185000  1
  C  680  1  0.80291200  0.17273600  0.92814600  1
  C  683  1  0.90248000  0.06858700  0.91400500  1
  C  685  1  0.94913200  0.18395000  0.96935300  1
  C  687  1  0.91469600  0.41898800  0.17564000  1
  C  688  1  0.91395200  0.40530000  0.18590800  1
  C  689  1  0.91121000  0.38125000  0.18536800  1
  C  690  1  0.90989300  0.36892800  0.17457000  1
  C  691  1  0.90997500  0.38306600  0.16433000  1
  C  692  1  0.91246900  0.40727700  0.16479500  1
  C  693  1  0.90398900  0.34302500  0.17394800  1
  C  694  1  0.87812100  0.34426300  0.17111700  1
  C  695  1  0.86863600  0.33949200  0.15986000  1
  C  696  1  0.84475600  0.34012300  0.15772200  1
  C  697  1  0.82895700  0.34610100  0.16667900  1
  C  698  1  0.83823500  0.35236300  0.17771800  1
  C  699  1  0.86211500  0.35188100  0.17975500  1
  C  700  1  0.90863200  0.32978500  0.18550000  1
  C  701  1  0.91786500  0.32870900  0.16494900  1
  C  702  1  0.91095400  0.30582300  0.16234700  1
  C  703  1  0.92311300  0.29146900  0.15454200  1
  C  704  1  0.94350100  0.29875700  0.14882700  1
  C  705  1  0.95099300  0.32132600  0.15149700  1
  C  706  1  0.93866400  0.33570700  0.15938900  1
  C  707  1  0.93005200  0.33172100  0.19145100  1
  C  708  1  0.93419900  0.32103200  0.20240700  1
  C  709  1  0.91761600  0.30658200  0.20773600  1
  C  710  1  0.89710200  0.30269100  0.20138100  1
  C  711  1  0.89296600  0.31372100  0.19053800  1
  C  728  1  0.95531200  0.28310100  0.14148400  1
  C  729  1  0.91831600  0.44277800  0.17670800  1
  C  732  1  0.80531300  0.34615700  0.16439800  1
  C  734  1  0.92105700  0.29778100  0.21907500  1
  C  736  1  0.06780100  0.09391600  0.67562900  1
  C  737  1  0.06852800  0.10759800  0.68590000  1
  C  738  1  0.07126800  0.13164900  0.68536600  1
  C  739  1  0.07260400  0.14397800  0.67457200  1
  C  740  1  0.07254400  0.12984700  0.66432900  1
  C  741  1  0.07004300  0.10563600  0.66478700  1
  C  742  1  0.07850900  0.16988100  0.67395400  1
  C  743  1  0.10437600  0.16864800  0.67112100  1
  C  744  1  0.11386300  0.17344300  0.65986700  1
  C  745  1  0.13774300  0.17282400  0.65773300  1
  C  746  1  0.15354000  0.16682400  0.66666667  1
  C  747  1  0.14425900  0.16052900  0.67771900  1
  C  748  1  0.12037900  0.16100800  0.67975600  1
  C  749  1  0.07387500  0.18311900  0.68550900  1
  C  750  1  0.06463000  0.18420100  0.66495700  1
  C  751  1  0.07153600  0.20709000  0.66236200  1
  C  752  1  0.05938200  0.22144200  0.65455600  1
  C  753  1  0.03899700  0.21415400  0.64883700  1
  C  754  1  0.03151700  0.19157500  0.65149600  1
  C  755  1  0.04384100  0.17719500  0.65939000  1
  C  756  1  0.05244600  0.18120100  0.69145500  1
  C  757  1  0.04831200  0.19188100  0.70241500  1
  C  758  1  0.06489100  0.20634100  0.70774000  1
  C  759  1  0.08541300  0.21021100  0.70138800  1
  C  760  1  0.08954200  0.19918500  0.69054400  1
  C  777  1  0.02721300  0.22979300  0.64147500  1
  C  778  1  0.06417800  0.07012600  0.67669000  1
  C  781  1  0.17718300  0.16677200  0.66440600  1
  C  783  1  0.06145600  0.21514600  0.71907800  1
  C  785  1  0.32978400  0.33585800  0.42601800  1
  C  786  1  0.34325100  0.33862500  0.43628100  1
  C  787  1  0.36737200  0.34116500  0.43573700  1
  C  788  1  0.37995800  0.34010400  0.42500500  1
  C  789  1  0.36602000  0.33823900  0.41473100  1
  C  790  1  0.34174600  0.33591900  0.41518000  1
  C  791  1  0.40596700  0.34561900  0.42433500  1
  C  792  1  0.40474500  0.37146800  0.42161500  1
  C  793  1  0.40673200  0.38061000  0.41007500  1
  C  794  1  0.40586200  0.40440200  0.40784000  1
  C  795  1  0.40230400  0.42046100  0.41700600  1
  C  796  1  0.39875300  0.41150700  0.42842300  1
  C  797  1  0.39944800  0.38771400  0.43056800  1
  C  798  1  0.41948500  0.34069800  0.43575300  1
  C  799  1  0.42001000  0.33176200  0.41523700  1
  C  800  1  0.44200200  0.33964600  0.41150900  1
  C  801  1  0.45558500  0.32774400  0.40323600  1
  C  802  1  0.44855000  0.30651100  0.39835200  1
  C  803  1  0.42729600  0.29770000  0.40247400  1
  C  804  1  0.41360200  0.30987800  0.41072800  1
  C  805  1  0.41567400  0.32046400  0.44245700  1
  C  806  1  0.42626200  0.31686500  0.45349100  1
  C  807  1  0.44253800  0.33256800  0.45808500  1
  C  808  1  0.44844400  0.35146600  0.45090900  1
  C  809  1  0.43744800  0.35514900  0.44000200  1
  C  826  1  0.46241400  0.29598200  0.38968500  1
  C  827  1  0.30598100  0.33217500  0.42710300  1
  C  830  1  0.40200200  0.44402600  0.41458700  1
  C  832  1  0.45078100  0.33023100  0.46960000  1
  C  834  1  0.65275200  0.17696500  0.92599000  1
  C  835  1  0.63933400  0.17386000  0.93624200  1
  C  836  1  0.61521100  0.17133200  0.93570000  1
  C  837  1  0.60256700  0.17276700  0.92499600  1
  C  838  1  0.61647200  0.17490700  0.91472500  1
  C  839  1  0.64074800  0.17722400  0.91516600  1
  C  840  1  0.57656600  0.16725000  0.92433300  1
  C  841  1  0.57779200  0.14138800  0.92164800  1
  C  842  1  0.57622900  0.13226500  0.91008600  1
  C  843  1  0.57711300  0.10847300  0.90785200  1
  C  844  1  0.58030100  0.09239500  0.91704500  1
  C  845  1  0.58347400  0.10133200  0.92849500  1
  C  846  1  0.58275300  0.12512400  0.93064000  1
  C  847  1  0.56304500  0.17224200  0.93573900  1
  C  848  1  0.56253200  0.18105100  0.91521400  1
  C  849  1  0.54069100  0.17300200  0.91135200  1
  C  850  1  0.52710800  0.18492300  0.90308600  1
  C  851  1  0.53396900  0.20634500  0.89835300  1
  C  852  1  0.55504000  0.21531900  0.90262800  1
  C  853  1  0.56873300  0.20312500  0.91087600  1
  C  854  1  0.56710300  0.19231500  0.94252800  1
  C  855  1  0.55650800  0.19589000  0.95356300  1
  C  856  1  0.53999300  0.18034300  0.95807300  1
  C  857  1  0.53385400  0.16164800  0.95080800  1
  C  858  1  0.54484100  0.15799200  0.93989600  1
  C  875  1  0.52009700  0.21692400  0.88970400  1
  C  876  1  0.67654300  0.18068400  0.92708100  1
  C  879  1  0.58060200  0.06883200  0.91462200  1
  C  881  1  0.53174200  0.18262300  0.96959100  1
  C  883  1  0.57548100  0.41934900  0.17699900  1
  C  884  1  0.58150100  0.40545600  0.18674700  1
  C  885  1  0.58238000  0.38132400  0.18598300  1
  C  886  1  0.57655400  0.36896900  0.17559800  1
  C  887  1  0.57108400  0.38311900  0.16576600  1
  C  888  1  0.57029600  0.40746700  0.16644300  1
  C  889  1  0.58141400  0.34291500  0.17470100  1
  C  890  1  0.60742100  0.34377200  0.17218000  1
  C  891  1  0.61601800  0.34697600  0.16059500  1
  C  892  1  0.63975000  0.34800700  0.15814200  1
  C  893  1  0.65636000  0.34682700  0.16722400  1
  C  894  1  0.64804100  0.34528200  0.17888600  1
  C  895  1  0.62427900  0.34419900  0.18125800  1
  C  896  1  0.57555800  0.32930900  0.18595400  1
  C  897  1  0.56795600  0.32930300  0.16529500  1
  C  898  1  0.57737800  0.30918300  0.16008000  1
  C  899  1  0.56534400  0.29578800  0.15179000  1
  C  900  1  0.54250900  0.30099900  0.14836800  1
  C  901  1  0.53231500  0.32020100  0.15399800  1
  C  902  1  0.54459100  0.33369600  0.16230800  1
  C  903  1  0.55766600  0.33594400  0.19375600  1
  C  904  1  0.55433800  0.32514400  0.20474500  1
  C  905  1  0.56791100  0.30619000  0.20830500  1
  C  906  1  0.58401400  0.29774300  0.20005500  1
  C  907  1  0.58736500  0.30878400  0.18912800  1
  C  924  1  0.53174700  0.28721400  0.13973400  1
  C  925  1  0.57544800  0.44349400  0.17834000  1
  C  928  1  0.67983300  0.34742200  0.16448900  1
  C  930  1  0.56629000  0.29766600  0.21981200  1
  C  932  1  0.40697500  0.09351600  0.67700900  1
  C  933  1  0.40076200  0.10740700  0.68672700  1
  C  934  1  0.39989000  0.13153700  0.68595900  1
  C  935  1  0.40591400  0.14388700  0.67560000  1
  C  936  1  0.41158200  0.12974500  0.66579600  1
  C  937  1  0.41235600  0.10539900  0.66647800  1
  C  938  1  0.40108500  0.16995100  0.67471600  1
  C  939  1  0.37506500  0.16912500  0.67221400  1
  C  940  1  0.36647300  0.16570200  0.66064500  1
  C  941  1  0.34274000  0.16468600  0.65819100  1
  C  942  1  0.32612700  0.16608300  0.66726300  1
  C  943  1  0.33443800  0.16785900  0.67891800  1
  C  944  1  0.35820100  0.16894500  0.68129000  1
  C  945  1  0.40699700  0.18354000  0.68596700  1
  C  946  1  0.41451700  0.18355400  0.66529600  1
  C  947  1  0.40503300  0.20357800  0.66001400  1
  C  948  1  0.41706700  0.21697200  0.65172500  1
  C  949  1  0.43995600  0.21185400  0.64836200  1
  C  950  1  0.45020300  0.19274700  0.65405200  1
  C  951  1  0.43793000  0.17926300  0.66236900  1
  C  952  1  0.42475200  0.17676300  0.69382000  1
  C  953  1  0.42804500  0.18754500  0.70481600  1
  C  954  1  0.41461900  0.20663500  0.70832700  1
  C  955  1  0.39868600  0.21521400  0.70002700  1
  C  956  1  0.39534800  0.20418100  0.68909600  1
  C  973  1  0.45071700  0.22563300  0.63972400  1
  C  974  1  0.40702100  0.06937600  0.67835700  1
  C  977  1  0.30265500  0.16549000  0.66452500  1
  C  979  1  0.41620900  0.21516800  0.71983400  1
  C  981  1  0.32878900  0.17801900  0.06335600  1
  C  982  1  0.34249200  0.17729300  0.05308700  1
  C  983  1  0.36659600  0.17461400  0.05362300  1
  C  984  1  0.37895900  0.17335400  0.06442000  1
  C  985  1  0.36479600  0.17340400  0.07466300  1
  C  986  1  0.34053200  0.17584400  0.07419700  1
  C  987  1  0.40493000  0.16755000  0.06502700  1
  C  988  1  0.40378700  0.14172400  0.06785800  1
  C  989  1  0.40862200  0.13226800  0.07911200  1
  C  990  1  0.40802700  0.10843300  0.08124900  1
  C  991  1  0.40202900  0.09263900  0.07230700  1
  C  992  1  0.39572500  0.10188400  0.06127300  1
  C  993  1  0.39618800  0.12571900  0.05922400  1
  C  994  1  0.41815800  0.17223300  0.05347400  1
  C  995  1  0.41922000  0.18148400  0.07402100  1
  C  996  1  0.44217900  0.17469800  0.07663300  1
  C  997  1  0.45651400  0.18693600  0.08441400  1
  C  998  1  0.44913800  0.20729000  0.09010300  1
  C  999  1  0.42648700  0.21464800  0.08743000  1
  C  1000  1  0.41212700  0.20224300  0.07956100  1
  C  1001  1  0.41612000  0.19360000  0.04752100  1
  C  1002  1  0.42671800  0.19773800  0.03653100  1
  C  1003  1  0.44122500  0.18123200  0.03119400  1
  C  1004  1  0.44525400  0.16079500  0.03755100  1
  C  1005  1  0.43429100  0.15665200  0.04841800  1
  C  1022  1  0.46476100  0.21915500  0.09746200  1
  C  1023  1  0.30495100  0.18159900  0.06229300  1
  C  1026  1  0.40196900  0.06904000  0.07461100  1
  C  1028  1  0.44992300  0.18466200  0.01982600  1
  C  1030  1  0.65370700  0.33492500  0.56338500  1
  C  1031  1  0.64002000  0.33567700  0.55310800  1
  C  1032  1  0.61591500  0.33833800  0.55363600  1
  C  1033  1  0.60353800  0.33956500  0.56442900  1
  C  1034  1  0.61767700  0.33949000  0.57467800  1
  C  1035  1  0.64194300  0.33705600  0.57422600  1
  C  1036  1  0.57755800  0.34533000  0.56504200  1
  C  1037  1  0.57867300  0.37116100  0.56786500  1
  C  1038  1  0.57388500  0.38061000  0.57912400  1
  C  1039  1  0.57446800  0.40444300  0.58126600  1
  C  1040  1  0.58040600  0.42024600  0.57231400  1
  C  1041  1  0.58665900  0.41100900  0.56126700  1
  C  1042  1  0.58621000  0.38717500  0.55922100  1
  C  1043  1  0.56433800  0.34061900  0.55348600  1
  C  1044  1  0.56327900  0.33139100  0.57403600  1
  C  1045  1  0.54032500  0.33818200  0.57665700  1
  C  1046  1  0.52599500  0.32593500  0.58444300  1
  C  1047  1  0.53336900  0.30556400  0.59011500  1
  C  1048  1  0.55601300  0.29820100  0.58742800  1
  C  1049  1  0.57036700  0.31061500  0.57955400  1
  C  1050  1  0.56645000  0.31927100  0.54752400  1
  C  1051  1  0.55584800  0.31510800  0.53654200  1
  C  1052  1  0.54130300  0.33158500  0.53120200  1
  C  1053  1  0.53718700  0.35198900  0.53758100  1
  C  1054  1  0.54814400  0.35615100  0.54844600  1
  C  1071  1  0.51774100  0.29367700  0.59745800  1
  C  1072  1  0.67753900  0.33130700  0.56233400  1
  C  1075  1  0.58045800  0.44384600  0.57461700  1
  C  1077  1  0.53260900  0.32812900  0.51983800  1
  C  1079  1  0.57426000  0.09287800  0.31204400  1
  C  1080  1  0.57470000  0.10714300  0.30195600  1
  C  1081  1  0.57567400  0.13128000  0.30276700  1
  C  1082  1  0.57568100  0.14324800  0.31368300  1
  C  1083  1  0.57537800  0.12871700  0.32377500  1
  C  1084  1  0.57447200  0.10439300  0.32302600  1
  C  1085  1  0.58120200  0.16921500  0.31454000  1
  C  1086  1  0.60704600  0.16821600  0.31749100  1
  C  1087  1  0.61608300  0.17229900  0.32891200  1
  C  1088  1  0.63987600  0.17173200  0.33126900  1
  C  1089  1  0.65607800  0.16641600  0.32238600  1
  C  1090  1  0.64727500  0.16080700  0.31115600  1
  C  1091  1  0.62345500  0.16130300  0.30888800  1
  C  1092  1  0.57646100  0.18259300  0.30304200  1
  C  1093  1  0.56715300  0.18332500  0.32355300  1
  C  1094  1  0.57401400  0.20617500  0.32627300  1
  C  1095  1  0.56171000  0.22043300  0.33405800  1
  C  1096  1  0.54120900  0.21309000  0.33964400  1
  C  1097  1  0.53380600  0.19052300  0.33688600  1
  C  1098  1  0.54629900  0.17621500  0.32901700  1
  C  1099  1  0.55517400  0.18028900  0.29700100  1
  C  1100  1  0.55101900  0.19095700  0.28604200  1
  C  1101  1  0.56741100  0.20576300  0.28081600  1
  C  1102  1  0.58773000  0.21001900  0.28727400  1
  C  1103  1  0.59190700  0.19898100  0.29811100  1
  C  1120  1  0.52924900  0.22875300  0.34692800  1
  C  1121  1  0.57476100  0.06876200  0.31056900  1
  C  1124  1  0.67962000  0.16639700  0.32495900  1
  C  1126  1  0.56397000  0.21456700  0.26947800  1
  C  1128  1  0.40821800  0.41998500  0.81205500  1
  C  1129  1  0.40773700  0.40572200  0.80196700  1
  C  1130  1  0.40678200  0.38158500  0.80277600  1
  C  1131  1  0.40682700  0.36961300  0.81369200  1
  C  1132  1  0.40714200  0.38414200  0.82378400  1
  C  1133  1  0.40804600  0.40846600  0.82303700  1
  C  1134  1  0.40132600  0.34364100  0.81454800  1
  C  1135  1  0.37548200  0.34462700  0.81749300  1
  C  1136  1  0.36644700  0.34060400  0.82892100  1
  C  1137  1  0.34265400  0.34117900  0.83127800  1
  C  1138  1  0.32645200  0.34644400  0.82238800  1
  C  1139  1  0.33525100  0.35198700  0.81114800  1
  C  1140  1  0.35907000  0.35148300  0.80888000  1
  C  1141  1  0.40609300  0.33026700  0.80305300  1
  C  1142  1  0.41537000  0.32953800  0.82356400  1
  C  1143  1  0.40849300  0.30669800  0.82629600  1
  C  1144  1  0.42078900  0.29244400  0.83408600  1
  C  1145  1  0.44130500  0.29977900  0.83966000  1
  C  1146  1  0.44871500  0.32234200  0.83689800  1
  C  1147  1  0.43622900  0.33664400  0.82902200  1
  C  1148  1  0.42736600  0.33262500  0.79700600  1
  C  1149  1  0.43153300  0.32196900  0.78604500  1
  C  1150  1  0.41517700  0.30711500  0.78082600  1
  C  1151  1  0.39487400  0.30280800  0.78729100  1
  C  1152  1  0.39068800  0.31382900  0.79813100  1
  C  1169  1  0.45323500  0.28413200  0.84696700  1
  C  1170  1  0.40771100  0.44410100  0.81058300  1
  C  1173  1  0.30291200  0.34649600  0.82496300  1
  C  1175  1  0.41862200  0.29833500  0.76948300  1
  C  1177  1  0.65328900  0.67797200  0.56272800  1
  C  1178  1  0.63973300  0.67643800  0.55242600  1
  C  1179  1  0.61564500  0.67354000  0.55293100  1
  C  1180  1  0.60317200  0.67293200  0.56370500  1
  C  1181  1  0.61720400  0.67370100  0.57398600  1
  C  1182  1  0.64144100  0.67634700  0.57356600  1
  C  1183  1  0.57719400  0.66719100  0.56435200  1
  C  1184  1  0.57841100  0.64143800  0.56734300  1
  C  1185  1  0.57448200  0.63246600  0.57878700  1
  C  1186  1  0.57525100  0.60874100  0.58118100  1
  C  1187  1  0.58062400  0.59255500  0.57231200  1
  C  1188  1  0.58609600  0.60131300  0.56105600  1
  C  1189  1  0.58540500  0.62507400  0.55875000  1
  C  1190  1  0.56381900  0.67162600  0.55282900  1
  C  1191  1  0.56302100  0.68134700  0.57329200  1
  C  1192  1  0.54040200  0.67422900  0.57641400  1
  C  1193  1  0.52674900  0.68607500  0.58467700  1
  C  1194  1  0.53440800  0.70650300  0.59017200  1
  C  1195  1  0.55634300  0.71462600  0.58667000  1
  C  1196  1  0.57009500  0.70249000  0.57842900  1
  C  1197  1  0.56631500  0.69256200  0.54653500  1
  C  1198  1  0.55557600  0.69632900  0.53555300  1
  C  1199  1  0.54044900  0.67993600  0.53058700  1
  C  1200  1  0.53593000  0.66004300  0.53730400  1
  C  1201  1  0.54708100  0.65623500  0.54815500  1
  C  1218  1  0.52053900  0.71684100  0.59888000  1
  C  1219  1  0.67707300  0.68188900  0.56172600  1
  C  1222  1  0.58087600  0.56908300  0.57494300  1
  C  1224  1  0.53198000  0.68269200  0.51914500  1
  C  1226  1  0.32912100  0.83494600  0.06269700  1
  C  1227  1  0.34266600  0.83651900  0.05239200  1
  C  1228  1  0.36675800  0.83939700  0.05289400  1
  C  1229  1  0.37925300  0.83994100  0.06366400  1
  C  1230  1  0.36521900  0.83917400  0.07394200  1
  C  1231  1  0.34098100  0.83653900  0.07352900  1
  C  1232  1  0.40522300  0.84570100  0.06430600  1
  C  1233  1  0.40400500  0.87145500  0.06729500  1
  C  1234  1  0.40788600  0.88042000  0.07874300  1
  C  1235  1  0.40710600  0.90414300  0.08114300  1
  C  1236  1  0.40176100  0.92033300  0.07227200  1
  C  1237  1  0.39632500  0.91158200  0.06100900  1
  C  1238  1  0.39702700  0.88782100  0.05869700  1
  C  1239  1  0.41859100  0.84127100  0.05277900  1
  C  1240  1  0.41939900  0.83155600  0.07324800  1
  C  1241  1  0.44201100  0.83868500  0.07636900  1
  C  1242  1  0.45567300  0.82684100  0.08463400  1
  C  1243  1  0.44802200  0.80640700  0.09012000  1
  C  1244  1  0.42609000  0.79827200  0.08662100  1
  C  1245  1  0.41234200  0.81039900  0.07837400  1
  C  1246  1  0.41608200  0.82034400  0.04647500  1
  C  1247  1  0.42681400  0.81659200  0.03549400  1
  C  1248  1  0.44197600  0.83297100  0.03054400  1
  C  1249  1  0.44651900  0.85284100  0.03727000  1
  C  1250  1  0.43536600  0.85663900  0.04811900  1
  C  1267  1  0.46188900  0.79607200  0.09883300  1
  C  1268  1  0.30533300  0.83104500  0.06169500  1
  C  1271  1  0.40149800  0.94380400  0.07490100  1
  C  1273  1  0.45044700  0.83023700  0.01909600  1
  C  1275  1  0.41228500  0.59400200  0.81257100  1
  C  1276  1  0.41075800  0.60752700  0.80226700  1
  C  1277  1  0.40798900  0.63158900  0.80276800  1
  C  1278  1  0.40751700  0.64406900  0.81353500  1
  C  1279  1  0.40827800  0.63006300  0.82381600  1
  C  1280  1  0.41079900  0.60585700  0.82340300  1
  C  1281  1  0.40174000  0.66998900  0.81417600  1
  C  1282  1  0.37594100  0.66874800  0.81716200  1
  C  1283  1  0.36696100  0.67252900  0.82862000  1
  C  1284  1  0.34319400  0.67171300  0.83101700  1
  C  1285  1  0.32698100  0.66642900  0.82213500  1
  C  1286  1  0.33575000  0.66108300  0.81086300  1
  C  1287  1  0.35955100  0.66182500  0.80855300  1
  C  1288  1  0.40616700  0.68334800  0.80265300  1
  C  1289  1  0.41587400  0.68416500  0.82312200  1
  C  1290  1  0.40866400  0.70670700  0.82625500  1
  C  1291  1  0.42049600  0.72037300  0.83451300  1
  C  1292  1  0.44099900  0.71280100  0.83999800  1
  C  1293  1  0.44921400  0.69093800  0.83648800  1
  C  1294  1  0.43709400  0.67717800  0.82824600  1
  C  1295  1  0.42711000  0.68083900  0.79633200  1
  C  1296  1  0.43087900  0.69163500  0.78536900  1
  C  1297  1  0.41449100  0.70683400  0.78045200  1
  C  1298  1  0.39459700  0.71134900  0.78719600  1
  C  1299  1  0.39078600  0.70014200  0.79802800  1
  C  1316  1  0.45132100  0.72668900  0.84869900  1
  C  1317  1  0.41607500  0.57023800  0.81157000  1
  C  1320  1  0.30346900  0.66612700  0.82476300  1
  C  1322  1  0.41726300  0.71543000  0.76903600  1
  C  1324  1  0.57017900  0.91885600  0.31255700  1
  C  1325  1  0.57171200  0.90532300  0.30225500  1
  C  1326  1  0.57448000  0.88126300  0.30276000  1
  C  1327  1  0.57496300  0.86879700  0.31353200  1
  C  1328  1  0.57417200  0.88280300  0.32381200  1
  C  1329  1  0.57164800  0.90700700  0.32339300  1
  C  1330  1  0.58072600  0.84287200  0.31416500  1
  C  1331  1  0.60652700  0.84412000  0.31714800  1
  C  1332  1  0.61550900  0.84033900  0.32860600  1
  C  1333  1  0.63927600  0.84115500  0.33100200  1
  C  1334  1  0.65548700  0.84643100  0.32211900  1
  C  1335  1  0.64671800  0.85176400  0.31084500  1
  C  1336  1  0.62291500  0.85102300  0.30853600  1
  C  1337  1  0.57628800  0.82950700  0.30264500  1
  C  1338  1  0.56659900  0.82869600  0.32311300  1
  C  1339  1  0.57381800  0.80615800  0.32624800  1
  C  1340  1  0.56199400  0.79249300  0.33450900  1
  C  1341  1  0.54148600  0.80006000  0.33999300  1
  C  1342  1  0.53326200  0.82191400  0.33647900  1
  C  1343  1  0.54537600  0.83567700  0.32823700  1
  C  1344  1  0.55534600  0.83202300  0.29632300  1
  C  1345  1  0.55158300  0.82124000  0.28535600  1
  C  1346  1  0.56795900  0.80602000  0.28044400  1
  C  1347  1  0.58785400  0.80150300  0.28718800  1
  C  1348  1  0.59167000  0.81271400  0.29801900  1
  C  1365  1  0.53117300  0.78617100  0.34869600  1
  C  1366  1  0.56639500  0.94262200  0.31155200  1
  C  1369  1  0.67899900  0.84673900  0.32474600  1
  C  1371  1  0.56519800  0.79743300  0.26902700  1
  C  1373  1  0.65403000  0.83400900  0.92545000  1
  C  1374  1  0.64041200  0.83477300  0.93575000  1
  C  1375  1  0.61634500  0.83780500  0.93526700  1
  C  1376  1  0.60393400  0.83937900  0.92449700  1
  C  1377  1  0.61802800  0.83929700  0.91423100  1
  C  1378  1  0.64225600  0.83652600  0.91463600  1
  C  1379  1  0.57799300  0.84533200  0.92392600  1
  C  1380  1  0.57918300  0.87110500  0.92095500  1
  C  1381  1  0.57401800  0.88032000  0.90969000  1
  C  1382  1  0.57460700  0.90408800  0.90739800  1
  C  1383  1  0.58097900  0.92008500  0.91618200  1
  C  1384  1  0.58765800  0.91109700  0.92721700  1
  C  1385  1  0.58713500  0.88729300  0.92942000  1
  C  1386  1  0.56486200  0.84087700  0.93553700  1
  C  1387  1  0.56356700  0.83129900  0.91502500  1
  C  1388  1  0.54053300  0.83800700  0.91253400  1
  C  1389  1  0.52613100  0.82580100  0.90476600  1
  C  1390  1  0.53351700  0.80556100  0.89898000  1
  C  1391  1  0.55623200  0.79825600  0.90154900  1
  C  1392  1  0.57065600  0.81062700  0.90940400  1
  C  1393  1  0.56659200  0.81943900  0.94145200  1
  C  1394  1  0.55590800  0.81535000  0.95241900  1
  C  1395  1  0.54163200  0.83201900  0.95778800  1
  C  1396  1  0.53797400  0.85260100  0.95149100  1
  C  1397  1  0.54902500  0.85668800  0.94064300  1
  C  1414  1  0.51787500  0.79377000  0.89160800  1
  C  1415  1  0.67781300  0.83004600  0.92643800  1
  C  1418  1  0.58101000  0.94360400  0.91366600  1
  C  1420  1  0.53282700  0.82861600  0.96912700  1
  C  1422  1  0.32851200  0.67888700  0.42543900  1
  C  1423  1  0.34212600  0.67820900  0.43574300  1
  C  1424  1  0.36619600  0.67516800  0.43527000  1
  C  1425  1  0.37860300  0.67347800  0.42450400  1
  C  1426  1  0.36451900  0.67350700  0.41423400  1
  C  1427  1  0.34029300  0.67629200  0.41463200  1
  C  1428  1  0.40454000  0.66750900  0.42393000  1
  C  1429  1  0.40334300  0.64174200  0.42094200  1
  C  1430  1  0.40860300  0.63253100  0.40968800  1
  C  1431  1  0.40801200  0.60876600  0.40738900  1
  C  1432  1  0.40155100  0.59276800  0.41615400  1
  C  1433  1  0.39477900  0.60175100  0.42717600  1
  C  1434  1  0.39530200  0.62555300  0.42938500  1
  C  1435  1  0.41766600  0.67192500  0.43554800  1
  C  1436  1  0.41897300  0.68155600  0.41503700  1
  C  1437  1  0.44202800  0.67488300  0.41257200  1
  C  1438  1  0.45642800  0.68708600  0.40480200  1
  C  1439  1  0.44902100  0.70729200  0.39899000  1
  C  1440  1  0.42628800  0.71456900  0.40153800  1
  C  1441  1  0.41186500  0.70220000  0.40939500  1
  C  1442  1  0.41603400  0.69339100  0.44144300  1
  C  1443  1  0.42672800  0.69746900  0.45240900  1
  C  1444  1  0.44090300  0.68074100  0.45780100  1
  C  1445  1  0.44446100  0.66011500  0.45152700  1
  C  1446  1  0.43341200  0.65605100  0.44067600  1
  C  1463  1  0.46465800  0.71907900  0.39161500  1
  C  1464  1  0.30473300  0.68287700  0.42641300  1
  C  1467  1  0.40150800  0.56925400  0.41363200  1
  C  1469  1  0.44973900  0.68414700  0.46913200  1
  C  1471  1  0.41328400  0.91963500  0.67569700  1
  C  1472  1  0.41270500  0.90602400  0.68599600  1
  C  1473  1  0.40984100  0.88197900  0.68551900  1
  C  1474  1  0.40824700  0.86958600  0.67475200  1
  C  1475  1  0.40822500  0.88365100  0.66448400  1
  C  1476  1  0.41081100  0.90785500  0.66488800  1
  C  1477  1  0.40227700  0.84369100  0.67417900  1
  C  1478  1  0.37646000  0.84491500  0.67121200  1
  C  1479  1  0.36719800  0.83974500  0.65995400  1
  C  1480  1  0.34337800  0.84034200  0.65768200  1
  C  1481  1  0.32739700  0.84672100  0.66648200  1
  C  1482  1  0.33643200  0.85341200  0.67750600  1
  C  1483  1  0.36028400  0.85289800  0.67968600  1
  C  1484  1  0.40668300  0.83055200  0.68578900  1
  C  1485  1  0.41629700  0.82927100  0.66527200  1
  C  1486  1  0.40954100  0.80628300  0.66279600  1
  C  1487  1  0.42172400  0.79188600  0.65502400  1
  C  1488  1  0.44198500  0.79922900  0.64921100  1
  C  1489  1  0.44933800  0.82189700  0.65176200  1
  C  1490  1  0.43698600  0.83632200  0.65962200  1
  C  1491  1  0.42814700  0.83220700  0.69172400  1
  C  1492  1  0.43222200  0.82141300  0.70266000  1
  C  1493  1  0.41549000  0.80714300  0.70799100  1
  C  1494  1  0.39485700  0.80361300  0.70168500  1
  C  1495  1  0.39080200  0.81474200  0.69086100  1
  C  1512  1  0.45378800  0.78356000  0.64186900  1
  C  1513  1  0.41702600  0.94341700  0.67668300  1
  C  1516  1  0.30383200  0.84673600  0.66400800  1
  C  1518  1  0.41888500  0.79818300  0.71929700  1
  C  1520  1  0.56909300  0.59323300  0.17565600  1
  C  1521  1  0.56957900  0.60684600  0.18595500  1
  C  1522  1  0.57242200  0.63089300  0.18548300  1
  C  1523  1  0.57409700  0.64329000  0.17472100  1
  C  1524  1  0.57421200  0.62922200  0.16445400  1
  C  1525  1  0.57164100  0.60501600  0.16485100  1
  C  1526  1  0.58003500  0.66919400  0.17415700  1
  C  1527  1  0.60584800  0.66803700  0.17116800  1
  C  1528  1  0.61511800  0.67346600  0.15994500  1
  C  1529  1  0.63895600  0.67315500  0.15770700  1
  C  1530  1  0.65495900  0.66676700  0.16649600  1
  C  1531  1  0.64590800  0.65973100  0.17746400  1
  C  1532  1  0.62204300  0.65998300  0.17961300  1
  C  1533  1  0.57565100  0.68230100  0.18578000  1
  C  1534  1  0.56597700  0.68361900  0.16526600  1
  C  1535  1  0.57263700  0.70665900  0.16285000  1
  C  1536  1  0.56044800  0.72105800  0.15508200  1
  C  1537  1  0.54027000  0.71366100  0.14921200  1
  C  1538  1  0.53302200  0.69093000  0.15169200  1
  C  1539  1  0.54537200  0.67650900  0.15955500  1
  C  1540  1  0.55416500  0.68069400  0.19169800  1
  C  1541  1  0.55009600  0.69146000  0.20264400  1
  C  1542  1  0.56684300  0.70569300  0.20799000  1
  C  1543  1  0.58750800  0.70916800  0.20170400  1
  C  1544  1  0.59156000  0.69806100  0.19087500  1
  C  1561  1  0.52848900  0.72931600  0.14185400  1
  C  1562  1  0.56536600  0.56944600  0.17663700  1
  C  1565  1  0.67856600  0.66733000  0.16410100  1
  C  1567  1  0.56344700  0.71465000  0.21929700  1
  C  1569  1  0.71674800  0.83912800  0.92134400  1
  C  1571  1  0.75205200  0.83430400  0.91043900  1
  C  1572  1  0.76558100  0.83754400  0.92059500  1
  C  1574  1  0.73019600  0.84276500  0.93166800  1
  C  1575  1  0.72182300  0.84866800  0.94266600  1
  C  1579  1  0.70298300  0.88384300  0.94382200  1
  C  1580  1  0.67845700  0.89371300  0.94452800  1
  C  1588  1  0.26580600  0.67380000  0.42131600  1
  C  1590  1  0.23052900  0.67871600  0.41039700  1
  C  1591  1  0.21697900  0.67545000  0.42054300  1
  C  1593  1  0.25232900  0.67010900  0.43162500  1
  C  1594  1  0.26067200  0.66415900  0.44260800  1
  C  1598  1  0.27988400  0.62917000  0.44368400  1
  C  1599  1  0.30448900  0.61954100  0.44452900  1
  C  1607  1  0.07317500  0.03131400  0.67141900  1
  C  1609  1  0.06820000  0.99600800  0.66058700  1
  C  1610  1  0.07183000  0.98255300  0.67072700  1
  C  1612  1  0.07722300  0.01793100  0.68171400  1
  C  1613  1  0.08340700  0.02642100  0.69262800  1
  C  1617  1  0.11915900  0.04425100  0.69354700  1
  C  1618  1  0.12978100  0.06841300  0.69431200  1
  C  1626  1  0.90928100  0.48158900  0.17146700  1
  C  1628  1  0.91430000  0.51692400  0.16066700  1
  C  1629  1  0.91057300  0.53035300  0.17080600  1
  C  1631  1  0.90511700  0.49494200  0.18176300  1
  C  1632  1  0.89884100  0.48646600  0.19267700  1
  C  1636  1  0.86307300  0.46865700  0.19363700  1
  C  1637  1  0.85242400  0.44448200  0.19416600  1
  C  1645  1  0.71600200  0.67314500  0.56708200  1
  C  1647  1  0.75111200  0.67785700  0.57817000  1
  C  1648  1  0.76482900  0.67484700  0.56806300  1
  C  1650  1  0.72966300  0.66965600  0.55681700  1
  C  1651  1  0.72150100  0.66390800  0.54577800  1
  C  1655  1  0.70324900  0.62840200  0.54460400  1
  C  1656  1  0.67891500  0.61813700  0.54368400  1
  C  1664  1  0.26641400  0.83978000  0.06710200  1
  C  1666  1  0.23133400  0.83503800  0.07820700  1
  C  1667  1  0.21759200  0.83805600  0.06810400  1
  C  1669  1  0.25273500  0.84322300  0.05683300  1
  C  1670  1  0.26087200  0.84896700  0.04577200  1
  C  1674  1  0.27874900  0.88464100  0.04449700  1
  C  1675  1  0.30299800  0.89514000  0.04369700  1
  C  1683  1  0.07393100  0.48111800  0.81700400  1
  C  1685  1  0.06888900  0.51623900  0.82799400  1
  C  1686  1  0.07248000  0.52988100  0.81791600  1
  C  1688  1  0.07800200  0.49470700  0.80677900  1
  C  1689  1  0.08427300  0.48648300  0.79583600  1
  C  1693  1  0.12040300  0.46934300  0.79496900  1
  C  1694  1  0.13149400  0.44538700  0.79426600  1
  C  1702  1  0.90854800  0.03192500  0.31703700  1
  C  1704  1  0.91347400  0.99679800  0.32803500  1
  C  1705  1  0.90996600  0.98316300  0.31794600  1
  C  1707  1  0.90454700  0.01834100  0.30680500  1
  C  1708  1  0.89842700  0.02658400  0.29584300  1
  C  1712  1  0.86222000  0.04352600  0.29485700  1
  C  1713  1  0.85100600  0.06742500  0.29414200  1
  C  1721  1  0.26608800  0.17238300  0.06748900  1
  C  1723  1  0.23066200  0.17712100  0.07829500  1
  C  1724  1  0.21723300  0.17361200  0.06813100  1
  C  1726  1  0.25273100  0.16845600  0.05715800  1
  C  1727  1  0.26125500  0.16247200  0.04621100  1
  C  1731  1  0.27908600  0.12676900  0.04517400  1
  C  1732  1  0.30330400  0.11614100  0.04461100  1
  C  1740  1  0.71640300  0.34054900  0.56749500  1
  C  1742  1  0.75182200  0.33575400  0.57830600  1
  C  1743  1  0.76525600  0.33926300  0.56813900  1
  C  1745  1  0.72976200  0.34450300  0.55717400  1
  C  1746  1  0.72124700  0.35051300  0.54624300  1
  C  1750  1  0.70294700  0.38600100  0.54533500  1
  C  1751  1  0.67861200  0.39632600  0.54463100  1
  C  1759  1  0.26707800  0.34076200  0.42158600  1
  C  1761  1  0.23188100  0.33600600  0.41057800  1
  C  1762  1  0.21823200  0.33929300  0.42069000  1
  C  1764  1  0.25348300  0.34450800  0.43184800  1
  C  1765  1  0.26179900  0.35045700  0.44282800  1
  C  1769  1  0.27858900  0.38666000  0.44386700  1
  C  1770  1  0.30247700  0.39794900  0.44468500  1
  C  1778  1  0.71546000  0.17218200  0.92155500  1
  C  1780  1  0.75064900  0.17692900  0.91053700  1
  C  1781  1  0.76430500  0.17368200  0.92064900  1
  C  1783  1  0.72906300  0.16844600  0.93181700  1
  C  1784  1  0.72080700  0.16250800  0.94281800  1
  C  1788  1  0.70440300  0.12614500  0.94405300  1
  C  1789  1  0.68061700  0.11459500  0.94465500  1
  C  1797  1  0.57475200  0.53065300  0.17151400  1
  C  1799  1  0.57023100  0.49539200  0.16058800  1
  C  1800  1  0.57355700  0.48188900  0.17073700  1
  C  1802  1  0.57853500  0.51722200  0.18182200  1
  C  1803  1  0.58436100  0.52560600  0.19281000  1
  C  1807  1  0.61942600  0.54479100  0.19383900  1
  C  1808  1  0.62906500  0.56935200  0.19467400  1
  C  1816  1  0.40764700  0.98221500  0.67153900  1
  C  1818  1  0.41214900  0.01746800  0.66060600  1
  C  1819  1  0.40886300  0.03097600  0.67075700  1
  C  1821  1  0.40396200  0.99564600  0.68185800  1
  C  1822  1  0.39817900  0.98726900  0.69286800  1
  C  1826  1  0.36291600  0.96847800  0.69399400  1
  C  1827  1  0.35302000  0.94400500  0.69471100  1
  C  1835  1  0.57530000  0.98143800  0.31696700  1
  C  1837  1  0.57095200  0.01647000  0.32810600  1
  C  1838  1  0.57390200  0.03018500  0.31800000  1
  C  1840  1  0.57872600  0.99509500  0.30670400  1
  C  1841  1  0.58437200  0.98696700  0.29564800  1
  C  1845  1  0.62004300  0.96892600  0.29446400  1
  C  1846  1  0.63044400  0.94469300  0.29351900  1
  C  1854  1  0.40716700  0.53142200  0.81698300  1
  C  1856  1  0.41152700  0.49638900  0.82812000  1
  C  1857  1  0.40856000  0.48267500  0.81801600  1
  C  1859  1  0.40370800  0.51776300  0.80672400  1
  C  1860  1  0.39810500  0.52590100  0.79566400  1
  C  1864  1  0.36243300  0.54393800  0.79445800  1
  C  1865  1  0.35203300  0.56817100  0.79350900  1
  C  1873  1  0.89960100  0.98194200  0.92294800  1
  C  1875  1  0.90684200  0.01634700  0.91192600  1
  C  1876  1  0.89982400  0.03005800  0.92150700  1
  C  1878  1  0.89246100  0.99549800  0.93267200  1
  C  1879  1  0.88501600  0.98611000  0.94324700  1
  C  1883  1  0.87101600  0.95112700  0.95038300  1
  C  1884  1  0.85384800  0.93213900  0.94697700  1
  C  1892  1  0.08172000  0.53111100  0.42278700  1
  C  1894  1  0.07958600  0.49663300  0.41128300  1
  C  1895  1  0.08193300  0.48298200  0.42146900  1
  C  1897  1  0.08398400  0.51759800  0.43312700  1
  C  1898  1  0.08670100  0.52599500  0.44445900  1
  C  1902  1  0.11747100  0.54997300  0.44869000  1
  C  1903  1  0.12339000  0.57560900  0.44997800  1
  C  1911  1  0.21700900  0.84756100  0.67301500  1
  C  1913  1  0.25149700  0.84526600  0.66147300  1
  C  1914  1  0.26523800  0.84766100  0.67163400  1
  C  1916  1  0.23060500  0.84984700  0.68333600  1
  C  1917  1  0.22218400  0.85266400  0.69466800  1
  C  1921  1  0.19813100  0.88327100  0.69899300  1
  C  1922  1  0.17243500  0.88909000  0.70035500  1
  C  1930  1  0.76529500  0.66411100  0.17317800  1
  C  1932  1  0.73089400  0.67158500  0.16214100  1
  C  1933  1  0.71708200  0.66449500  0.17167900  1
  C  1935  1  0.75164300  0.65689700  0.18286200  1
  C  1936  1  0.76097400  0.64932400  0.19342900  1
  C  1940  1  0.79609700  0.63555800  0.20056700  1
  C  1941  1  0.81523500  0.61854200  0.19716900  1
  C  1949  1  0.90015200  0.53203100  0.56638100  1
  C  1951  1  0.90255500  0.49711200  0.57751900  1
  C  1952  1  0.90046800  0.48385400  0.56718100  1
  C  1954  1  0.89811500  0.51887000  0.55591700  1
  C  1955  1  0.89564600  0.52763800  0.54468300  1
  C  1959  1  0.86247800  0.54675800  0.53903100  1
  C  1960  1  0.85256600  0.57118100  0.53798800  1
  C  1968  1  0.08229700  0.98080000  0.06639000  1
  C  1970  1  0.07980000  0.01573200  0.07751200  1
  C  1971  1  0.08204300  0.02898200  0.06718100  1
  C  1973  1  0.08448300  0.99394500  0.05592700  1
  C  1974  1  0.08705600  0.98516700  0.04468200  1
  C  1978  1  0.11987000  0.96573300  0.03879100  1
  C  1979  1  0.12966800  0.94123900  0.03790300  1
  C  1987  1  0.21636300  0.66471000  0.81641200  1
  C  1989  1  0.25117300  0.66754000  0.82767900  1
  C  1990  1  0.26465500  0.66510600  0.81742500  1
  C  1992  1  0.22973300  0.66231200  0.80602700  1
  C  1993  1  0.22113300  0.65945300  0.79477500  1
  C  1997  1  0.20133200  0.62672800  0.78912500  1
  C  1998  1  0.17667000  0.61732700  0.78805500  1
  C  2006  1  0.76610000  0.84822100  0.31639500  1
  C  2008  1  0.73129300  0.84537400  0.32766300  1
  C  2009  1  0.71781100  0.84778800  0.31740800  1
  C  2011  1  0.75273000  0.85060000  0.30600900  1
  C  2012  1  0.76132800  0.85345300  0.29475700  1
  C  2016  1  0.78111400  0.88618200  0.28910000  1
  C  2017  1  0.80577200  0.89559500  0.28803100  1
  C  2025  1  0.76665200  0.16493400  0.31638400  1
  C  2027  1  0.73194800  0.16792200  0.32772700  1
  C  2028  1  0.71837300  0.16511600  0.31753200  1
  C  2030  1  0.75319600  0.16216100  0.30604800  1
  C  2031  1  0.76169800  0.15903400  0.29477200  1
  C  2035  1  0.78237600  0.12713800  0.28871000  1
  C  2036  1  0.80726400  0.11829300  0.28776500  1
  C  2044  1  0.21588300  0.34791700  0.81637400  1
  C  2046  1  0.25057700  0.34513100  0.82773800  1
  C  2047  1  0.26416200  0.34767800  0.81752700  1
  C  2049  1  0.22935500  0.35043900  0.80602900  1
  C  2050  1  0.22086300  0.35334300  0.79475500  1
  C  2054  1  0.20050400  0.38554300  0.78883300  1
  C  2055  1  0.17569200  0.39452200  0.78771900  1
  C  2063  1  0.76709400  0.34770400  0.17234500  1
  C  2065  1  0.73203600  0.34500800  0.16127400  1
  C  2066  1  0.71879800  0.34734700  0.17161600  1
  C  2068  1  0.75395400  0.34998500  0.18281000  1
  C  2069  1  0.76287400  0.35265500  0.19400400  1
  C  2073  1  0.78133200  0.38549300  0.20054100  1
  C  2074  1  0.80552400  0.39609200  0.20147600  1
  C  2082  1  0.21539500  0.16517100  0.67236500  1
  C  2084  1  0.25046000  0.16795300  0.66130700  1
  C  2085  1  0.26368900  0.16550400  0.67164500  1
  C  2087  1  0.22852200  0.16276200  0.68282900  1
  C  2088  1  0.21964400  0.16004700  0.69404000  1
  C  2092  1  0.20105100  0.12730100  0.70064200  1
  C  2093  1  0.17687700  0.11659700  0.70135500  1
  C  2101  1  0.40018600  0.48240400  0.42225100  1
  C  2103  1  0.40301100  0.51704500  0.41089800  1
  C  2104  1  0.40027500  0.53061000  0.42109500  1
  C  2106  1  0.39747000  0.49585000  0.43258400  1
  C  2107  1  0.39445900  0.48736900  0.44384800  1
  C  2111  1  0.36232800  0.46690100  0.44982600  1
  C  2112  1  0.35342600  0.44210000  0.45091900  1
  C  2120  1  0.58243000  0.03044900  0.92229100  1
  C  2122  1  0.57941700  0.99581200  0.91094600  1
  C  2123  1  0.58235100  0.98224600  0.92112800  1
  C  2125  1  0.58533300  0.01700900  0.93261500  1
  C  2126  1  0.58854200  0.02548900  0.94388700  1
  C  2130  1  0.62037200  0.04635300  0.94992800  1
  C  2131  1  0.62906500  0.07125200  0.95086200  1
  C  2139  1  0.40011700  0.03082300  0.06675900  1
  C  2141  1  0.40301300  0.99595300  0.07791600  1
  C  2142  1  0.40042500  0.98259500  0.06763800  1
  C  2144  1  0.39753200  0.01757600  0.05634900  1
  C  2145  1  0.39467100  0.02629600  0.04513900  1
  C  2149  1  0.36196400  0.04513100  0.03859700  1
  C  2150  1  0.35160500  0.06939000  0.03769200  1
  C  2158  1  0.58230800  0.48206900  0.56677400  1
  C  2160  1  0.57939100  0.51692900  0.57794500  1
  C  2161  1  0.58198500  0.53029600  0.56766900  1
  C  2163  1  0.58489100  0.49532800  0.55637200  1
  C  2164  1  0.58776400  0.48662000  0.54515700  1
  C  2168  1  0.62046500  0.46775900  0.53863600  1
  C  2169  1  0.63079100  0.44348900  0.53771600  1
  C  2177  1  0.00279700  0.83352700  0.00563500  1
  C  2179  1  0.00487600  0.82999700  0.98457200  1
  C  2180  1  0.98089100  0.83278600  0.98348000  1
  C  2182  1  0.97865300  0.83686100  0.00461500  1
  C  2183  1  0.96374900  0.84044000  0.01390900  1
  C  2187  1  0.95953600  0.87371000  0.02485500  1
  C  2188  1  0.96987100  0.88606600  0.03559000  1
  C  2196  1  0.97970500  0.67913800  0.50557700  1
  C  2198  1  0.97758200  0.68242100  0.48450000  1
  C  2199  1  0.00159500  0.67986900  0.48341500  1
  C  2201  1  0.00387900  0.67605200  0.50456300  1
  C  2202  1  0.01879800  0.67270000  0.51385000  1
  C  2206  1  0.02278100  0.63947400  0.52484700  1
  C  2207  1  0.01285000  0.62753500  0.53580700  1
  C  2215  1  0.06880300  0.74490500  0.75558400  1
  C  2217  1  0.06547900  0.74305300  0.73450000  1
  C  2218  1  0.06805900  0.76702800  0.73348700  1
  C  2220  1  0.07188800  0.76904300  0.75464400  1
  C  2221  1  0.07532800  0.78378200  0.76399400  1
  C  2225  1  0.10862100  0.78778200  0.77495800  1
  C  2226  1  0.12064300  0.77783500  0.78589100  1
  C  2234  1  0.91382900  0.76812100  0.25561100  1
  C  2236  1  0.91724700  0.76989900  0.23453000  1
  C  2237  1  0.91461000  0.74592700  0.23353400  1
  C  2239  1  0.91064200  0.74399000  0.25468700  1
  C  2240  1  0.90719700  0.72923000  0.26404100  1
  C  2244  1  0.87386000  0.72501200  0.27497800  1
  C  2245  1  0.86142400  0.73538500  0.28568500  1
  C  2253  1  0.97947700  0.17668000  0.98323900  1
  C  2255  1  0.97744600  0.17926100  0.00434300  1
  C  2256  1  0.00152500  0.17729500  0.00535400  1
  C  2258  1  0.00373300  0.17415900  0.98417400  1
  C  2259  1  0.01865400  0.17135100  0.97483400  1
  C  2263  1  0.02230100  0.13845200  0.96355800  1
  C  2264  1  0.01259600  0.12716900  0.95236600  1
  C  2272  1  0.00305500  0.33622700  0.48324800  1
  C  2274  1  0.00505000  0.33351200  0.50434300  1
  C  2275  1  0.98098500  0.33563400  0.50535100  1
  C  2277  1  0.97881200  0.33889400  0.48418000  1
  C  2278  1  0.96390000  0.34182400  0.47482700  1
  C  2282  1  0.95982300  0.37480800  0.46365400  1
  C  2283  1  0.96991700  0.38664600  0.45270500  1
  C  2291  1  0.91373300  0.26769100  0.23305200  1
  C  2293  1  0.91584600  0.27009200  0.25415500  1
  C  2294  1  0.91423700  0.24605100  0.25525400  1
  C  2296  1  0.91151900  0.24346300  0.23407700  1
  C  2297  1  0.90895800  0.22839500  0.22479100  1
  C  2301  1  0.87604200  0.22495000  0.21346100  1
  C  2302  1  0.86509000  0.23431600  0.20210800  1
  C  2310  1  0.06876200  0.24526200  0.73304500  1
  C  2312  1  0.06666600  0.24289100  0.75415000  1
  C  2313  1  0.06829400  0.26693400  0.75523900  1
  C  2315  1  0.07098700  0.26949100  0.73406200  1
  C  2316  1  0.07354400  0.28454600  0.72476900  1
  C  2320  1  0.10646800  0.28798800  0.71344600  1
  C  2321  1  0.11743800  0.27860700  0.70209900  1
  C  2329  1  0.50264500  0.33551900  0.50575700  1
  C  2331  1  0.50520700  0.33302700  0.48467200  1
  C  2332  1  0.48115800  0.33502800  0.48350800  1
  C  2334  1  0.47842200  0.33814800  0.50466300  1
  C  2335  1  0.46327500  0.34111500  0.51391500  1
  C  2339  1  0.45951300  0.37431700  0.52494700  1
  C  2340  1  0.46934600  0.38600400  0.53600100  1
  C  2348  1  0.47989400  0.17728400  0.00574900  1
  C  2350  1  0.47729700  0.17967700  0.98466400  1
  C  2351  1  0.50135700  0.17783000  0.98349700  1
  C  2353  1  0.50413400  0.17483700  0.00465900  1
  C  2354  1  0.51929400  0.17201600  0.01389100  1
  C  2358  1  0.52272100  0.13896300  0.02507500  1
  C  2359  1  0.51331300  0.12783200  0.03637300  1
  C  2367  1  0.57107700  0.24482900  0.25556300  1
  C  2369  1  0.56855100  0.24268600  0.23446500  1
  C  2370  1  0.57039100  0.26672100  0.23342500  1
  C  2372  1  0.57343100  0.26904800  0.25460100  1
  C  2373  1  0.57617900  0.28396700  0.26394400  1
  C  2377  1  0.60904100  0.28788500  0.27524700  1
  C  2378  1  0.62030300  0.27839100  0.28649400  1
  C  2386  1  0.41152200  0.26805800  0.75556700  1
  C  2388  1  0.41409100  0.27017700  0.73447100  1
  C  2389  1  0.41219200  0.24614500  0.73343500  1
  C  2391  1  0.40905200  0.24384600  0.75461000  1
  C  2392  1  0.40630100  0.22888900  0.76394700  1
  C  2396  1  0.37339900  0.22467900  0.77522000  1
  C  2397  1  0.36168500  0.23461100  0.78624500  1
  C  2405  1  0.48003000  0.67702500  0.48303600  1
  C  2407  1  0.47758300  0.67827300  0.50415500  1
  C  2408  1  0.50170900  0.67732700  0.50523400  1
  C  2410  1  0.50436400  0.67550800  0.48403400  1
  C  2411  1  0.51954200  0.67369400  0.47472800  1
  C  2415  1  0.52283500  0.64137400  0.46299900  1
  C  2416  1  0.51391700  0.63130000  0.45134400  1
  C  2424  1  0.50252600  0.83575900  0.98303400  1
  C  2426  1  0.50490100  0.83433400  0.00414900  1
  C  2427  1  0.48078300  0.83551900  0.00521300  1
  C  2429  1  0.47820300  0.83750300  0.98401700  1
  C  2430  1  0.46305900  0.83950100  0.97469000  1
  C  2434  1  0.45929600  0.87206300  0.96317600  1
  C  2435  1  0.46873200  0.88289600  0.95180800  1
  C  2443  1  0.41169700  0.76777600  0.73310200  1
  C  2445  1  0.41294900  0.76992900  0.75423100  1
  C  2446  1  0.41195000  0.74583800  0.75522700  1
  C  2448  1  0.41011500  0.74348200  0.73401600  1
  C  2449  1  0.40826100  0.72846300  0.72465800  1
  C  2453  1  0.37586300  0.72529000  0.71293100  1
  C  2454  1  0.36572300  0.73435800  0.70131900  1
  C  2462  1  0.57067100  0.74504900  0.23310300  1
  C  2464  1  0.56940000  0.74291000  0.25423200  1
  C  2465  1  0.57046700  0.76699900  0.25522500  1
  C  2467  1  0.57230700  0.76934200  0.23401500  1
  C  2468  1  0.57419100  0.78435200  0.22465500  1
  C  2472  1  0.60659800  0.78747700  0.21293000  1
  C  2473  1  0.61673100  0.77838600  0.20132300  1
  C  2481  1  0.97254700  0.76141400  0.87889200  1
  C  2483  1  0.00182100  0.76059800  0.86379600  1
  C  2484  1  0.99946000  0.73660700  0.86222500  1
  C  2486  1  0.97001500  0.73727800  0.87742000  1
  C  2487  1  0.95470800  0.72361300  0.88360200  1
  C  2491  1  0.91529900  0.72836200  0.88176900  1
  C  2492  1  0.89500900  0.74090800  0.88762800  1
  C  2500  1  0.00999200  0.75171100  0.37887000  1
  C  2502  1  0.98059100  0.75253300  0.36383900  1
  C  2503  1  0.98304800  0.77650000  0.36221100  1
  C  2505  1  0.01262500  0.77581900  0.37733300  1
  C  2506  1  0.02803800  0.78943700  0.38344100  1
  C  2510  1  0.06741200  0.78441500  0.38160700  1
  C  2511  1  0.08769400  0.77202600  0.38756200  1
  C  2519  1  0.99628200  0.77562000  0.62906900  1
  C  2521  1  0.99561800  0.74632400  0.61401400  1
  C  2522  1  0.97158800  0.74864400  0.61239200  1
  C  2524  1  0.97210800  0.77809600  0.62754800  1
  C  2525  1  0.95842300  0.79341500  0.63368300  1
  C  2529  1  0.96303800  0.83272400  0.63176900  1
  C  2530  1  0.97523700  0.85312900  0.63769300  1
  C  2538  1  0.98603400  0.73723800  0.12914200  1
  C  2540  1  0.98672300  0.76648100  0.11406200  1
  C  2541  1  0.01076400  0.76419800  0.11247000  1
  C  2543  1  0.01022400  0.73479100  0.12765500  1
  C  2544  1  0.02397600  0.71954400  0.13382100  1
  C  2548  1  0.01922800  0.68022200  0.13193500  1
  C  2549  1  0.00673400  0.65992700  0.13779600  1
  C  2557  1  0.01028600  0.24954000  0.10972700  1
  C  2559  1  0.98083300  0.25039800  0.12472500  1
  C  2560  1  0.98337400  0.27435000  0.12638000  1
  C  2562  1  0.01301400  0.27362200  0.11130100  1
  C  2563  1  0.02842800  0.28720200  0.10519900  1
  C  2567  1  0.06791100  0.28380200  0.10733600  1
  C  2568  1  0.08872400  0.27144100  0.10186700  1
  C  2576  1  0.97225600  0.26334200  0.60971500  1
  C  2578  1  0.00166900  0.26249400  0.62473000  1
  C  2579  1  0.99912300  0.23854300  0.62638600  1
  C  2581  1  0.96951600  0.23926000  0.61129200  1
  C  2582  1  0.95411300  0.22565000  0.60515900  1
  C  2586  1  0.91460300  0.22870900  0.60729500  1
  C  2587  1  0.89377000  0.24127500  0.60196800  1
  C  2595  1  0.98638400  0.23896500  0.36012800  1
  C  2597  1  0.98714000  0.26867600  0.37495500  1
  C  2598  1  0.01108300  0.26598500  0.37677200  1
  C  2600  1  0.01045000  0.23608000  0.36187300  1
  C  2601  1  0.02408600  0.22055200  0.35589400  1
  C  2605  1  0.02216900  0.18106700  0.35809100  1
  C  2606  1  0.00981700  0.15991600  0.35299300  1
  C  2614  1  0.99612700  0.27409600  0.86009100  1
  C  2616  1  0.99537400  0.24441000  0.87493000  1
  C  2617  1  0.97142500  0.24708100  0.87673500  1
  C  2619  1  0.97205400  0.27695300  0.86182000  1
  C  2620  1  0.95841500  0.29245900  0.85582700  1
  C  2624  1  0.96030000  0.33194400  0.85803300  1
  C  2625  1  0.97263900  0.35310800  0.85294200  1
  C  2633  1  0.47422600  0.26258300  0.37859300  1
  C  2635  1  0.50398200  0.26153100  0.36376200  1
  C  2636  1  0.50114800  0.23763800  0.36199200  1
  C  2638  1  0.47119100  0.23856700  0.37689700  1
  C  2639  1  0.45556100  0.22506300  0.38292600  1
  C  2643  1  0.41596000  0.22663000  0.38082300  1
  C  2644  1  0.39480900  0.23933000  0.38572200  1
  C  2652  1  0.50830700  0.25032400  0.87861300  1
  C  2654  1  0.47854900  0.25136300  0.86378200  1
  C  2655  1  0.48136100  0.27526100  0.86201800  1
  C  2657  1  0.51132500  0.27434100  0.87691700  1
  C  2658  1  0.52695800  0.28782000  0.88292500  1
  C  2662  1  0.56652300  0.28572300  0.88077200  1
  C  2663  1  0.58762700  0.27324100  0.88586700  1
  C  2671  1  0.49813900  0.27455700  0.12906000  1
  C  2673  1  0.49743800  0.24505000  0.11411400  1
  C  2674  1  0.47342500  0.24744500  0.11245300  1
  C  2676  1  0.47399400  0.27712500  0.12748000  1
  C  2677  1  0.46034200  0.29251900  0.13356900  1
  C  2681  1  0.46319500  0.33192800  0.13137500  1
  C  2682  1  0.47536100  0.35287800  0.13679700  1
  C  2690  1  0.48435100  0.23832500  0.62907800  1
  C  2692  1  0.48505800  0.26780700  0.61412100  1
  C  2693  1  0.50907300  0.26541700  0.61246300  1
  C  2695  1  0.50850200  0.23574700  0.62750200  1
  C  2696  1  0.52222200  0.22040900  0.63360600  1
  C  2700  1  0.51940900  0.18097200  0.63140600  1
  C  2701  1  0.50694200  0.16007100  0.63669600  1
  C  2709  1  0.50881100  0.75005700  0.61012000  1
  C  2711  1  0.47927300  0.75087400  0.62506400  1
  C  2712  1  0.48187500  0.77480800  0.62677400  1
  C  2714  1  0.51161800  0.77410800  0.61176900  1
  C  2715  1  0.52696500  0.78770500  0.60564900  1
  C  2719  1  0.56661100  0.78711100  0.60766300  1
  C  2720  1  0.58804100  0.77488700  0.60276100  1
  C  2728  1  0.47359500  0.76284100  0.11006100  1
  C  2730  1  0.50311900  0.76199500  0.12501200  1
  C  2731  1  0.50045000  0.73807200  0.12674100  1
  C  2733  1  0.47071300  0.73880200  0.11173200  1
  C  2734  1  0.45533400  0.72519900  0.10560300  1
  C  2738  1  0.41566900  0.72546900  0.10754700  1
  C  2739  1  0.39424400  0.73796100  0.10282500  1
  C  2747  1  0.48452300  0.73847100  0.85997300  1
  C  2749  1  0.48524700  0.76816100  0.87480800  1
  C  2750  1  0.50919300  0.76549700  0.87661700  1
  C  2752  1  0.50858800  0.73559900  0.86172100  1
  C  2753  1  0.52223800  0.72014100  0.85570800  1
  C  2757  1  0.52139000  0.68059100  0.85779300  1
  C  2758  1  0.50910700  0.65923700  0.85287800  1
  C  2766  1  0.49797700  0.77437700  0.35997100  1
  C  2768  1  0.49727100  0.74469000  0.37480800  1
  C  2769  1  0.47332300  0.74734700  0.37661800  1
  C  2771  1  0.47391100  0.77723800  0.36171900  1
  C  2772  1  0.46025400  0.79269600  0.35571000  1
  C  2776  1  0.46111200  0.83224500  0.35780400  1
  C  2777  1  0.47338900  0.85360200  0.35288900  1
  N  1570  1  0.72867000  0.83535500  0.91120900  1
  N  1573  1  0.75363300  0.84185000  0.93068100  1
  N  1586  1  0.69361600  0.84050300  0.92049800  1
  N  1587  1  0.78880800  0.83734100  0.91997300  1
  N  1589  1  0.25391100  0.67763300  0.41117900  1
  N  1592  1  0.22889900  0.67107700  0.43062900  1
  N  1605  1  0.28893600  0.67239300  0.42048200  1
  N  1606  1  0.19375200  0.67570400  0.41991100  1
  N  1608  1  0.06913700  0.01935500  0.66132800  1
  N  1611  1  0.07638700  0.99453000  0.68077000  1
  N  1624  1  0.07433600  0.05442100  0.67055900  1
  N  1625  1  0.07163400  0.95936200  0.67012500  1
  N  1627  1  0.91337900  0.49357500  0.16139200  1
  N  1630  1  0.90593300  0.51834500  0.18082900  1
  N  1643  1  0.90813900  0.45848700  0.17058600  1
  N  1644  1  0.91072200  0.55354200  0.17021400  1
  N  1646  1  0.72774400  0.67677500  0.57728600  1
  N  1649  1  0.75307700  0.67068200  0.55790000  1
  N  1662  1  0.69285100  0.67176800  0.56783600  1
  N  1663  1  0.78803900  0.67550100  0.56877300  1
  N  1665  1  0.25469700  0.83612800  0.07731000  1
  N  1668  1  0.22932000  0.84220300  0.05794000  1
  N  1681  1  0.28957100  0.84111400  0.06784000  1
  N  1682  1  0.19438300  0.83737300  0.06882500  1
  N  1684  1  0.06987000  0.49290700  0.82714500  1
  N  1687  1  0.07707300  0.51808900  0.80782000  1
  N  1700  1  0.07508500  0.45799400  0.81779500  1
  N  1701  1  0.07190400  0.55305800  0.81860600  1
  N  1703  1  0.91251500  0.02013100  0.32718600  1
  N  1706  1  0.90547200  0.99496100  0.30783900  1
  N  1719  1  0.90739600  0.05504900  0.31782600  1
  N  1720  1  0.91053100  0.95998600  0.31863200  1
  N  1722  1  0.25406100  0.17624400  0.07758200  1
  N  1725  1  0.22928100  0.16924400  0.05808100  1
  N  1738  1  0.28923500  0.17129300  0.06836800  1
  N  1739  1  0.19399700  0.17388400  0.06870200  1
  N  1741  1  0.72842500  0.33665500  0.57758700  1
  N  1744  1  0.75321000  0.34367900  0.55809500  1
  N  1757  1  0.69325700  0.34167300  0.56837600  1
  N  1758  1  0.78848900  0.33898000  0.56870600  1
  N  1760  1  0.25525900  0.33697200  0.41142200  1
  N  1763  1  0.23005500  0.34359200  0.43081600  1
  N  1776  1  0.29024500  0.34192000  0.42080600  1
  N  1777  1  0.19501500  0.33870400  0.42000800  1
  N  1779  1  0.72727200  0.17594900  0.91138600  1
  N  1782  1  0.75248900  0.16938300  0.93077800  1
  N  1795  1  0.69229500  0.17099800  0.92077100  1
  N  1796  1  0.78752100  0.17428900  0.91996500  1
  N  1798  1  0.57108900  0.51873900  0.16137100  1
  N  1801  1  0.57776500  0.49382700  0.18083000  1
  N  1814  1  0.57594700  0.55376000  0.17068100  1
  N  1815  1  0.57334400  0.45869900  0.17011400  1
  N  1817  1  0.41128600  0.99412200  0.66139400  1
  N  1820  1  0.40471900  0.01904300  0.68085900  1
  N  1833  1  0.40648100  0.95910400  0.67071100  1
  N  1834  1  0.40908800  0.05416500  0.67013100  1
  N  1836  1  0.57188000  0.99314500  0.32719400  1
  N  1839  1  0.57786800  0.01846800  0.30781300  1
  N  1852  1  0.57654000  0.95831600  0.31769900  1
  N  1853  1  0.57340900  0.05335500  0.31873800  1
  N  1855  1  0.41060000  0.51971400  0.82720800  1
  N  1858  1  0.40458500  0.49439100  0.80782900  1
  N  1871  1  0.40592200  0.55454500  0.81771400  1
  N  1872  1  0.40906900  0.45950400  0.81875300  1
  N  1874  1  0.90652900  0.99315400  0.91304600  1
  N  1877  1  0.89309100  0.01879800  0.93137600  1
  N  1890  1  0.90020100  0.95904700  0.92355400  1
  N  1891  1  0.89956500  0.05292800  0.92187000  1
  N  1893  1  0.07953600  0.51983600  0.41235200  1
  N  1896  1  0.08402200  0.49431900  0.43185000  1
  N  1909  1  0.08113500  0.55398000  0.42323500  1
  N  1910  1  0.08212400  0.46010700  0.42188600  1
  N  1912  1  0.22825400  0.84528100  0.66257100  1
  N  1915  1  0.25393000  0.84984100  0.68202600  1
  N  1928  1  0.19409200  0.84702500  0.67348600  1
  N  1929  1  0.28817300  0.84777300  0.67201400  1
  N  1931  1  0.75412400  0.67119000  0.16328900  1
  N  1934  1  0.72830200  0.65761700  0.18153900  1
  N  1947  1  0.78823700  0.66466300  0.17380900  1
  N  1948  1  0.69415600  0.66431800  0.17200700  1
  N  1950  1  0.90235800  0.52036300  0.57670300  1
  N  1953  1  0.89841000  0.49556000  0.55690800  1
  N  1966  1  0.90035900  0.55492700  0.56611900  1
  N  1967  1  0.90064900  0.46100600  0.56651500  1
  N  1969  1  0.07998100  0.99248100  0.07670300  1
  N  1972  1  0.08421100  0.01725800  0.05692000  1
  N  1985  1  0.08206500  0.95790300  0.06614400  1
  N  1986  1  0.08187300  0.05183100  0.06651300  1
  N  1988  1  0.22789300  0.66728600  0.82675900  1
  N  1991  1  0.25308000  0.66264800  0.80712600  1
  N  2004  1  0.19341400  0.66491700  0.81607100  1
  N  2005  1  0.28758100  0.66523600  0.81687000  1
  N  2007  1  0.75457300  0.84564700  0.32674300  1
  N  2010  1  0.72938200  0.85024600  0.30710800  1
  N  2023  1  0.78905000  0.84803500  0.31605500  1
  N  2024  1  0.69488500  0.84764600  0.31685300  1
  N  2026  1  0.75521600  0.16776100  0.32674000  1
  N  2029  1  0.72985500  0.16240100  0.30722200  1
  N  2042  1  0.78959500  0.16530200  0.31599200  1
  N  2043  1  0.69544000  0.16511500  0.31704400  1
  N  2045  1  0.22730800  0.34531000  0.82674800  1
  N  2048  1  0.25269200  0.35018200  0.80720100  1
  N  2061  1  0.19294000  0.34758700  0.81597100  1
  N  2062  1  0.28709300  0.34766100  0.81704300  1
  N  2064  1  0.75533800  0.34524100  0.16205800  1
  N  2067  1  0.73058800  0.34965000  0.18186100  1
  N  2080  1  0.79004700  0.34751800  0.17257700  1
  N  2081  1  0.69589600  0.34712200  0.17229900  1
  N  2083  1  0.22715900  0.16773400  0.66208600  1
  N  2086  1  0.25188900  0.16311200  0.68188100  1
  N  2099  1  0.19244300  0.16538200  0.67258700  1
  N  2100  1  0.28659100  0.16574400  0.67233500  1
  N  2102  1  0.40289900  0.49382200  0.41188800  1
  N  2105  1  0.39766800  0.51914400  0.43141300  1
  N  2118  1  0.40060000  0.45949700  0.42265100  1
  N  2119  1  0.40023700  0.55351100  0.42157300  1
  N  2121  1  0.57953800  0.01903400  0.91193900  1
  N  2124  1  0.58513500  0.99371200  0.93143300  1
  N  2137  1  0.58201000  0.05335500  0.92268400  1
  N  2138  1  0.58238700  0.95934400  0.92160500  1
  N  2140  1  0.40279800  0.01919800  0.07706400  1
  N  2143  1  0.39786100  0.99426100  0.05737800  1
  N  2156  1  0.40035400  0.05374100  0.06646900  1
  N  2157  1  0.40053000  0.95970500  0.06703200  1
  N  2159  1  0.57961500  0.49368400  0.57708200  1
  N  2162  1  0.58455700  0.51864100  0.55740500  1
  N  2175  1  0.58206900  0.45915100  0.56648000  1
  N  2176  1  0.58187600  0.55318700  0.56707200  1
  N  2178  1  0.01472300  0.83039100  0.99543600  1
  N  2181  1  0.96904000  0.83619300  0.99366900  1
  N  2194  1  0.01355400  0.83438600  0.01608000  1
  N  2195  1  0.97085900  0.83276900  0.97284200  1
  N  2197  1  0.96774400  0.68204500  0.49536500  1
  N  2200  1  0.01348300  0.67669200  0.49361400  1
  N  2213  1  0.96895100  0.67830000  0.51601800  1
  N  2214  1  0.01162100  0.67983800  0.47277500  1
  N  2216  1  0.06587300  0.73309900  0.74533300  1
  N  2219  1  0.07125700  0.77876500  0.74372400  1
  N  2232  1  0.06967900  0.73404800  0.76599400  1
  N  2233  1  0.06808500  0.77716400  0.72287800  1
  N  2235  1  0.91684200  0.77988800  0.24535500  1
  N  2238  1  0.91132000  0.73423500  0.24377600  1
  N  2251  1  0.91295300  0.77900400  0.26601200  1
  N  2252  1  0.91461600  0.73575900  0.22293300  1
  N  2254  1  0.96752900  0.17896300  0.99349300  1
  N  2257  1  0.01341100  0.17469600  0.99511100  1
  N  2270  1  0.96858700  0.17575700  0.97284100  1
  N  2271  1  0.01161200  0.17697400  0.01596600  1
  N  2273  1  0.01497900  0.33380900  0.49350200  1
  N  2276  1  0.96912100  0.33835400  0.49511300  1
  N  2289  1  0.01394100  0.33712700  0.47284900  1
  N  2290  1  0.97088900  0.33592700  0.51596000  1
  N  2292  1  0.91562900  0.27980900  0.24326900  1
  N  2295  1  0.91196500  0.23398400  0.24505800  1
  N  2308  1  0.91278700  0.27842600  0.22261700  1
  N  2309  1  0.91356500  0.23614200  0.26589100  1
  N  2311  1  0.06687200  0.23315900  0.74326700  1
  N  2314  1  0.07055400  0.27898500  0.74503800  1
  N  2327  1  0.06970800  0.23451300  0.72261400  1
  N  2328  1  0.06895700  0.27685900  0.76587300  1
  N  2330  1  0.51484700  0.33325000  0.49558000  1
  N  2333  1  0.46901400  0.33768100  0.49366200  1
  N  2346  1  0.51329600  0.33644400  0.51622000  1
  N  2347  1  0.47134400  0.33569000  0.47284500  1
  N  2349  1  0.46766900  0.17943300  0.99557700  1
  N  2352  1  0.51352600  0.17531700  0.99365100  1
  N  2365  1  0.46924900  0.17635600  0.01622100  1
  N  2366  1  0.51116500  0.17720500  0.97283000  1
  N  2368  1  0.56889000  0.23284100  0.24532100  1
  N  2371  1  0.57288600  0.27865000  0.24365100  1
  N  2384  1  0.57206400  0.23402000  0.26597500  1
  N  2385  1  0.57068500  0.27674000  0.22280300  1
  N  2387  1  0.41376600  0.28003000  0.74532400  1
  N  2390  1  0.40961800  0.23423500  0.74366300  1
  N  2403  1  0.41055200  0.27887500  0.76597700  1
  N  2404  1  0.41189800  0.23611800  0.72281500  1
  N  2406  1  0.46784800  0.67817000  0.49326900  1
  N  2409  1  0.51384600  0.67579800  0.49502000  1
  N  2422  1  0.46925100  0.67606900  0.47260900  1
  N  2423  1  0.51167400  0.67643600  0.51585600  1
  N  2425  1  0.51467000  0.83441800  0.99327300  1
  N  2428  1  0.46868400  0.83722300  0.99499600  1
  N  2441  1  0.51331700  0.83667800  0.97261000  1
  N  2442  1  0.47079500  0.83639600  0.01583400  1
  N  2444  1  0.41287000  0.77979300  0.74337900  1
  N  2447  1  0.41038500  0.73386800  0.74496900  1
  N  2460  1  0.41077000  0.77867300  0.72271100  1
  N  2461  1  0.41103700  0.73574900  0.76581300  1
  N  2463  1  0.56946200  0.73304000  0.24338100  1
  N  2466  1  0.57205200  0.77896300  0.24496600  1
  N  2479  1  0.57158400  0.73414600  0.22271400  1
  N  2480  1  0.57137100  0.77709400  0.26581100  1
  N  2482  1  0.98859000  0.77170800  0.87188800  1
  N  2485  1  0.98349100  0.72640700  0.86925600  1
  N  2498  1  0.96016300  0.77352100  0.88687000  1
  N  2499  1  0.01163600  0.72319300  0.85472700  1
  N  2501  1  0.99384200  0.74143100  0.37192700  1
  N  2504  1  0.99912800  0.78668900  0.36918100  1
  N  2517  1  0.02239100  0.73961500  0.38684500  1
  N  2518  1  0.97088200  0.78990000  0.35470400  1
  N  2520  1  0.00667300  0.75958800  0.62210700  1
  N  2523  1  0.96128800  0.76460500  0.61937800  1
  N  2536  1  0.00832800  0.78804700  0.63705200  1
  N  2537  1  0.95822900  0.73646300  0.60487000  1
  N  2539  1  0.97565100  0.75322600  0.12215200  1
  N  2542  1  0.02105300  0.74828400  0.11948600  1
  N  2555  1  0.97395700  0.72482200  0.13711900  1
  N  2556  1  0.02414700  0.77638800  0.10496200  1
  N  2558  1  0.99406700  0.23928100  0.11663800  1
  N  2561  1  0.99952800  0.28452000  0.11945100  1
  N  2574  1  0.02263200  0.23749100  0.10172600  1
  N  2575  1  0.97129200  0.28774500  0.13391900  1
  N  2577  1  0.98845300  0.27360800  0.61663400  1
  N  2580  1  0.98298400  0.22837100  0.61944600  1
  N  2593  1  0.95992300  0.27539300  0.60170500  1
  N  2594  1  0.01118700  0.22515400  0.63393400  1
  N  2596  1  0.97606900  0.25538500  0.36687400  1
  N  2599  1  0.02130600  0.24964500  0.36999000  1
  N  2612  1  0.97444500  0.22656500  0.35210600  1
  N  2613  1  0.02445400  0.27815100  0.38429300  1
  N  2615  1  0.00644600  0.25769700  0.86684900  1
  N  2618  1  0.96119800  0.26339500  0.86993800  1
  N  2631  1  0.00806800  0.28648800  0.85206700  1
  N  2632  1  0.95805500  0.23491600  0.88425600  1
  N  2634  1  0.49073600  0.27272600  0.37182200  1
  N  2637  1  0.48471900  0.22759100  0.36880100  1
  N  2650  1  0.46186500  0.27462800  0.38659100  1
  N  2651  1  0.51327900  0.22415200  0.35450600  1
  N  2653  1  0.49180400  0.24017500  0.87184000  1
  N  2656  1  0.49779200  0.28531300  0.86882300  1
  N  2669  1  0.52068000  0.23827500  0.88660700  1
  N  2670  1  0.46924800  0.28873500  0.85452100  1
  N  2672  1  0.50850800  0.25838000  0.12218000  1
  N  2675  1  0.46315000  0.26356300  0.11935500  1
  N  2688  1  0.51013500  0.28701900  0.13704600  1
  N  2689  1  0.46007000  0.23527800  0.10492600  1
  N  2691  1  0.47398500  0.25449100  0.62218900  1
  N  2694  1  0.51934400  0.24931400  0.61937600  1
  N  2707  1  0.47234300  0.22588400  0.63706600  1
  N  2708  1  0.52243600  0.27759100  0.60494100  1
  N  2710  1  0.49251900  0.73977000  0.61697000  1
  N  2713  1  0.49809800  0.78499700  0.61989200  1
  N  2726  1  0.52118600  0.73812200  0.60209100  1
  N  2727  1  0.46977900  0.78819600  0.63430900  1
  N  2729  1  0.48990600  0.77310900  0.11691000  1
  N  2732  1  0.48420500  0.72790400  0.11986500  1
  N  2745  1  0.46124300  0.77478900  0.10203400  1
  N  2746  1  0.51251500  0.72467700  0.13428600  1
  N  2748  1  0.47418500  0.75486900  0.86672500  1
  N  2751  1  0.51943500  0.74916800  0.86983400  1
  N  2764  1  0.47262300  0.72606100  0.85194600  1
  N  2765  1  0.52254400  0.77762200  0.88415800  1
  N  2767  1  0.50832400  0.75798600  0.36672200  1
  N  2770  1  0.46307300  0.76367000  0.36983600  1
  N  2783  1  0.50987000  0.78679000  0.35194300  1
  N  2784  1  0.45998100  0.73522200  0.38416300  1
  O  1577  1  0.72610100  0.83512000  0.95057000  1
  O  1578  1  0.70149200  0.85919800  0.94363600  1
  O  1596  1  0.25641500  0.67754700  0.45058900  1
  O  1597  1  0.28110200  0.65383600  0.44368700  1
  O  1615  1  0.06933000  0.02304900  0.70042400  1
  O  1616  1  0.09450800  0.04641300  0.69356600  1
  O  1634  1  0.91255000  0.49002000  0.20061100  1
  O  1635  1  0.88771400  0.46644100  0.19342200  1
  O  1653  1  0.72525000  0.67782500  0.53797000  1
  O  1654  1  0.70138000  0.65302600  0.54461400  1
  O  1672  1  0.25705300  0.83492500  0.03803500  1
  O  1673  1  0.28089200  0.86004400  0.04470800  1
  O  1691  1  0.07033100  0.48951200  0.78794700  1
  O  1692  1  0.09580000  0.46669700  0.79491500  1
  O  1710  1  0.91254200  0.02369100  0.28802200  1
  O  1711  1  0.88680800  0.04631000  0.29490300  1
  O  1729  1  0.25774600  0.17637100  0.03836900  1
  O  1730  1  0.28130800  0.15136100  0.04541100  1
  O  1748  1  0.72478600  0.33680600  0.53831300  1
  O  1749  1  0.70106200  0.36137500  0.54532600  1
  O  1767  1  0.25897900  0.33588800  0.45042700  1
  O  1768  1  0.28147100  0.36213200  0.44386200  1
  O  1786  1  0.72361100  0.17692000  0.95048600  1
  O  1787  1  0.70121200  0.15062300  0.94368100  1
  O  1805  1  0.57080500  0.52144900  0.20074200  1
  O  1806  1  0.59471000  0.54599400  0.19388300  1
  O  1824  1  0.41189500  0.99146700  0.70071800  1
  O  1825  1  0.38761400  0.96698700  0.69385000  1
  O  1843  1  0.57026400  0.99058600  0.28790100  1
  O  1844  1  0.59537700  0.96694600  0.29446000  1
  O  1862  1  0.41224400  0.52229500  0.78793200  1
  O  1863  1  0.38709800  0.54592100  0.79447200  1
  O  1881  1  0.88333200  0.99896900  0.95172500  1
  O  1882  1  0.86863200  0.97003000  0.94229000  1
  O  1900  1  0.07309100  0.51901700  0.45183400  1
  O  1901  1  0.09328800  0.54773800  0.44621400  1
  O  1919  1  0.22938400  0.83899300  0.70195300  1
  O  1920  1  0.20041900  0.85915700  0.69647800  1
  O  1938  1  0.74801500  0.64742700  0.20186500  1
  O  1939  1  0.77719700  0.63308300  0.19245700  1
  O  1957  1  0.91154600  0.52392900  0.53791400  1
  O  1958  1  0.88581800  0.54819500  0.54319100  1
  O  1976  1  0.07128700  0.98926100  0.03789400  1
  O  1977  1  0.09678400  0.96454600  0.04331900  1
  O  1995  1  0.22542500  0.67481600  0.78779200  1
  O  1996  1  0.20034800  0.65005100  0.79327500  1
  O  2014  1  0.75704300  0.83807900  0.28777700  1
  O  2015  1  0.78211000  0.86286100  0.29325300  1
  O  2033  1  0.75658900  0.17391700  0.28766400  1
  O  2034  1  0.78270500  0.15010300  0.29337200  1
  O  2052  1  0.22558700  0.33822000  0.78770500  1
  O  2053  1  0.19992200  0.36236700  0.79321200  1
  O  2071  1  0.75968600  0.33633900  0.20056900  1
  O  2072  1  0.78320700  0.36297100  0.19542600  1
  O  2090  1  0.22289700  0.17616000  0.70071500  1
  O  2091  1  0.19930800  0.14961000  0.69528100  1
  O  2109  1  0.40949900  0.49215700  0.45094900  1
  O  2110  1  0.38549200  0.46642800  0.44536300  1
  O  2128  1  0.57376800  0.02025000  0.95104500  1
  O  2129  1  0.59735000  0.04651600  0.94527800  1
  O  2147  1  0.41054800  0.02291100  0.03830700  1
  O  2148  1  0.38451700  0.04672700  0.04375800  1
  O  2166  1  0.57190900  0.49004300  0.53831800  1
  O  2167  1  0.59789300  0.46617900  0.54377200  1
  O  2185  1  0.95140600  0.82412000  0.01630000  1
  O  2186  1  0.97142900  0.85229100  0.02318400  1
  O  2204  1  0.03130700  0.68892700  0.51620000  1
  O  2205  1  0.01137800  0.66119700  0.52329900  1
  O  2223  1  0.05883700  0.79601500  0.76628800  1
  O  2224  1  0.08687700  0.77636300  0.77341400  1
  O  2242  1  0.92365600  0.71708300  0.26647200  1
  O  2243  1  0.89528200  0.73694300  0.27328800  1
  O  2261  1  0.03124300  0.18765500  0.97275100  1
  O  2262  1  0.01133200  0.16036900  0.96520400  1
  O  2280  1  0.95162300  0.32532300  0.47268500  1
  O  2281  1  0.97141400  0.35324000  0.46537900  1
  O  2299  1  0.92528900  0.21570200  0.22291300  1
  O  2300  1  0.89823500  0.23547200  0.21503400  1
  O  2318  1  0.05720300  0.29721800  0.72288100  1
  O  2319  1  0.08428200  0.27745800  0.71501800  1
  O  2337  1  0.45076700  0.32472500  0.51592300  1
  O  2338  1  0.47057500  0.35241100  0.52344500  1
  O  2356  1  0.53208600  0.18822700  0.01584300  1
  O  2357  1  0.51220600  0.16115200  0.02360600  1
  O  2375  1  0.55956200  0.29627600  0.26586600  1
  O  2376  1  0.58711800  0.27685700  0.27361300  1
  O  2394  1  0.42288300  0.21664000  0.76599400  1
  O  2395  1  0.39498700  0.23626900  0.77345900  1
  O  2413  1  0.53230100  0.69010300  0.47320900  1
  O  2414  1  0.51267900  0.66365400  0.46474700  1
  O  2432  1  0.45065700  0.82287400  0.97305400  1
  O  2433  1  0.47013300  0.85010800  0.96491100  1
  O  2451  1  0.42469900  0.71575700  0.72307600  1
  O  2452  1  0.39816000  0.73545900  0.71471400  1
  O  2470  1  0.55777600  0.79708600  0.22306800  1
  O  2471  1  0.58428900  0.77733400  0.21471400  1
  O  2489  1  0.96336800  0.70839600  0.88952600  1
  O  2490  1  0.93593400  0.73316200  0.88831300  1
  O  2508  1  0.01967500  0.80478800  0.38939100  1
  O  2509  1  0.04679200  0.77997500  0.38823300  1
  O  2527  1  0.94338400  0.78460400  0.63969300  1
  O  2528  1  0.96769300  0.81224200  0.63843500  1
  O  2546  1  0.03921700  0.72821800  0.13973600  1
  O  2547  1  0.01447900  0.70076900  0.13852900  1
  O  2565  1  0.01998500  0.30185900  0.09883300  1
  O  2566  1  0.04757600  0.27776500  0.10081200  1
  O  2584  1  0.96278000  0.21111900  0.59880300  1
  O  2585  1  0.93494200  0.23522500  0.60090300  1
  O  2603  1  0.03847600  0.22884900  0.34931100  1
  O  2604  1  0.01465600  0.20117200  0.35182000  1
  O  2622  1  0.94405700  0.28413700  0.84923400  1
  O  2623  1  0.96783100  0.31184900  0.85175900  1
  O  2641  1  0.46402900  0.21088800  0.38955800  1
  O  2642  1  0.43616600  0.23476000  0.38682900  1
  O  2660  1  0.51872300  0.30220900  0.88951900  1
  O  2661  1  0.54630800  0.27826900  0.88699800  1
  O  2679  1  0.44593600  0.28370600  0.13997200  1
  O  2680  1  0.46958600  0.31174200  0.13789800  1
  O  2698  1  0.53673600  0.22909500  0.63997700  1
  O  2699  1  0.51274000  0.20119100  0.63782700  1
  O  2717  1  0.51840800  0.80149800  0.59883200  1
  O  2718  1  0.54655900  0.77839300  0.60173800  1
  O  2736  1  0.46408500  0.71156600  0.09877200  1
  O  2737  1  0.43573000  0.73469700  0.10184900  1
  O  2755  1  0.53626500  0.72853000  0.84895300  1
  O  2756  1  0.51287300  0.70060900  0.85179100  1
  O  2774  1  0.44622200  0.78430700  0.34895800  1
  O  2775  1  0.46961400  0.81223100  0.35179200  1
