# generated using pymatgen
data_H7C13N2O
_symmetry_space_group_name_H-M   'P 1'
_cell_length_a   45.59930000
_cell_length_b   45.59900000
_cell_length_c   45.59900000
_cell_angle_alpha   89.99860000
_cell_angle_beta   90.00140000
_cell_angle_gamma   89.99930000
_symmetry_Int_Tables_number   1
_chemical_formula_structural   H7C13N2O
_chemical_formula_sum   'H672 C1248 N192 O96'
_cell_volume   94813.20177375
_cell_formula_units_Z   96
loop_
 _symmetry_equiv_pos_site_id
 _symmetry_equiv_pos_as_xyz
  1  'x, y, z'
loop_
 _atom_site_type_symbol
 _atom_site_label
 _atom_site_symmetry_multiplicity
 _atom_site_fract_x
 _atom_site_fract_y
 _atom_site_fract_z
 _atom_site_occupancy
  H  9  1  0.57201200  0.69087300  0.85712400  1
  H  17  1  0.71322900  0.54912700  0.85702900  1
  H  19  1  0.71225100  0.65328200  0.87077900  1
  H  20  1  0.67613200  0.68951800  0.87081100  1
  H  21  1  0.60935900  0.55065500  0.85005800  1
  H  22  1  0.57307300  0.58709700  0.84996700  1
  H  31  1  0.46440100  0.30022800  0.85710800  1
  H  39  1  0.32315500  0.44194300  0.85699300  1
  H  41  1  0.32415500  0.33779800  0.87081400  1
  H  42  1  0.36028300  0.30156600  0.87085200  1
  H  43  1  0.42702300  0.44043300  0.85000700  1
  H  44  1  0.46331700  0.40400200  0.84993700  1
  H  53  1  0.57196000  0.30026300  0.08879600  1
  H  61  1  0.71319000  0.44199000  0.08880900  1
  H  63  1  0.71219700  0.33783700  0.07504300  1
  H  64  1  0.67607300  0.30160400  0.07502600  1
  H  65  1  0.60932500  0.44047300  0.09582900  1
  H  66  1  0.57303500  0.40403700  0.09593000  1
  H  75  1  0.46438600  0.69088200  0.08869100  1
  H  83  1  0.32317600  0.54913700  0.08882000  1
  H  85  1  0.32414900  0.65328700  0.07502200  1
  H  86  1  0.36026800  0.68952400  0.07498400  1
  H  87  1  0.42704800  0.55066700  0.09578300  1
  H  88  1  0.46333200  0.58710800  0.09586200  1
  H  97  1  0.71348600  0.87976800  0.52673300  1
  H  105  1  0.57175100  0.87968500  0.66795500  1
  H  107  1  0.67590600  0.89343900  0.66697500  1
  H  108  1  0.71214000  0.89346700  0.63085400  1
  H  109  1  0.57327200  0.87270300  0.56408500  1
  H  110  1  0.60971100  0.87261200  0.52779900  1
  H  119  1  0.32288100  0.87975000  0.41913000  1
  H  127  1  0.46460400  0.87965100  0.27789700  1
  H  129  1  0.36045700  0.89346000  0.27888800  1
  H  130  1  0.32422300  0.89349500  0.31501100  1
  H  131  1  0.46309100  0.87266700  0.38176500  1
  H  132  1  0.42665500  0.87259000  0.41805800  1
  H  141  1  0.32286800  0.11144000  0.52668900  1
  H  149  1  0.46459800  0.11146500  0.66792300  1
  H  151  1  0.36044500  0.09768800  0.66692900  1
  H  152  1  0.32421100  0.09766900  0.63080600  1
  H  153  1  0.46307800  0.11847900  0.56405600  1
  H  154  1  0.42664200  0.11857400  0.52776800  1
  H  163  1  0.71353200  0.11133900  0.41909900  1
  H  171  1  0.57177200  0.11147100  0.27789700  1
  H  173  1  0.67592300  0.09767600  0.27886400  1
  H  174  1  0.71216300  0.09763900  0.31498100  1
  H  175  1  0.57331200  0.11842900  0.38176900  1
  H  176  1  0.60975800  0.11851100  0.41805100  1
  H  185  1  0.90234500  0.54934200  0.66821600  1
  H  193  1  0.90228400  0.69057400  0.52648500  1
  H  195  1  0.91604900  0.68958500  0.63063900  1
  H  196  1  0.91608100  0.65346000  0.66687200  1
  H  197  1  0.89529800  0.58670400  0.52800300  1
  H  198  1  0.89520700  0.55041500  0.56444000  1
  H  207  1  0.90242300  0.44174400  0.27761400  1
  H  215  1  0.90230900  0.30051200  0.41934500  1
  H  217  1  0.91610000  0.30150100  0.31519300  1
  H  218  1  0.91613000  0.33762300  0.27896000  1
  H  219  1  0.89533700  0.40438200  0.41782500  1
  H  220  1  0.89525700  0.44067100  0.38138800  1
  H  229  1  0.13403900  0.54936100  0.27760900  1
  H  237  1  0.13406500  0.69057500  0.41935400  1
  H  239  1  0.12031200  0.68959500  0.31519800  1
  H  240  1  0.12029800  0.65347700  0.27896000  1
  H  241  1  0.14107800  0.58670700  0.41782700  1
  H  242  1  0.14118200  0.55042400  0.38138800  1
  H  251  1  0.13397700  0.44176100  0.66827100  1
  H  259  1  0.13414000  0.30054700  0.52652900  1
  H  261  1  0.12030900  0.30152300  0.63067400  1
  H  262  1  0.12025900  0.33764100  0.66691200  1
  H  263  1  0.14109200  0.40442000  0.52805800  1
  H  264  1  0.14115800  0.44070400  0.56449900  1
  H  273  1  0.71351100  0.54938200  0.08871700  1
  H  281  1  0.57176100  0.69059600  0.08881600  1
  H  283  1  0.67591300  0.68962300  0.07506100  1
  H  284  1  0.71215300  0.65350300  0.07502800  1
  H  285  1  0.57329200  0.58672500  0.09579200  1
  H  286  1  0.60973500  0.55044100  0.09588200  1
  H  295  1  0.32286200  0.44176700  0.08873200  1
  H  303  1  0.46458100  0.30052500  0.08884600  1
  H  305  1  0.36043500  0.30152400  0.07502400  1
  H  306  1  0.32420400  0.33765100  0.07498600  1
  H  307  1  0.46306800  0.40439300  0.09583100  1
  H  308  1  0.42663600  0.44068600  0.09590400  1
  H  317  1  0.32289200  0.54932500  0.85704400  1
  H  325  1  0.46462200  0.69055200  0.85703800  1
  H  327  1  0.36047000  0.68956100  0.87080200  1
  H  328  1  0.32423400  0.65343800  0.87081600  1
  H  329  1  0.46310200  0.58668600  0.85001700  1
  H  330  1  0.42666700  0.55039800  0.84991400  1
  H  339  1  0.71351600  0.44175200  0.85715500  1
  H  347  1  0.57176800  0.30054200  0.85702200  1
  H  349  1  0.67591700  0.30151400  0.87082300  1
  H  350  1  0.71215500  0.33763100  0.87085900  1
  H  351  1  0.57329900  0.40441300  0.85006200  1
  H  352  1  0.60974300  0.44069800  0.84998300  1
  H  361  1  0.90240800  0.69085500  0.41910600  1
  H  369  1  0.90232100  0.54911500  0.27789000  1
  H  371  1  0.91607800  0.65326800  0.27886600  1
  H  372  1  0.91610800  0.68950500  0.31498700  1
  H  373  1  0.89533500  0.55064100  0.38175800  1
  H  374  1  0.89524300  0.58708100  0.41804400  1
  H  383  1  0.90238700  0.30024800  0.52671600  1
  H  391  1  0.90228100  0.44197100  0.66794900  1
  H  393  1  0.91609300  0.33782400  0.66695800  1
  H  394  1  0.91612900  0.30159200  0.63083200  1
  H  395  1  0.89529900  0.44045600  0.56407800  1
  H  396  1  0.89522400  0.40402200  0.52778800  1
  H  405  1  0.13407100  0.30023600  0.41915200  1
  H  413  1  0.13410100  0.44196600  0.27791800  1
  H  415  1  0.12032200  0.33781500  0.27891200  1
  H  416  1  0.12030300  0.30158100  0.31503600  1
  H  417  1  0.14111400  0.44044600  0.38178500  1
  H  418  1  0.14120700  0.40401000  0.41807300  1
  H  427  1  0.13396600  0.69089900  0.52674400  1
  H  435  1  0.13409900  0.54913600  0.66794700  1
  H  437  1  0.12030300  0.65328600  0.66698000  1
  H  438  1  0.12026700  0.68952900  0.63086500  1
  H  439  1  0.14106000  0.55067600  0.56407400  1
  H  440  1  0.14114200  0.58712300  0.52779200  1
  H  449  1  0.57197400  0.87970800  0.27762700  1
  H  457  1  0.71320500  0.87965100  0.41935800  1
  H  459  1  0.71221600  0.89341100  0.31520200  1
  H  460  1  0.67609100  0.89344300  0.27896900  1
  H  461  1  0.60933700  0.87267000  0.41784000  1
  H  462  1  0.57304600  0.87257900  0.38140300  1
  H  471  1  0.46437600  0.87979100  0.66823200  1
  H  479  1  0.32314500  0.87967000  0.52650100  1
  H  481  1  0.32413200  0.89346200  0.63065000  1
  H  482  1  0.36025600  0.89349300  0.66688500  1
  H  483  1  0.42701500  0.87269800  0.52802000  1
  H  484  1  0.46330400  0.87261800  0.56445800  1
  H  493  1  0.57199200  0.11140200  0.66823200  1
  H  501  1  0.71320800  0.11143500  0.52649200  1
  H  503  1  0.71222800  0.09768000  0.63064800  1
  H  504  1  0.67610800  0.09766400  0.66688300  1
  H  505  1  0.60934200  0.11844500  0.52801600  1
  H  506  1  0.57305700  0.11854800  0.56445500  1
  H  515  1  0.46439700  0.11135000  0.27757200  1
  H  523  1  0.32318200  0.11151000  0.41931000  1
  H  525  1  0.32415700  0.09768100  0.31516500  1
  H  526  1  0.36027700  0.09763100  0.27892900  1
  H  527  1  0.42705400  0.11846100  0.41778300  1
  H  528  1  0.46333900  0.11852700  0.38134400  1
  H  537  1  0.07226600  0.19113300  0.35580600  1
  H  545  1  0.21348500  0.04926600  0.35524000  1
  H  547  1  0.21221800  0.15299800  0.37005600  1
  H  548  1  0.17601200  0.18936400  0.37016200  1
  H  549  1  0.10944200  0.05072200  0.34769000  1
  H  550  1  0.07314300  0.08720800  0.34770700  1
  H  559  1  0.96413900  0.79997100  0.35577500  1
  H  567  1  0.82288600  0.94180400  0.35523200  1
  H  569  1  0.82418600  0.83807900  0.37011100  1
  H  570  1  0.86040200  0.80172300  0.37021000  1
  H  571  1  0.92692800  0.94037200  0.34765000  1
  H  572  1  0.96323500  0.90389400  0.34767400  1
  H  581  1  0.07221700  0.79999100  0.59010300  1
  H  589  1  0.21345400  0.94183900  0.59056300  1
  H  591  1  0.21216200  0.83810800  0.57573000  1
  H  592  1  0.17595100  0.80175000  0.57564200  1
  H  593  1  0.10941300  0.94039700  0.59818000  1
  H  594  1  0.07311200  0.90391600  0.59817800  1
  H  603  1  0.96411900  0.19114200  0.59002000  1
  H  611  1  0.82290700  0.04927300  0.59060700  1
  H  613  1  0.82417600  0.15299900  0.57573200  1
  H  614  1  0.86037900  0.18936300  0.57563100  1
  H  615  1  0.92695400  0.05073000  0.59815600  1
  H  616  1  0.96325100  0.08721700  0.59812900  1
  H  625  1  0.21375200  0.37846300  0.02701200  1
  H  633  1  0.07188400  0.37788300  0.16822500  1
  H  635  1  0.17561200  0.39272800  0.16696000  1
  H  636  1  0.21197600  0.39283600  0.13075500  1
  H  637  1  0.07334200  0.37031700  0.06418100  1
  H  638  1  0.10982900  0.37034100  0.02788500  1
  H  647  1  0.82261800  0.37841200  0.91886500  1
  H  655  1  0.96447200  0.37787400  0.77763800  1
  H  657  1  0.86074800  0.39274600  0.77892100  1
  H  658  1  0.82438800  0.39284500  0.81512800  1
  H  659  1  0.96302700  0.37029000  0.88168100  1
  H  660  1  0.92654200  0.37031000  0.91798300  1
  H  669  1  0.82261600  0.61273300  0.02694400  1
  H  677  1  0.96445000  0.61320300  0.16819900  1
  H  679  1  0.86072000  0.59835300  0.16689600  1
  H  680  1  0.82436500  0.59826700  0.13067800  1
  H  681  1  0.96301500  0.62081400  0.06415700  1
  H  682  1  0.92653900  0.62080600  0.02785200  1
  H  691  1  0.21379500  0.61266600  0.91886600  1
  H  699  1  0.07192600  0.61322600  0.77765100  1
  H  701  1  0.17565300  0.59838000  0.77891800  1
  H  702  1  0.21201900  0.59828200  0.81512400  1
  H  703  1  0.07338200  0.62077600  0.88169700  1
  H  704  1  0.10987300  0.62075500  0.91799400  1
  H  713  1  0.40104500  0.04962200  0.16847800  1
  H  721  1  0.40051100  0.19083900  0.02660600  1
  H  723  1  0.41535600  0.18956800  0.13033400  1
  H  724  1  0.41546400  0.15336000  0.16669900  1
  H  725  1  0.39294100  0.08679500  0.02806200  1
  H  726  1  0.39295700  0.05049700  0.06455000  1
  H  735  1  0.40108400  0.94147500  0.77734600  1
  H  743  1  0.40051300  0.80024300  0.91920400  1
  H  745  1  0.41538100  0.80152600  0.81547800  1
  H  746  1  0.41547900  0.83773500  0.77911800  1
  H  747  1  0.39293400  0.90428700  0.91775500  1
  H  748  1  0.39295700  0.94058900  0.88127000  1
  H  757  1  0.63534600  0.04960800  0.77733500  1
  H  765  1  0.63582400  0.19083800  0.91918900  1
  H  767  1  0.62100700  0.18955600  0.81545300  1
  H  768  1  0.62092300  0.15334500  0.77909400  1
  H  769  1  0.64343100  0.08679600  0.91774200  1
  H  770  1  0.64342800  0.05049600  0.88125900  1
  H  779  1  0.63532100  0.94152200  0.16852100  1
  H  787  1  0.63588700  0.80028800  0.02667600  1
  H  789  1  0.62100800  0.80157200  0.13040200  1
  H  790  1  0.62090600  0.83778200  0.16676000  1
  H  791  1  0.64343800  0.90433400  0.02811700  1
  H  792  1  0.64341000  0.94063600  0.06459800  1
  H  801  1  0.21376500  0.04963100  0.59003500  1
  H  809  1  0.07189700  0.19084900  0.59059900  1
  H  811  1  0.17562800  0.18958400  0.57578200  1
  H  812  1  0.21199300  0.15337700  0.57567700  1
  H  813  1  0.07335300  0.08680400  0.59815100  1
  H  814  1  0.10984300  0.05050700  0.59813400  1
  H  823  1  0.82260000  0.94150400  0.59008300  1
  H  831  1  0.96443700  0.80025500  0.59061400  1
  H  833  1  0.86071100  0.80155200  0.57574300  1
  H  834  1  0.82435400  0.83776600  0.57565100  1
  H  835  1  0.96300200  0.90429700  0.59820000  1
  H  836  1  0.92652300  0.94060400  0.59817800  1
  H  845  1  0.82262400  0.04958800  0.35574300  1
  H  853  1  0.96447700  0.19081900  0.35527800  1
  H  855  1  0.86074700  0.18953100  0.37011600  1
  H  856  1  0.82438700  0.15332200  0.37020100  1
  H  857  1  0.96303000  0.08677800  0.34766300  1
  H  858  1  0.92654800  0.05047700  0.34766600  1
  H  867  1  0.21377700  0.94148600  0.35582400  1
  H  875  1  0.07190400  0.80027700  0.35524300  1
  H  877  1  0.17563000  0.80154200  0.37011600  1
  H  878  1  0.21199500  0.83774500  0.37021400  1
  H  879  1  0.07336300  0.90432400  0.34769200  1
  H  880  1  0.10985200  0.94062000  0.34771600  1
  H  889  1  0.40109600  0.19111700  0.91882800  1
  H  897  1  0.40051200  0.04924900  0.77761600  1
  H  899  1  0.41535900  0.15297700  0.77888100  1
  H  900  1  0.41546900  0.18934100  0.81508500  1
  H  901  1  0.39295100  0.05070500  0.88166000  1
  H  902  1  0.39297600  0.08719400  0.91795700  1
  H  911  1  0.40104600  0.79998600  0.02698100  1
  H  919  1  0.40050800  0.94184100  0.16820600  1
  H  921  1  0.41538300  0.83811700  0.16692500  1
  H  922  1  0.41548100  0.80175600  0.13071800  1
  H  923  1  0.39292400  0.94039500  0.06416400  1
  H  924  1  0.39294300  0.90391000  0.02786300  1
  H  933  1  0.63537400  0.79997900  0.91890000  1
  H  941  1  0.63584200  0.94181300  0.77764400  1
  H  943  1  0.62099800  0.83808200  0.77894900  1
  H  944  1  0.62091300  0.80172700  0.81516500  1
  H  945  1  0.64345200  0.94038000  0.88168600  1
  H  946  1  0.64344700  0.90390300  0.91799200  1
  H  955  1  0.63530000  0.19116500  0.02697700  1
  H  963  1  0.63586700  0.04929400  0.16819500  1
  H  965  1  0.62101600  0.15302500  0.16692500  1
  H  966  1  0.62091800  0.18939000  0.13071800  1
  H  967  1  0.64341500  0.05075100  0.06414800  1
  H  968  1  0.64339400  0.08724100  0.02784900  1
  H  977  1  0.07225000  0.37840900  0.77736600  1
  H  985  1  0.21347100  0.37787100  0.91923300  1
  H  987  1  0.21219800  0.39271600  0.81550400  1
  H  988  1  0.17599100  0.39282500  0.77914200  1
  H  989  1  0.10942700  0.37030400  0.91778000  1
  H  990  1  0.07313000  0.37032100  0.88129200  1
  H  999  1  0.96411200  0.37844800  0.16849700  1
  H  1007  1  0.82287900  0.37787900  0.02664300  1
  H  1009  1  0.82416400  0.39274300  0.13036900  1
  H  1010  1  0.86037300  0.39283800  0.16673000  1
  H  1011  1  0.92692200  0.37030100  0.02809100  1
  H  1012  1  0.96322500  0.37032400  0.06457400  1
  H  1021  1  0.07224200  0.61271400  0.16850800  1
  H  1029  1  0.21347100  0.61319000  0.02665400  1
  H  1031  1  0.21219000  0.59837500  0.13038900  1
  H  1032  1  0.17598000  0.59829400  0.16674900  1
  H  1033  1  0.10943000  0.62079600  0.02810200  1
  H  1034  1  0.07313200  0.62079400  0.06458300  1
  H  1043  1  0.96415400  0.61267500  0.77732400  1
  H  1051  1  0.82292000  0.61325000  0.91916800  1
  H  1053  1  0.82420400  0.59836700  0.81544300  1
  H  1054  1  0.86041400  0.59826000  0.77908500  1
  H  1055  1  0.92696500  0.62079500  0.91772800  1
  H  1056  1  0.96326800  0.62076700  0.88124600  1
  H  1063  1  0.58950400  0.72283300  0.89767500  1
  H  1066  1  0.71283600  0.78138500  0.83366500  1
  H  1067  1  0.70418500  0.74909600  0.85329700  1
  H  1068  1  0.69612800  0.78427700  0.86851100  1
  H  1075  1  0.44693400  0.26823100  0.89764000  1
  H  1078  1  0.32357100  0.20971300  0.83368400  1
  H  1079  1  0.33223800  0.24198500  0.85333000  1
  H  1080  1  0.34031800  0.20679500  0.86850900  1
  H  1087  1  0.58942200  0.26828900  0.04824000  1
  H  1090  1  0.71282700  0.20976500  0.11213400  1
  H  1091  1  0.70414200  0.24205600  0.09252000  1
  H  1092  1  0.69608500  0.20687800  0.07730400  1
  H  1099  1  0.44689200  0.72285700  0.04814600  1
  H  1102  1  0.32356900  0.78139400  0.11215400  1
  H  1103  1  0.33222600  0.74911700  0.09250900  1
  H  1104  1  0.34030100  0.78430600  0.07732200  1
  H  1111  1  0.74546100  0.92031000  0.54422300  1
  H  1114  1  0.80399100  0.85631700  0.66756700  1
  H  1115  1  0.77171000  0.87595300  0.65890300  1
  H  1116  1  0.80689400  0.89115400  0.65084100  1
  H  1123  1  0.29089300  0.92029400  0.40165800  1
  H  1126  1  0.23235700  0.85632600  0.27830900  1
  H  1127  1  0.26463400  0.87597000  0.28697100  1
  H  1128  1  0.22944700  0.89115500  0.29504800  1
  H  1135  1  0.29088400  0.07089700  0.54415000  1
  H  1138  1  0.23239200  0.13476700  0.66757600  1
  H  1139  1  0.26467800  0.11515200  0.65888100  1
  H  1140  1  0.22949500  0.09994200  0.65082600  1
  H  1147  1  0.74549200  0.07078500  0.40160300  1
  H  1150  1  0.80403900  0.13481300  0.27828000  1
  H  1151  1  0.77175800  0.11517300  0.28693000  1
  H  1152  1  0.80694100  0.09997000  0.29499600  1
  H  1159  1  0.94290700  0.56680800  0.70018400  1
  H  1162  1  0.87894400  0.69017000  0.75872900  1
  H  1163  1  0.89857100  0.68150800  0.72644100  1
  H  1164  1  0.91378500  0.67345000  0.76162200  1
  H  1171  1  0.94295000  0.42425900  0.24562800  1
  H  1174  1  0.87895900  0.30093000  0.18708800  1
  H  1175  1  0.89860800  0.30958900  0.21936200  1
  H  1176  1  0.91378700  0.31767100  0.18417300  1
  H  1183  1  0.09348800  0.56684100  0.24564100  1
  H  1186  1  0.15743200  0.69021200  0.18710700  1
  H  1187  1  0.13780800  0.68154300  0.21939500  1
  H  1188  1  0.12259600  0.67348400  0.18421200  1
  H  1195  1  0.09343500  0.42427200  0.70025000  1
  H  1198  1  0.15741300  0.30091800  0.75877100  1
  H  1199  1  0.13777200  0.30958600  0.72649400  1
  H  1200  1  0.12258400  0.31765800  0.76168100  1
  H  1207  1  0.74546600  0.56687500  0.04816300  1
  H  1210  1  0.80403300  0.69018900  0.11219800  1
  H  1211  1  0.77174600  0.68154700  0.09256100  1
  H  1212  1  0.80692700  0.67348700  0.07735100  1
  H  1219  1  0.29086700  0.42430000  0.04819900  1
  H  1222  1  0.23234800  0.30093700  0.11215600  1
  H  1223  1  0.26462200  0.30960400  0.09251100  1
  H  1224  1  0.22943100  0.31768400  0.07733100  1
  H  1231  1  0.29092100  0.56678700  0.89760100  1
  H  1234  1  0.23239700  0.69019100  0.83370800  1
  H  1235  1  0.26468500  0.68150800  0.85332200  1
  H  1236  1  0.22950700  0.67344900  0.86853800  1
  H  1243  1  0.74548900  0.42425700  0.89770000  1
  H  1246  1  0.80402700  0.30093200  0.83369000  1
  H  1247  1  0.77175200  0.30959000  0.85333700  1
  H  1248  1  0.80693900  0.31766400  0.86852400  1
  H  1255  1  0.94295300  0.72282500  0.40161900  1
  H  1258  1  0.87893000  0.78137700  0.27829800  1
  H  1259  1  0.89857400  0.74909700  0.28694700  1
  H  1260  1  0.91377000  0.78428300  0.29501500  1
  H  1267  1  0.94292900  0.26826200  0.54418700  1
  H  1270  1  0.87896100  0.20972300  0.66753700  1
  H  1271  1  0.89860500  0.24200000  0.65887400  1
  H  1272  1  0.91378900  0.20681300  0.65079700  1
  H  1279  1  0.09353100  0.26825100  0.40169100  1
  H  1282  1  0.15740200  0.20976100  0.27826500  1
  H  1283  1  0.13778500  0.24204700  0.28695800  1
  H  1284  1  0.12257500  0.20686400  0.29501300  1
  H  1291  1  0.09341400  0.72285600  0.54424200  1
  H  1294  1  0.15744200  0.78140400  0.66756500  1
  H  1295  1  0.13780100  0.74912100  0.65891600  1
  H  1296  1  0.12259900  0.78430600  0.65085000  1
  H  1303  1  0.58944200  0.92026900  0.24565700  1
  H  1306  1  0.71281800  0.85632900  0.18712500  1
  H  1307  1  0.70414700  0.87594900  0.21941500  1
  H  1308  1  0.69609200  0.89116700  0.18423400  1
  H  1315  1  0.44689200  0.92031700  0.70021700  1
  H  1318  1  0.32357400  0.85630800  0.75876000  1
  H  1319  1  0.33222700  0.87596200  0.72648500  1
  H  1320  1  0.34030900  0.89113800  0.76167700  1
  H  1327  1  0.58947100  0.07085200  0.70020200  1
  H  1330  1  0.71284300  0.13479800  0.75873600  1
  H  1331  1  0.70417300  0.11517400  0.72644800  1
  H  1332  1  0.69611500  0.09996200  0.76162900  1
  H  1339  1  0.44691000  0.07080600  0.24559300  1
  H  1342  1  0.32355800  0.13478600  0.18707000  1
  H  1343  1  0.33222500  0.11514400  0.21934700  1
  H  1344  1  0.34029500  0.09995400  0.18416000  1
  H  1351  1  0.44696400  0.26827800  0.04821000  1
  H  1354  1  0.32336300  0.21037500  0.11243000  1
  H  1355  1  0.33219800  0.24285900  0.09320600  1
  H  1356  1  0.33964900  0.20782500  0.07735700  1
  H  1363  1  0.58940000  0.72287300  0.04823100  1
  H  1366  1  0.71299400  0.78073200  0.11249800  1
  H  1367  1  0.70415100  0.74825500  0.09327000  1
  H  1368  1  0.69670500  0.78329200  0.07742500  1
  H  1375  1  0.44698700  0.72281300  0.89764400  1
  H  1378  1  0.32340200  0.78070500  0.83339000  1
  H  1379  1  0.33223600  0.74822800  0.85262400  1
  H  1380  1  0.33969300  0.78326600  0.86846100  1
  H  1387  1  0.58938800  0.26826800  0.89763800  1
  H  1390  1  0.71298500  0.21037500  0.83343700  1
  H  1391  1  0.70414100  0.24284600  0.85267200  1
  H  1392  1  0.69666800  0.20780600  0.86849500  1
  H  1399  1  0.29092400  0.07088100  0.40170200  1
  H  1402  1  0.23303400  0.13504600  0.27806300  1
  H  1403  1  0.26552000  0.11583400  0.28691900  1
  H  1404  1  0.23048900  0.09998100  0.29437100  1
  H  1411  1  0.74547800  0.07083700  0.54412600  1
  H  1414  1  0.80335700  0.13509500  0.66771600  1
  H  1415  1  0.77087900  0.11586500  0.65887900  1
  H  1416  1  0.80591600  0.10002300  0.65143100  1
  H  1423  1  0.74546800  0.92025100  0.40171300  1
  H  1426  1  0.80334500  0.85599100  0.27812900  1
  H  1427  1  0.77086700  0.87522200  0.28696900  1
  H  1428  1  0.80590600  0.89106200  0.29441900  1
  H  1435  1  0.29088200  0.92029100  0.54412800  1
  H  1438  1  0.23298500  0.85606400  0.66771400  1
  H  1439  1  0.26545900  0.87529900  0.65887600  1
  H  1440  1  0.23041800  0.89112600  0.65140500  1
  H  1447  1  0.09348500  0.42434200  0.24566300  1
  H  1450  1  0.15771500  0.30073900  0.18777400  1
  H  1451  1  0.13849200  0.30957600  0.22025500  1
  H  1452  1  0.12264200  0.31702500  0.18522100  1
  H  1459  1  0.09349400  0.56675500  0.70022400  1
  H  1462  1  0.15770900  0.69036500  0.75809600  1
  H  1463  1  0.13848500  0.68151900  0.72561700  1
  H  1464  1  0.12264500  0.67406400  0.76065500  1
  H  1471  1  0.94291200  0.42434500  0.70020600  1
  H  1474  1  0.87866600  0.30076000  0.75810700  1
  H  1475  1  0.89790100  0.30959200  0.72563000  1
  H  1476  1  0.91373600  0.31705200  0.76066800  1
  H  1483  1  0.94291500  0.56675800  0.24562000  1
  H  1486  1  0.87866100  0.69033300  0.18772600  1
  H  1487  1  0.89789900  0.68149400  0.22020000  1
  H  1488  1  0.91372500  0.67402900  0.18516000  1
  H  1495  1  0.29091000  0.42432600  0.89763000  1
  H  1498  1  0.23300600  0.30072200  0.83340800  1
  H  1499  1  0.26549000  0.30955900  0.85263100  1
  H  1500  1  0.23045700  0.31701100  0.86848100  1
  H  1507  1  0.74550200  0.56676800  0.89761600  1
  H  1510  1  0.80337100  0.69035300  0.83333800  1
  H  1511  1  0.77089200  0.68151500  0.85256800  1
  H  1512  1  0.80593000  0.67406900  0.86841200  1
  H  1519  1  0.74545100  0.42435400  0.04820300  1
  H  1522  1  0.80334000  0.30076600  0.11245400  1
  H  1523  1  0.77086300  0.30960200  0.09321900  1
  H  1524  1  0.80590100  0.31705700  0.07738300  1
  H  1531  1  0.29090500  0.56675700  0.04820500  1
  H  1534  1  0.23300800  0.69035600  0.11240400  1
  H  1535  1  0.26548200  0.68151100  0.09317100  1
  H  1536  1  0.23044200  0.67403800  0.07734800  1
  H  1543  1  0.09351200  0.26828700  0.54413700  1
  H  1546  1  0.15767400  0.21039900  0.66777800  1
  H  1547  1  0.13846300  0.24288400  0.65892200  1
  H  1548  1  0.12261000  0.20785300  0.65146800  1
  H  1555  1  0.09346900  0.72284700  0.40171900  1
  H  1558  1  0.15772400  0.78072800  0.27812900  1
  H  1559  1  0.13849400  0.74824800  0.28696700  1
  H  1560  1  0.12265100  0.78328600  0.29441700  1
  H  1567  1  0.94288100  0.72284200  0.54412800  1
  H  1570  1  0.87863500  0.78070700  0.66772300  1
  H  1571  1  0.89786500  0.74823000  0.65887900  1
  H  1572  1  0.91370400  0.78326800  0.65142900  1
  H  1579  1  0.94293000  0.26825000  0.40171500  1
  H  1582  1  0.87870200  0.21035100  0.27812900  1
  H  1583  1  0.89793800  0.24282500  0.28696700  1
  H  1584  1  0.91376400  0.20778700  0.29443900  1
  H  1591  1  0.44697300  0.07085000  0.70017500  1
  H  1594  1  0.32337200  0.13507900  0.75806700  1
  H  1595  1  0.33220900  0.11585800  0.72558600  1
  H  1596  1  0.33965700  0.10000600  0.76062000  1
  H  1603  1  0.58939200  0.07086600  0.24562000  1
  H  1606  1  0.71300200  0.13508400  0.18775000  1
  H  1607  1  0.70415400  0.11585700  0.22022900  1
  H  1608  1  0.69670100  0.10001800  0.18519100  1
  H  1615  1  0.44697800  0.92028100  0.24563900  1
  H  1618  1  0.32339500  0.85603400  0.18773700  1
  H  1619  1  0.33222700  0.87526800  0.22021300  1
  H  1620  1  0.33968700  0.89110400  0.18517500  1
  H  1627  1  0.58939400  0.92027800  0.70022400  1
  H  1630  1  0.71297200  0.85602600  0.75811300  1
  H  1631  1  0.70413400  0.87526300  0.72563900  1
  H  1632  1  0.69666900  0.89109000  0.76068100  1
  H  1639  1  0.64239300  0.51973800  0.89501500  1
  H  1642  1  0.68101800  0.45208400  0.76387000  1
  H  1643  1  0.65812300  0.48204300  0.77286300  1
  H  1644  1  0.65126400  0.44660500  0.78808200  1
  H  1651  1  0.39388300  0.47136900  0.89499000  1
  H  1654  1  0.35555700  0.53897100  0.76374500  1
  H  1655  1  0.37837800  0.50897000  0.77279300  1
  H  1656  1  0.38528400  0.54440200  0.78800400  1
  H  1663  1  0.64235700  0.47140700  0.05086100  1
  H  1666  1  0.68110000  0.53902100  0.18198700  1
  H  1667  1  0.65818700  0.50907100  0.17300400  1
  H  1668  1  0.65132500  0.54451700  0.15780400  1
  H  1675  1  0.39389500  0.51970000  0.05081900  1
  H  1678  1  0.35549400  0.45211300  0.18204800  1
  H  1679  1  0.37833700  0.48209800  0.17301300  1
  H  1680  1  0.38522400  0.44666300  0.15780200  1
  H  1687  1  0.54235800  0.91765900  0.59710500  1
  H  1690  1  0.47472200  0.78651500  0.63576400  1
  H  1691  1  0.50468300  0.79551000  0.61287300  1
  H  1692  1  0.46924100  0.81071600  0.60600000  1
  H  1699  1  0.49403300  0.91765400  0.34860600  1
  H  1702  1  0.56163000  0.78639100  0.31033600  1
  H  1703  1  0.53163000  0.79544600  0.33315200  1
  H  1704  1  0.56706300  0.81066300  0.34004900  1
  H  1711  1  0.49402000  0.07351000  0.59711200  1
  H  1714  1  0.56161200  0.20466000  0.63580600  1
  H  1715  1  0.53166500  0.19566900  0.61289300  1
  H  1716  1  0.56711500  0.18047100  0.60603500  1
  H  1723  1  0.54235200  0.07346900  0.34864200  1
  H  1726  1  0.47472500  0.20466200  0.31018700  1
  H  1727  1  0.50471500  0.19563900  0.33303200  1
  H  1728  1  0.46928500  0.18041800  0.33992200  1
  H  1735  1  0.94026200  0.61972600  0.49709900  1
  H  1738  1  0.80912900  0.65838800  0.42943900  1
  H  1739  1  0.81811900  0.63549500  0.45940300  1
  H  1740  1  0.83333100  0.62862400  0.42396300  1
  H  1747  1  0.94031600  0.37122700  0.44876900  1
  H  1750  1  0.80906000  0.33294300  0.51637100  1
  H  1751  1  0.81811200  0.35576000  0.48637000  1
  H  1752  1  0.83332900  0.36266300  0.52180100  1
  H  1759  1  0.09611300  0.61974900  0.44876700  1
  H  1762  1  0.22724200  0.65846800  0.51639500  1
  H  1763  1  0.21825800  0.63555200  0.48644900  1
  H  1764  1  0.20305100  0.62870000  0.52189300  1
  H  1771  1  0.09613400  0.37127100  0.49709200  1
  H  1774  1  0.22736000  0.33285400  0.42951800  1
  H  1775  1  0.21832400  0.35569600  0.45950400  1
  H  1776  1  0.20311600  0.36258900  0.42406600  1
  H  1783  1  0.54237300  0.61975800  0.05083200  1
  H  1786  1  0.47472000  0.65838800  0.18197800  1
  H  1787  1  0.50467800  0.63549200  0.17298200  1
  H  1788  1  0.46923900  0.62863300  0.15776500  1
  H  1795  1  0.49400600  0.37125300  0.05085000  1
  H  1798  1  0.56160500  0.33293000  0.18209600  1
  H  1799  1  0.53160400  0.35574900  0.17304600  1
  H  1800  1  0.56703900  0.36265500  0.15783700  1
  H  1807  1  0.49403800  0.61972400  0.89498900  1
  H  1810  1  0.56165000  0.65844700  0.76385700  1
  H  1811  1  0.53170000  0.63553400  0.77284400  1
  H  1812  1  0.56714600  0.62867400  0.78804500  1
  H  1819  1  0.54233000  0.37126000  0.89502400  1
  H  1822  1  0.47474700  0.33286000  0.76379100  1
  H  1823  1  0.50473300  0.35570400  0.77282800  1
  H  1824  1  0.46929600  0.36259000  0.78804000  1
  H  1831  1  0.94029600  0.51972600  0.34873600  1
  H  1834  1  0.80915000  0.45208700  0.31009200  1
  H  1835  1  0.81814700  0.48204700  0.33298300  1
  H  1836  1  0.83335500  0.44660500  0.33985400  1
  H  1843  1  0.94028200  0.47140100  0.59723200  1
  H  1846  1  0.80902500  0.53899900  0.63552100  1
  H  1847  1  0.81807700  0.50899900  0.61270200  1
  H  1848  1  0.83329400  0.54443200  0.60580300  1
  H  1855  1  0.09614600  0.47138900  0.34872900  1
  H  1858  1  0.22729600  0.53898100  0.31003800  1
  H  1859  1  0.21830300  0.50903500  0.33295000  1
  H  1860  1  0.20310800  0.54448300  0.33980600  1
  H  1867  1  0.09609900  0.51971700  0.59720200  1
  H  1870  1  0.22729100  0.45208800  0.63565700  1
  H  1871  1  0.21826800  0.48207800  0.61281200  1
  H  1872  1  0.20304600  0.44664800  0.60592100  1
  H  1879  1  0.64236700  0.91763600  0.44874500  1
  H  1882  1  0.68099400  0.78649000  0.51640000  1
  H  1883  1  0.65810500  0.79548700  0.48643600  1
  H  1884  1  0.65123500  0.81069900  0.52187600  1
  H  1891  1  0.39386000  0.91767800  0.49707700  1
  H  1894  1  0.35557700  0.78642400  0.42947000  1
  H  1895  1  0.37839400  0.79547500  0.45947300  1
  H  1896  1  0.38529500  0.81069300  0.42404000  1
  H  1903  1  0.64238100  0.07348200  0.49707700  1
  H  1906  1  0.68110200  0.20461300  0.42945200  1
  H  1907  1  0.65818600  0.19563000  0.45939800  1
  H  1908  1  0.65133600  0.18042200  0.42395500  1
  H  1915  1  0.39390500  0.07350300  0.44874900  1
  H  1918  1  0.35548300  0.20472900  0.51632500  1
  H  1919  1  0.37832700  0.19569200  0.48634000  1
  H  1920  1  0.38522000  0.18048400  0.52177700  1
  H  1927  1  0.14165200  0.01977400  0.39256100  1
  H  1930  1  0.18345600  0.95154900  0.26262900  1
  H  1931  1  0.15995600  0.98124500  0.27092300  1
  H  1932  1  0.15331600  0.94583400  0.28630000  1
  H  1939  1  0.89462100  0.97133300  0.39255700  1
  H  1942  1  0.85310800  0.03950600  0.26252100  1
  H  1943  1  0.87652800  0.00976200  0.27087200  1
  H  1944  1  0.88322500  0.04516800  0.28623700  1
  H  1951  1  0.14163400  0.97135900  0.55328400  1
  H  1954  1  0.18350400  0.03953200  0.68321900  1
  H  1955  1  0.15999500  0.00984400  0.67492500  1
  H  1956  1  0.15334700  0.04526200  0.65956700  1
  H  1963  1  0.89462500  0.01973100  0.55327100  1
  H  1966  1  0.85307400  0.95158900  0.68331100  1
  H  1967  1  0.87651500  0.98131800  0.67496400  1
  H  1968  1  0.88319000  0.94590800  0.65960000  1
  H  1975  1  0.04239300  0.41518800  0.09637500  1
  H  1978  1  0.97419300  0.28525400  0.13821100  1
  H  1979  1  0.00389100  0.29355000  0.11471500  1
  H  1980  1  0.96847800  0.30891100  0.10805700  1
  H  1987  1  0.99399800  0.41519800  0.84937600  1
  H  1990  1  0.06217800  0.28517000  0.80784900  1
  H  1991  1  0.03243700  0.29351400  0.83127300  1
  H  1992  1  0.06784200  0.30888500  0.83796600  1
  H  1999  1  0.99398600  0.57592300  0.09640100  1
  H  2002  1  0.06212300  0.70588600  0.13823300  1
  H  2003  1  0.03244000  0.69758200  0.11472000  1
  H  2004  1  0.06786300  0.68223300  0.10808400  1
  H  2011  1  0.04239800  0.57588600  0.84937900  1
  H  2014  1  0.97421100  0.70589800  0.80781200  1
  H  2015  1  0.00394100  0.69755800  0.83125400  1
  H  2016  1  0.96853800  0.68217700  0.83792500  1
  H  2023  1  0.43782200  0.11899100  0.99712100  1
  H  2026  1  0.30789800  0.16083200  0.92889800  1
  H  2027  1  0.31618800  0.13733800  0.95860000  1
  H  2028  1  0.33155600  0.13067800  0.92318800  1
  H  2035  1  0.43783400  0.87198500  0.94872800  1
  H  2038  1  0.30780500  0.83046200  0.01690600  1
  H  2039  1  0.31614900  0.85388500  0.98716200  1
  H  2040  1  0.33152100  0.86058100  0.02256600  1
  H  2047  1  0.59854100  0.11902700  0.94871000  1
  H  2050  1  0.72848100  0.16087400  0.01689300  1
  H  2051  1  0.72018600  0.13735600  0.98721100  1
  H  2052  1  0.70481800  0.13072800  0.02262800  1
  H  2059  1  0.59854800  0.87200100  0.99712900  1
  H  2062  1  0.72858400  0.83045700  0.92899300  1
  H  2063  1  0.72023400  0.85389500  0.95872200  1
  H  2064  1  0.70487300  0.86057300  0.92331100  1
  H  2071  1  0.04240400  0.11901300  0.55328200  1
  H  2074  1  0.97418500  0.16082400  0.68321500  1
  H  2075  1  0.00388000  0.13732200  0.67492100  1
  H  2076  1  0.96846900  0.13068100  0.65954300  1
  H  2083  1  0.99396400  0.87199000  0.55329100  1
  H  2086  1  0.06214000  0.83047600  0.68332400  1
  H  2087  1  0.03239600  0.85389800  0.67497300  1
  H  2088  1  0.06780200  0.86059400  0.65960900  1
  H  2095  1  0.99399600  0.11899800  0.39255700  1
  H  2098  1  0.06216500  0.16086900  0.26262200  1
  H  2099  1  0.03247800  0.13736000  0.27091600  1
  H  2100  1  0.06789600  0.13071200  0.28627400  1
  H  2107  1  0.04236500  0.87199600  0.39257900  1
  H  2110  1  0.97421800  0.83044600  0.26254300  1
  H  2111  1  0.00394500  0.85388700  0.27089000  1
  H  2112  1  0.96853800  0.86056200  0.28625600  1
  H  2119  1  0.43782100  0.01975700  0.84946800  1
  H  2122  1  0.30788800  0.95155300  0.80763000  1
  H  2123  1  0.31618300  0.98125300  0.83112500  1
  H  2124  1  0.33154500  0.94583900  0.83778400  1
  H  2131  1  0.43783100  0.97136600  0.09646700  1
  H  2134  1  0.30780800  0.03955100  0.13799400  1
  H  2135  1  0.31615000  0.00980900  0.11457100  1
  H  2136  1  0.33152300  0.04521200  0.10787800  1
  H  2143  1  0.59856000  0.97134700  0.84944200  1
  H  2146  1  0.72852000  0.03949200  0.80761100  1
  H  2147  1  0.72021700  0.00980900  0.83112400  1
  H  2148  1  0.70486400  0.04523100  0.83776100  1
  H  2155  1  0.59852700  0.01976500  0.09646700  1
  H  2158  1  0.72854100  0.95158400  0.13803200  1
  H  2159  1  0.72020000  0.98131500  0.11459000  1
  H  2160  1  0.70482200  0.94591000  0.10791900  1
  H  2167  1  0.14162400  0.41518400  0.94871900  1
  H  2170  1  0.18347000  0.28526200  0.01694400  1
  H  2171  1  0.15997400  0.29355300  0.98724300  1
  H  2172  1  0.15331600  0.30892100  0.02265400  1
  H  2179  1  0.89462000  0.41520200  0.99711600  1
  H  2182  1  0.85309500  0.28517000  0.92894100  1
  H  2183  1  0.87651900  0.29351600  0.95868400  1
  H  2184  1  0.88321400  0.30888600  0.92328000  1
  H  2191  1  0.14166400  0.57590500  0.99713400  1
  H  2194  1  0.18349900  0.70584500  0.92894800  1
  H  2195  1  0.15998400  0.69755100  0.95863100  1
  H  2196  1  0.15335600  0.68218100  0.92321400  1
  H  2203  1  0.89463300  0.57590600  0.94871300  1
  H  2206  1  0.85309400  0.70594500  0.01685100  1
  H  2207  1  0.87653100  0.69759400  0.98712300  1
  H  2208  1  0.88321100  0.68223100  0.02253400  1
  C  1  1  0.63182900  0.63150900  0.85888500  1
  C  2  1  0.63962300  0.66175700  0.86218800  1
  C  3  1  0.61750600  0.68395500  0.86190700  1
  C  4  1  0.58808000  0.67512400  0.85791000  1
  C  5  1  0.57958400  0.64556900  0.85509500  1
  C  6  1  0.60163700  0.62356200  0.85577000  1
  C  7  1  0.66951600  0.66850500  0.86686900  1
  C  8  1  0.59435200  0.59362700  0.85267800  1
  C  10  1  0.65407700  0.60918400  0.85891600  1
  C  11  1  0.68437300  0.61685200  0.86216000  1
  C  12  1  0.70652500  0.59466900  0.86176500  1
  C  13  1  0.69754500  0.56525900  0.85782800  1
  C  14  1  0.66789900  0.55686700  0.85549200  1
  C  15  1  0.64598000  0.57902500  0.85595700  1
  C  16  1  0.69122000  0.64673000  0.86683300  1
  C  18  1  0.61599900  0.57189200  0.85278100  1
  C  23  1  0.40457300  0.35958100  0.85889500  1
  C  24  1  0.39678600  0.32933200  0.86220100  1
  C  25  1  0.41890700  0.30713800  0.86191900  1
  C  26  1  0.44833000  0.31597400  0.85791200  1
  C  27  1  0.45681700  0.34552900  0.85509800  1
  C  28  1  0.43476200  0.36753200  0.85576900  1
  C  29  1  0.36689500  0.32258000  0.86689200  1
  C  30  1  0.44204100  0.39746700  0.85265800  1
  C  32  1  0.38232000  0.38190100  0.85892100  1
  C  33  1  0.35202400  0.37422800  0.86217700  1
  C  34  1  0.32987000  0.39640900  0.86177500  1
  C  35  1  0.33884200  0.42581500  0.85781400  1
  C  36  1  0.36848500  0.43421000  0.85546200  1
  C  37  1  0.39041000  0.41206000  0.85594100  1
  C  38  1  0.34518600  0.34435500  0.86687400  1
  C  40  1  0.42038900  0.41919800  0.85276000  1
  C  45  1  0.63178300  0.35961900  0.08697800  1
  C  46  1  0.63957100  0.32937000  0.08367500  1
  C  47  1  0.61745200  0.30717200  0.08397600  1
  C  48  1  0.58802800  0.31600800  0.08798700  1
  C  49  1  0.57953900  0.34556600  0.09079400  1
  C  50  1  0.60159200  0.36756900  0.09010500  1
  C  51  1  0.66946200  0.32261700  0.07898700  1
  C  52  1  0.59431200  0.39750600  0.09320200  1
  C  54  1  0.65403400  0.38194100  0.08693800  1
  C  55  1  0.68432800  0.37426700  0.08368400  1
  C  56  1  0.70648000  0.39645000  0.08406100  1
  C  57  1  0.69750600  0.42586000  0.08800400  1
  C  58  1  0.66786100  0.43425300  0.09036400  1
  C  59  1  0.64593900  0.41210000  0.08990100  1
  C  60  1  0.69116800  0.34439200  0.07899700  1
  C  62  1  0.61596100  0.41923600  0.09308600  1
  C  67  1  0.40457400  0.63151500  0.08691700  1
  C  68  1  0.39678000  0.66176200  0.08360900  1
  C  69  1  0.41889400  0.68396100  0.08389500  1
  C  70  1  0.44832000  0.67513400  0.08789900  1
  C  71  1  0.45681800  0.64557800  0.09071900  1
  C  72  1  0.43476700  0.62357200  0.09003900  1
  C  73  1  0.36688700  0.66851000  0.07892500  1
  C  74  1  0.44205300  0.59363700  0.09313800  1
  C  76  1  0.38232800  0.60919000  0.08689000  1
  C  77  1  0.35202900  0.61685800  0.08364000  1
  C  78  1  0.32988000  0.59467300  0.08404400  1
  C  79  1  0.33885800  0.56526700  0.08800000  1
  C  80  1  0.36850500  0.55687800  0.09035100  1
  C  81  1  0.39042500  0.57903200  0.08986400  1
  C  82  1  0.34518500  0.64673100  0.07894700  1
  C  84  1  0.42040500  0.57190200  0.09305000  1
  C  89  1  0.65412700  0.88153700  0.58655200  1
  C  90  1  0.68437600  0.88484000  0.59434600  1
  C  91  1  0.70657300  0.88455600  0.57222800  1
  C  92  1  0.69773900  0.88055700  0.54280100  1
  C  93  1  0.66818300  0.87774200  0.53431000  1
  C  94  1  0.64617900  0.87841900  0.55636100  1
  C  95  1  0.69112600  0.88952400  0.62423700  1
  C  96  1  0.61624200  0.87532600  0.54907800  1
  C  98  1  0.63180300  0.88156900  0.60880300  1
  C  99  1  0.63947500  0.88481700  0.63910000  1
  C  100  1  0.61729300  0.88442500  0.66124900  1
  C  101  1  0.58788200  0.88048400  0.65227100  1
  C  102  1  0.57948900  0.87814300  0.62262600  1
  C  103  1  0.60164400  0.87860900  0.60070600  1
  C  104  1  0.66935000  0.88949100  0.64594400  1
  C  106  1  0.59451000  0.87542900  0.57072500  1
  C  111  1  0.38223800  0.88154400  0.35930600  1
  C  112  1  0.35198700  0.88484800  0.35151700  1
  C  113  1  0.32979200  0.88456500  0.37363500  1
  C  114  1  0.33862700  0.88055600  0.40306200  1
  C  115  1  0.36818200  0.87774200  0.41155100  1
  C  116  1  0.39018600  0.87841800  0.38949800  1
  C  117  1  0.34523700  0.88953800  0.32162600  1
  C  118  1  0.42012100  0.87531100  0.39677900  1
  C  120  1  0.40455800  0.88157200  0.33705600  1
  C  121  1  0.39688600  0.88482800  0.30676100  1
  C  122  1  0.41906800  0.88442800  0.28460700  1
  C  123  1  0.44847400  0.88047100  0.29358100  1
  C  124  1  0.45686800  0.87812000  0.32322600  1
  C  125  1  0.43471700  0.87859600  0.34515000  1
  C  126  1  0.36701300  0.88952100  0.29991900  1
  C  128  1  0.44185300  0.87541600  0.37513100  1
  C  133  1  0.38222400  0.10961900  0.58651300  1
  C  134  1  0.35197600  0.10631900  0.59430300  1
  C  135  1  0.32978000  0.10661800  0.57218400  1
  C  136  1  0.33861500  0.11063000  0.54275800  1
  C  137  1  0.36817000  0.11343200  0.53427100  1
  C  138  1  0.39017500  0.11274700  0.55632400  1
  C  139  1  0.34522400  0.10162800  0.62419400  1
  C  140  1  0.42011000  0.11584600  0.54904300  1
  C  142  1  0.40454700  0.10958100  0.60876600  1
  C  143  1  0.39687500  0.10632600  0.63906000  1
  C  144  1  0.41906000  0.10670900  0.66121200  1
  C  145  1  0.44846800  0.11065900  0.65223800  1
  C  146  1  0.45686000  0.11301700  0.62259300  1
  C  147  1  0.43470500  0.11254800  0.60067100  1
  C  148  1  0.36700100  0.10163300  0.64589800  1
  C  150  1  0.44184300  0.11573300  0.57069200  1
  C  155  1  0.65415900  0.10956900  0.35929100  1
  C  156  1  0.68440500  0.10626200  0.35149200  1
  C  157  1  0.70660700  0.10654600  0.37360700  1
  C  158  1  0.69778100  0.11054800  0.40303500  1
  C  159  1  0.66822800  0.11336800  0.41153300  1
  C  160  1  0.64621900  0.11268900  0.38948500  1
  C  161  1  0.69115000  0.10157800  0.32159900  1
  C  162  1  0.61628400  0.11578800  0.39677200  1
  C  164  1  0.63183100  0.10954100  0.33704500  1
  C  165  1  0.63949700  0.10629400  0.30674800  1
  C  166  1  0.61731000  0.10669800  0.28459800  1
  C  167  1  0.58790400  0.11065300  0.29357900  1
  C  168  1  0.57951700  0.11299900  0.32322600  1
  C  169  1  0.60167500  0.11251500  0.34514600  1
  C  170  1  0.66936800  0.10160300  0.29989900  1
  C  172  1  0.59454700  0.11569900  0.37512700  1
  C  177  1  0.90414200  0.60916500  0.60885800  1
  C  178  1  0.90744900  0.61695400  0.63910600  1
  C  179  1  0.90715900  0.59483400  0.66130400  1
  C  180  1  0.90314700  0.56541100  0.65247100  1
  C  181  1  0.90034100  0.55692000  0.62291300  1
  C  182  1  0.90101700  0.57897400  0.60090800  1
  C  183  1  0.91213800  0.64684400  0.64585600  1
  C  184  1  0.89792100  0.57169300  0.57097300  1
  C  186  1  0.90417300  0.63141600  0.58653500  1
  C  187  1  0.90742300  0.66171200  0.59420800  1
  C  188  1  0.90702500  0.68386500  0.57202600  1
  C  189  1  0.90308300  0.67488900  0.54261500  1
  C  190  1  0.90074300  0.64524200  0.53422200  1
  C  191  1  0.90120800  0.62332200  0.55637600  1
  C  192  1  0.91210600  0.66855100  0.62408400  1
  C  194  1  0.89802600  0.59334100  0.54924000  1
  C  199  1  0.90419600  0.38192100  0.33697200  1
  C  200  1  0.90749300  0.37413000  0.30672400  1
  C  201  1  0.90721400  0.39624700  0.28452600  1
  C  202  1  0.90321700  0.42567300  0.29336000  1
  C  203  1  0.90039900  0.43416600  0.32291500  1
  C  204  1  0.90107700  0.41211200  0.34492000  1
  C  205  1  0.91217700  0.34423700  0.29997400  1
  C  206  1  0.89797600  0.41939200  0.37485700  1
  C  208  1  0.90422700  0.35967000  0.35929500  1
  C  209  1  0.90747700  0.32937300  0.35162400  1
  C  210  1  0.90708100  0.30722100  0.37380700  1
  C  211  1  0.90313000  0.31619600  0.40321500  1
  C  212  1  0.90078200  0.34584200  0.41160800  1
  C  213  1  0.90125700  0.36776400  0.38945400  1
  C  214  1  0.91216300  0.32253200  0.32175100  1
  C  216  1  0.89808200  0.39774400  0.39659000  1
  C  221  1  0.13223600  0.60917600  0.33697200  1
  C  222  1  0.12893700  0.61697100  0.30672400  1
  C  223  1  0.12923200  0.59485500  0.28452600  1
  C  224  1  0.13323900  0.56542900  0.29335700  1
  C  225  1  0.13604700  0.55693400  0.32291500  1
  C  226  1  0.13535900  0.57898500  0.34492000  1
  C  227  1  0.12425000  0.64686200  0.29997400  1
  C  228  1  0.13845400  0.57170100  0.37485700  1
  C  230  1  0.13219500  0.63142400  0.35929700  1
  C  231  1  0.12894200  0.66172100  0.35162800  1
  C  232  1  0.12932000  0.68387200  0.37381300  1
  C  233  1  0.13326200  0.67489300  0.40322400  1
  C  234  1  0.13561900  0.64524600  0.41161200  1
  C  235  1  0.13515400  0.62332700  0.38945800  1
  C  236  1  0.12425700  0.66856400  0.32175300  1
  C  238  1  0.13833800  0.59334800  0.39659000  1
  C  243  1  0.13220500  0.38194800  0.60890600  1
  C  244  1  0.12889200  0.37415100  0.63915200  1
  C  245  1  0.12917400  0.39626700  0.66135000  1
  C  246  1  0.13318000  0.42569300  0.65252300  1
  C  247  1  0.13600200  0.43419000  0.62296800  1
  C  248  1  0.13532800  0.41213900  0.60096100  1
  C  249  1  0.12420600  0.34426000  0.64589800  1
  C  250  1  0.13843500  0.41942500  0.57102800  1
  C  252  1  0.13218700  0.35969800  0.58658100  1
  C  253  1  0.12893700  0.32940100  0.59424800  1
  C  254  1  0.12935100  0.30725000  0.57206500  1
  C  255  1  0.13331600  0.31623100  0.54265900  1
  C  256  1  0.13566400  0.34587700  0.53427100  1
  C  257  1  0.13516900  0.36779800  0.55642500  1
  C  258  1  0.12423600  0.32255600  0.62412100  1
  C  260  1  0.13835300  0.39777900  0.54929300  1
  C  265  1  0.65414300  0.60919800  0.08695800  1
  C  266  1  0.68439200  0.61699400  0.08365300  1
  C  267  1  0.70658900  0.59487700  0.08393200  1
  C  268  1  0.69776300  0.56545100  0.08793200  1
  C  269  1  0.66820700  0.55695500  0.09075000  1
  C  270  1  0.64619800  0.57900400  0.09007700  1
  C  271  1  0.69113700  0.64688700  0.07897100  1
  C  272  1  0.61626400  0.57172000  0.09316900  1
  C  274  1  0.63181900  0.63144700  0.08693000  1
  C  275  1  0.63948700  0.66174300  0.08368400  1
  C  276  1  0.61730100  0.68389300  0.08407900  1
  C  277  1  0.58789300  0.67491300  0.08801700  1
  C  278  1  0.57950200  0.64526500  0.09035300  1
  C  279  1  0.60166000  0.62334800  0.08988800  1
  C  280  1  0.66936300  0.66859000  0.07900800  1
  C  282  1  0.59452900  0.59336500  0.09306600  1
  C  287  1  0.38221600  0.38194000  0.08694500  1
  C  288  1  0.35196800  0.37415300  0.08363800  1
  C  289  1  0.32977200  0.39627200  0.08392100  1
  C  290  1  0.33860800  0.42569800  0.08792800  1
  C  291  1  0.36816300  0.43418500  0.09074300  1
  C  292  1  0.39016800  0.41213100  0.09007000  1
  C  293  1  0.34521800  0.34426200  0.07894700  1
  C  294  1  0.42010300  0.41941000  0.09318200  1
  C  296  1  0.40453900  0.35968700  0.08691900  1
  C  297  1  0.39686500  0.32939300  0.08366200  1
  C  298  1  0.41904600  0.30723900  0.08406300  1
  C  299  1  0.44845400  0.31621200  0.08802400  1
  C  300  1  0.45684700  0.34585500  0.09037700  1
  C  301  1  0.43469500  0.36778100  0.08989900  1
  C  302  1  0.36699200  0.32255500  0.07896500  1
  C  304  1  0.44183300  0.39776000  0.09308100  1
  C  309  1  0.38224800  0.60914500  0.85886600  1
  C  310  1  0.35200000  0.61693500  0.86216700  1
  C  311  1  0.32980400  0.59481700  0.86186700  1
  C  312  1  0.33863800  0.56539300  0.85785400  1
  C  313  1  0.36819500  0.55690300  0.85504800  1
  C  314  1  0.39019800  0.57895600  0.85573700  1
  C  315  1  0.34524800  0.64682600  0.86685800  1
  C  316  1  0.42013500  0.57167500  0.85264300  1
  C  318  1  0.40457100  0.63139800  0.85890700  1
  C  319  1  0.39690000  0.66169200  0.86216200  1
  C  320  1  0.41908200  0.68384400  0.86178500  1
  C  321  1  0.44849300  0.67486700  0.85784200  1
  C  322  1  0.45688300  0.64522200  0.85548200  1
  C  323  1  0.43473100  0.62330100  0.85594500  1
  C  324  1  0.36702400  0.66853200  0.86684600  1
  C  326  1  0.44186700  0.59332200  0.85275900  1
  C  331  1  0.65414700  0.38194000  0.85892900  1
  C  332  1  0.68439500  0.37414300  0.86223500  1
  C  333  1  0.70659500  0.39625700  0.86195100  1
  C  334  1  0.69776600  0.42568600  0.85794800  1
  C  335  1  0.66821100  0.43418200  0.85512700  1
  C  336  1  0.64620400  0.41213400  0.85580600  1
  C  337  1  0.69114100  0.34425000  0.86692000  1
  C  338  1  0.61626900  0.41941900  0.85270600  1
  C  340  1  0.63182200  0.35969200  0.85895500  1
  C  341  1  0.63948900  0.32939500  0.86220500  1
  C  342  1  0.61730400  0.30724600  0.86180000  1
  C  343  1  0.58789800  0.31622400  0.85784300  1
  C  344  1  0.57951000  0.34587200  0.85549200  1
  C  345  1  0.60166600  0.36779100  0.85597900  1
  C  346  1  0.66936200  0.32254800  0.86689600  1
  C  348  1  0.59453400  0.39777200  0.85279500  1
  C  353  1  0.90417500  0.63149400  0.35928900  1
  C  354  1  0.90748000  0.66174000  0.35149500  1
  C  355  1  0.90719900  0.68394000  0.37361100  1
  C  356  1  0.90319700  0.67510800  0.40303700  1
  C  357  1  0.90037800  0.64555400  0.41153300  1
  C  358  1  0.90105400  0.62354800  0.38948200  1
  C  359  1  0.91216500  0.66849100  0.32160400  1
  C  360  1  0.89795900  0.59361000  0.39676500  1
  C  362  1  0.90420600  0.60916900  0.33704000  1
  C  363  1  0.90745500  0.61683900  0.30674400  1
  C  364  1  0.90706200  0.59465500  0.28459400  1
  C  365  1  0.90312000  0.56524600  0.29357200  1
  C  366  1  0.90077900  0.55685500  0.32322000  1
  C  367  1  0.90124400  0.57901000  0.34513900  1
  C  368  1  0.91213000  0.64671500  0.29989700  1
  C  370  1  0.89806200  0.57187800  0.37512000  1
  C  375  1  0.90417800  0.35960500  0.58653700  1
  C  376  1  0.90748200  0.32935400  0.59432900  1
  C  377  1  0.90720000  0.30715900  0.57220800  1
  C  378  1  0.90319200  0.31599400  0.54278400  1
  C  379  1  0.90037800  0.34555100  0.53429200  1
  C  380  1  0.90105200  0.36755400  0.55634600  1
  C  381  1  0.91217200  0.32260300  0.62422000  1
  C  382  1  0.89794400  0.39748900  0.54906700  1
  C  384  1  0.90420500  0.38192500  0.60878800  1
  C  385  1  0.90746000  0.37425300  0.63908400  1
  C  386  1  0.90706000  0.39643500  0.66123800  1
  C  387  1  0.90310300  0.42584200  0.65226200  1
  C  388  1  0.90075100  0.43423500  0.62261700  1
  C  389  1  0.90122800  0.41208400  0.60069500  1
  C  390  1  0.91215400  0.34438000  0.64592400  1
  C  392  1  0.89804800  0.41922100  0.57071400  1
  C  397  1  0.13225400  0.35959400  0.35932600  1
  C  398  1  0.12895300  0.32934300  0.35153900  1
  C  399  1  0.12925200  0.30714700  0.37365700  1
  C  400  1  0.13326200  0.31598200  0.40308100  1
  C  401  1  0.13606700  0.34554000  0.41157100  1
  C  402  1  0.13538200  0.36754300  0.38951700  1
  C  403  1  0.12426200  0.32259200  0.32164800  1
  C  404  1  0.13847900  0.39747700  0.39679800  1
  C  406  1  0.13221800  0.38191500  0.33707500  1
  C  407  1  0.12896300  0.37424500  0.30678100  1
  C  408  1  0.12934400  0.39642800  0.28462900  1
  C  409  1  0.13329400  0.42583600  0.29360300  1
  C  410  1  0.13565200  0.43422800  0.32324800  1
  C  411  1  0.13518400  0.41207600  0.34517000  1
  C  412  1  0.12427000  0.34436900  0.29994300  1
  C  414  1  0.13836900  0.41921100  0.37514900  1
  C  419  1  0.13219600  0.63152400  0.58655200  1
  C  420  1  0.12889100  0.66177000  0.59435100  1
  C  421  1  0.12917400  0.68397300  0.57223800  1
  C  422  1  0.13317700  0.67514600  0.54281000  1
  C  423  1  0.13599700  0.64559300  0.53431200  1
  C  424  1  0.13531800  0.62358400  0.55635900  1
  C  425  1  0.12420600  0.66851300  0.62424400  1
  C  426  1  0.13841900  0.59364900  0.54907100  1
  C  428  1  0.13217000  0.60919600  0.60879800  1
  C  429  1  0.12892300  0.61686000  0.63909700  1
  C  430  1  0.12932700  0.59467500  0.66124700  1
  C  431  1  0.13328100  0.56526900  0.65226400  1
  C  432  1  0.13562900  0.55688100  0.62261700  1
  C  433  1  0.13514400  0.57903800  0.60069700  1
  C  434  1  0.12423000  0.64673300  0.64594400  1
  C  436  1  0.13832700  0.57191100  0.57071700  1
  C  441  1  0.63179600  0.88150800  0.33698600  1
  C  442  1  0.63958500  0.88481200  0.30673500  1
  C  443  1  0.61746600  0.88452100  0.28453900  1
  C  444  1  0.58804200  0.88051200  0.29337300  1
  C  445  1  0.57955200  0.87770900  0.32293000  1
  C  446  1  0.60160500  0.87838600  0.34493300  1
  C  447  1  0.66947800  0.88950000  0.29998500  1
  C  448  1  0.59432500  0.87529200  0.37487000  1
  C  450  1  0.65404700  0.88154000  0.35930600  1
  C  451  1  0.68434300  0.88478800  0.35163500  1
  C  452  1  0.70649600  0.88439100  0.37381800  1
  C  453  1  0.69752000  0.88045000  0.40322600  1
  C  454  1  0.66787500  0.87811100  0.41162100  1
  C  455  1  0.64595300  0.87857700  0.38946700  1
  C  456  1  0.69118500  0.88946900  0.32175900  1
  C  458  1  0.61597300  0.87539600  0.39660300  1
  C  463  1  0.40455400  0.88155800  0.60887100  1
  C  464  1  0.39676300  0.88485700  0.63912200  1
  C  465  1  0.41888000  0.88458000  0.66131700  1
  C  466  1  0.44830800  0.88058300  0.65248400  1
  C  467  1  0.45679800  0.87776300  0.62292800  1
  C  468  1  0.43474500  0.87844000  0.60092300  1
  C  469  1  0.36687000  0.88954000  0.64587200  1
  C  470  1  0.44202700  0.87533800  0.57098800  1
  C  472  1  0.38230300  0.88158900  0.58654800  1
  C  473  1  0.35200700  0.88483900  0.59421900  1
  C  474  1  0.32985400  0.88444200  0.57203700  1
  C  475  1  0.33883000  0.88049100  0.54262800  1
  C  476  1  0.36847500  0.87814300  0.53423800  1
  C  477  1  0.39039900  0.87861800  0.55638900  1
  C  478  1  0.34516500  0.88952500  0.62409500  1
  C  480  1  0.42037700  0.87544300  0.54925600  1
  C  485  1  0.63180900  0.10960000  0.60887100  1
  C  486  1  0.63960200  0.10630400  0.63911900  1
  C  487  1  0.61748600  0.10659900  0.66131700  1
  C  488  1  0.58806000  0.11060200  0.65248600  1
  C  489  1  0.57956600  0.11341000  0.62292800  1
  C  490  1  0.60161600  0.11272600  0.60092300  1
  C  491  1  0.66949300  0.10161700  0.64586900  1
  C  492  1  0.59433400  0.11581900  0.57098600  1
  C  494  1  0.65405700  0.10956100  0.58654600  1
  C  495  1  0.68435400  0.10631100  0.59421700  1
  C  496  1  0.70650300  0.10669000  0.57203200  1
  C  497  1  0.69752600  0.11063000  0.54262200  1
  C  498  1  0.66788000  0.11298600  0.53423100  1
  C  499  1  0.64596000  0.11252300  0.55638700  1
  C  500  1  0.69119400  0.10162300  0.62409300  1
  C  502  1  0.61597900  0.11570500  0.54925300  1
  C  507  1  0.40458200  0.10957500  0.33693700  1
  C  508  1  0.39678700  0.10626400  0.30668900  1
  C  509  1  0.41890400  0.10654500  0.28449100  1
  C  510  1  0.44833200  0.11055100  0.29332000  1
  C  511  1  0.45682600  0.11337100  0.32287300  1
  C  512  1  0.43477600  0.11269900  0.34488000  1
  C  513  1  0.36689700  0.10157600  0.29994300  1
  C  514  1  0.44206000  0.11580600  0.37481500  1
  C  516  1  0.38233500  0.10955700  0.35926000  1
  C  517  1  0.35203800  0.10631000  0.35159100  1
  C  518  1  0.32988700  0.10672400  0.37377600  1
  C  519  1  0.33886600  0.11068600  0.40318000  1
  C  520  1  0.36851100  0.11303400  0.41157100  1
  C  521  1  0.39043200  0.11254100  0.38941700  1
  C  522  1  0.34519300  0.10160900  0.32172000  1
  C  524  1  0.42041300  0.11572500  0.39654800  1
  C  529  1  0.13188800  0.13149500  0.35693600  1
  C  530  1  0.13975900  0.16168800  0.36035200  1
  C  531  1  0.11777600  0.18394800  0.35959100  1
  C  532  1  0.08825500  0.17527300  0.35620300  1
  C  533  1  0.07966500  0.14572400  0.35333900  1
  C  534  1  0.10168300  0.12363800  0.35374500  1
  C  535  1  0.16952700  0.16838300  0.36575200  1
  C  536  1  0.09442400  0.09371000  0.35046600  1
  C  538  1  0.15411800  0.10916900  0.35689600  1
  C  539  1  0.18437800  0.11687800  0.36020300  1
  C  540  1  0.20656700  0.09481100  0.35919000  1
  C  541  1  0.19770500  0.06533000  0.35574700  1
  C  542  1  0.16804400  0.05687200  0.35347500  1
  C  543  1  0.14607000  0.07901600  0.35380600  1
  C  544  1  0.19120700  0.14660800  0.36567300  1
  C  546  1  0.11607800  0.07194300  0.35051000  1
  C  551  1  0.90450500  0.85959800  0.35694900  1
  C  552  1  0.89664300  0.82940300  0.36037000  1
  C  553  1  0.91863100  0.80714900  0.35959800  1
  C  554  1  0.94814800  0.81582900  0.35619200  1
  C  555  1  0.95672800  0.84537900  0.35333000  1
  C  556  1  0.93470600  0.86746000  0.35374000  1
  C  557  1  0.86687800  0.82270200  0.36578400  1
  C  558  1  0.94195700  0.89739100  0.35044600  1
  C  560  1  0.88227100  0.88191700  0.35691400  1
  C  561  1  0.85201500  0.87420400  0.36023800  1
  C  562  1  0.82981900  0.89626600  0.35922700  1
  C  563  1  0.83867200  0.92574500  0.35575800  1
  C  564  1  0.86832800  0.93420800  0.35346400  1
  C  565  1  0.89031000  0.91207200  0.35380400  1
  C  566  1  0.84519500  0.84447400  0.36572700  1
  C  568  1  0.92029800  0.91915000  0.35049700  1
  C  573  1  0.13184500  0.85962300  0.58890600  1
  C  574  1  0.13970900  0.82942900  0.58548200  1
  C  575  1  0.11772200  0.80717300  0.58625400  1
  C  576  1  0.08820600  0.81585000  0.58968000  1
  C  577  1  0.07962300  0.84540000  0.59253900  1
  C  578  1  0.10164300  0.86748300  0.59211600  1
  C  579  1  0.16947500  0.82272800  0.58007200  1
  C  580  1  0.09438900  0.89741300  0.59539900  1
  C  582  1  0.15407600  0.88194400  0.58893000  1
  C  583  1  0.18433300  0.87423300  0.58560500  1
  C  584  1  0.20652400  0.89629900  0.58658700  1
  C  585  1  0.19767100  0.92577900  0.59005200  1
  C  586  1  0.16801200  0.93423800  0.59235700  1
  C  587  1  0.14603400  0.91209900  0.59202800  1
  C  588  1  0.19115500  0.84450100  0.58012700  1
  C  590  1  0.11604500  0.91917400  0.59534000  1
  C  595  1  0.90450500  0.13149700  0.58887000  1
  C  596  1  0.89663400  0.16168900  0.58544500  1
  C  597  1  0.91861400  0.18395000  0.58621200  1
  C  598  1  0.94813400  0.17527800  0.58961400  1
  C  599  1  0.95672600  0.14573100  0.59248200  1
  C  600  1  0.93471000  0.12364400  0.59207200  1
  C  601  1  0.86686500  0.16838500  0.58003900  1
  C  602  1  0.94197100  0.09371500  0.59536000  1
  C  604  1  0.88227700  0.10917200  0.58891000  1
  C  605  1  0.85201800  0.11687900  0.58559200  1
  C  606  1  0.82982700  0.09481300  0.58661400  1
  C  607  1  0.83868900  0.06533400  0.59007900  1
  C  608  1  0.86834900  0.05688000  0.59236800  1
  C  609  1  0.89032500  0.07902000  0.59202000  1
  C  610  1  0.84518800  0.14660600  0.58010700  1
  C  612  1  0.92031600  0.07195200  0.59532700  1
  C  617  1  0.15411200  0.37959200  0.08662900  1
  C  618  1  0.18430300  0.38302100  0.09450000  1
  C  619  1  0.20656200  0.38226700  0.07251900  1
  C  620  1  0.19789000  0.37886200  0.04299900  1
  C  621  1  0.16834300  0.37598800  0.03440900  1
  C  622  1  0.14625800  0.37639300  0.05642500  1
  C  623  1  0.19099900  0.38842200  0.12427000  1
  C  624  1  0.11633000  0.37310400  0.04916600  1
  C  626  1  0.13178700  0.37954800  0.10886000  1
  C  627  1  0.13949400  0.38286100  0.13911700  1
  C  628  1  0.11742900  0.38184100  0.16130800  1
  C  629  1  0.08795000  0.37839200  0.15244400  1
  C  630  1  0.07949100  0.37611400  0.12278400  1
  C  631  1  0.10163300  0.37645000  0.10080900  1
  C  632  1  0.16922300  0.38834000  0.14594900  1
  C  634  1  0.09456400  0.37314800  0.07082000  1
  C  639  1  0.88225600  0.37958600  0.85924400  1
  C  640  1  0.85206300  0.38301000  0.85137700  1
  C  641  1  0.82980600  0.38224600  0.87336000  1
  C  642  1  0.83848000  0.37882900  0.90287800  1
  C  643  1  0.86802800  0.37596000  0.91146500  1
  C  644  1  0.89011300  0.37637700  0.88944700  1
  C  645  1  0.84536600  0.38842300  0.82160900  1
  C  646  1  0.92004200  0.37308200  0.89670300  1
  C  648  1  0.90457900  0.37955300  0.83701400  1
  C  649  1  0.89687000  0.38287700  0.80675600  1
  C  650  1  0.91893400  0.38186600  0.78456400  1
  C  651  1  0.94841200  0.37840000  0.79342200  1
  C  652  1  0.95687200  0.37610800  0.82308000  1
  C  653  1  0.93473300  0.37644300  0.84505800  1
  C  654  1  0.86714100  0.38836400  0.79993000  1
  C  656  1  0.94180500  0.37313500  0.87504800  1
  C  661  1  0.88224000  0.61153300  0.08658100  1
  C  662  1  0.85204500  0.60811200  0.09444100  1
  C  663  1  0.82979200  0.60888900  0.07245100  1
  C  664  1  0.83847200  0.61230900  0.04293700  1
  C  665  1  0.86802300  0.61516400  0.03435600  1
  C  666  1  0.89010300  0.61474200  0.05637900  1
  C  667  1  0.84534300  0.60269700  0.12420500  1
  C  668  1  0.92003400  0.61802700  0.04912800  1
  C  670  1  0.90455900  0.61155900  0.10881400  1
  C  671  1  0.89684600  0.60823100  0.13907100  1
  C  672  1  0.91891100  0.60921700  0.16126500  1
  C  673  1  0.94839100  0.61268900  0.15241400  1
  C  674  1  0.95685100  0.61499400  0.12275700  1
  C  675  1  0.93471500  0.61466200  0.10077600  1
  C  676  1  0.86711500  0.60274700  0.14588900  1
  C  678  1  0.94179200  0.61797100  0.07078700  1
  C  683  1  0.15415300  0.61151000  0.85924900  1
  C  684  1  0.18434600  0.60809300  0.85137700  1
  C  685  1  0.20660500  0.60886900  0.87335900  1
  C  686  1  0.19793300  0.61225800  0.90287900  1
  C  687  1  0.16838600  0.61512000  0.91147000  1
  C  688  1  0.14630000  0.61470700  0.88945400  1
  C  689  1  0.19104000  0.60269000  0.82160900  1
  C  690  1  0.11637000  0.61798800  0.89671400  1
  C  692  1  0.13182700  0.61154600  0.83702000  1
  C  693  1  0.13953300  0.60823100  0.80676100  1
  C  694  1  0.11746600  0.60924500  0.78457100  1
  C  695  1  0.08798800  0.61270300  0.79343300  1
  C  696  1  0.07953200  0.61499000  0.82309200  1
  C  697  1  0.10167300  0.61464700  0.84506800  1
  C  698  1  0.16926300  0.60275200  0.79993200  1
  C  700  1  0.09460600  0.61794900  0.87505900  1
  C  705  1  0.40221500  0.10924100  0.10883400  1
  C  706  1  0.40564300  0.11710800  0.13902500  1
  C  707  1  0.40487800  0.09512500  0.16128400  1
  C  708  1  0.40146400  0.06560700  0.15261300  1
  C  709  1  0.39859900  0.05702000  0.12306600  1
  C  710  1  0.39901100  0.07903600  0.10097800  1
  C  711  1  0.41104900  0.14687600  0.14572000  1
  C  712  1  0.39572200  0.07177800  0.07105000  1
  C  714  1  0.40217500  0.13147000  0.08650900  1
  C  715  1  0.40548900  0.16172900  0.09421500  1
  C  716  1  0.40446800  0.18391800  0.07214900  1
  C  717  1  0.40102000  0.17505700  0.04267000  1
  C  718  1  0.39874100  0.14539700  0.03421100  1
  C  719  1  0.39907500  0.12342200  0.05635400  1
  C  720  1  0.41097200  0.16855700  0.12394600  1
  C  722  1  0.39577000  0.09343200  0.04928600  1
  C  727  1  0.40222600  0.88185000  0.83698400  1
  C  728  1  0.40564900  0.87398300  0.80679100  1
  C  729  1  0.40489100  0.89596800  0.78453400  1
  C  730  1  0.40148600  0.92548600  0.79320800  1
  C  731  1  0.39861200  0.93407300  0.82275600  1
  C  732  1  0.39902200  0.91205400  0.84484000  1
  C  733  1  0.41105600  0.84421500  0.80009500  1
  C  734  1  0.39572900  0.91931000  0.87477000  1
  C  736  1  0.40219100  0.85961900  0.85930700  1
  C  737  1  0.40551400  0.82936200  0.85160000  1
  C  738  1  0.40450300  0.80717000  0.87366500  1
  C  739  1  0.40103900  0.81602700  0.90314300  1
  C  740  1  0.39874700  0.84568500  0.91160100  1
  C  741  1  0.39908500  0.86766300  0.88946200  1
  C  742  1  0.41099800  0.82253600  0.82187000  1
  C  744  1  0.39578000  0.89765400  0.89653300  1
  C  749  1  0.63416800  0.10923300  0.83696700  1
  C  750  1  0.63075300  0.11710000  0.80677300  1
  C  751  1  0.63152400  0.09511300  0.78451700  1
  C  752  1  0.63493500  0.06559700  0.79319400  1
  C  753  1  0.63779300  0.05701100  0.82274300  1
  C  754  1  0.63737200  0.07903000  0.84482600  1
  C  755  1  0.62534700  0.14686600  0.80007200  1
  C  756  1  0.64065200  0.07177500  0.87475700  1
  C  758  1  0.63419300  0.13146300  0.85928900  1
  C  759  1  0.63087000  0.16172100  0.85157900  1
  C  760  1  0.63185100  0.18391100  0.87364800  1
  C  761  1  0.63531200  0.17505500  0.90312700  1
  C  762  1  0.63761500  0.14539600  0.91158600  1
  C  763  1  0.63728800  0.12342100  0.88944600  1
  C  764  1  0.62539600  0.16854600  0.82184700  1
  C  766  1  0.64059300  0.09343100  0.89651900  1
  C  771  1  0.63415200  0.88189700  0.10888800  1
  C  772  1  0.63073000  0.87403100  0.13908200  1
  C  773  1  0.63150700  0.89601500  0.16133900  1
  C  774  1  0.63490600  0.92553300  0.15266100  1
  C  775  1  0.63776500  0.93412000  0.12311200  1
  C  776  1  0.63735400  0.91210000  0.10103100  1
  C  777  1  0.62532000  0.84426400  0.14578200  1
  C  778  1  0.64064100  0.91935700  0.07110000  1
  C  780  1  0.63419100  0.85966500  0.08656800  1
  C  781  1  0.63087100  0.82940800  0.09427900  1
  C  782  1  0.63189500  0.80721500  0.07221400  1
  C  783  1  0.63536100  0.81607200  0.04273600  1
  C  784  1  0.63764900  0.84573000  0.03427700  1
  C  785  1  0.63730000  0.86770900  0.05641400  1
  C  786  1  0.62538500  0.82258300  0.12400700  1
  C  788  1  0.64060700  0.89769900  0.04934100  1
  C  793  1  0.15412600  0.10925400  0.58890600  1
  C  794  1  0.18432000  0.11712200  0.58548700  1
  C  795  1  0.20657900  0.09514100  0.58625000  1
  C  796  1  0.19790500  0.06562100  0.58963600  1
  C  797  1  0.16835700  0.05703100  0.59250200  1
  C  798  1  0.14627100  0.07904900  0.59209600  1
  C  799  1  0.19101500  0.14689200  0.58008700  1
  C  800  1  0.11634300  0.07178800  0.59537500  1
  C  802  1  0.13180100  0.13148300  0.58894300  1
  C  803  1  0.13951000  0.16174200  0.58563600  1
  C  804  1  0.11744100  0.18393100  0.58665100  1
  C  805  1  0.08796100  0.17506700  0.59009200  1
  C  806  1  0.07950200  0.14540700  0.59236600  1
  C  807  1  0.10164700  0.12343400  0.59203500  1
  C  808  1  0.16924000  0.16857300  0.58016600  1
  C  810  1  0.09457700  0.09344300  0.59533100  1
  C  815  1  0.88222900  0.88187200  0.58890600  1
  C  816  1  0.85203400  0.87400900  0.58548700  1
  C  817  1  0.82977900  0.89599600  0.58626100  1
  C  818  1  0.83845800  0.92551300  0.58966700  1
  C  819  1  0.86800800  0.93409500  0.59252600  1
  C  820  1  0.89009000  0.91207300  0.59211400  1
  C  821  1  0.84533300  0.84424300  0.58007200  1
  C  822  1  0.92002000  0.91932500  0.59540600  1
  C  824  1  0.90454800  0.85963800  0.58893800  1
  C  825  1  0.89683600  0.82938200  0.58561400  1
  C  826  1  0.91889900  0.80718700  0.58662000  1
  C  827  1  0.94837800  0.81604100  0.59008800  1
  C  828  1  0.95684000  0.84569700  0.59238400  1
  C  829  1  0.93470300  0.86767800  0.59204800  1
  C  830  1  0.86710600  0.82256100  0.58012700  1
  C  832  1  0.94178000  0.89766700  0.59535300  1
  C  837  1  0.88225800  0.10921300  0.35694000  1
  C  838  1  0.85206400  0.11707800  0.36036100  1
  C  839  1  0.82980800  0.09509300  0.35958900  1
  C  840  1  0.83848400  0.06557700  0.35616600  1
  C  841  1  0.86803300  0.05699300  0.35330400  1
  C  842  1  0.89011600  0.07901100  0.35372900  1
  C  843  1  0.84536500  0.14684400  0.36577300  1
  C  844  1  0.92004700  0.07175600  0.35044400  1
  C  846  1  0.90458000  0.13144400  0.35691400  1
  C  847  1  0.89687000  0.16170100  0.36023800  1
  C  848  1  0.91893700  0.18389200  0.35925600  1
  C  849  1  0.94841600  0.17503600  0.35579100  1
  C  850  1  0.95687400  0.14537800  0.35348600  1
  C  851  1  0.93473500  0.12340200  0.35381500  1
  C  852  1  0.86713900  0.16852400  0.36571900  1
  C  854  1  0.94180800  0.09341200  0.35050300  1
  C  859  1  0.15413200  0.88187300  0.35697700  1
  C  860  1  0.18432300  0.87400100  0.36040300  1
  C  861  1  0.20658400  0.89598000  0.35963300  1
  C  862  1  0.19791300  0.92550000  0.35623200  1
  C  863  1  0.16836600  0.93409300  0.35336300  1
  C  864  1  0.14627800  0.91207800  0.35377500  1
  C  865  1  0.19101600  0.84423100  0.36580600  1
  C  866  1  0.11635000  0.91934000  0.35048800  1
  C  868  1  0.13180400  0.85964500  0.35693800  1
  C  869  1  0.13951100  0.82938600  0.36025600  1
  C  870  1  0.11744500  0.80719600  0.35923400  1
  C  871  1  0.08796600  0.81605900  0.35577100  1
  C  872  1  0.07951200  0.84571900  0.35348200  1
  C  873  1  0.10165300  0.86769400  0.35383000  1
  C  874  1  0.16923900  0.82255500  0.36574100  1
  C  876  1  0.09458700  0.89768600  0.35052300  1
  C  881  1  0.40222600  0.13147500  0.85921000  1
  C  882  1  0.40565400  0.16166600  0.85134000  1
  C  883  1  0.40490000  0.18392700  0.87332200  1
  C  884  1  0.40149700  0.17525500  0.90284100  1
  C  885  1  0.39862200  0.14570900  0.91143100  1
  C  886  1  0.39902800  0.12362100  0.88941500  1
  C  887  1  0.41105700  0.16836200  0.82157000  1
  C  888  1  0.39573800  0.09369200  0.89667600  1
  C  890  1  0.40218200  0.10915000  0.83698200  1
  C  891  1  0.40549500  0.11685700  0.80672200  1
  C  892  1  0.40447500  0.09479200  0.78453300  1
  C  893  1  0.40102300  0.06531300  0.79339600  1
  C  894  1  0.39874500  0.05685600  0.82305600  1
  C  895  1  0.39908100  0.07899800  0.84503000  1
  C  896  1  0.41097700  0.14658600  0.79989100  1
  C  898  1  0.39578200  0.07192900  0.87502200  1
  C  903  1  0.40222100  0.85962400  0.08660100  1
  C  904  1  0.40564600  0.82943100  0.09446900  1
  C  905  1  0.40488300  0.80717400  0.07248400  1
  C  906  1  0.40146500  0.81584700  0.04296800  1
  C  907  1  0.39859700  0.84539500  0.03438000  1
  C  908  1  0.39901200  0.86748100  0.05639800  1
  C  909  1  0.41105700  0.82273400  0.12423800  1
  C  910  1  0.39571500  0.89741000  0.04914200  1
  C  912  1  0.40218600  0.88194700  0.10883100  1
  C  913  1  0.40551200  0.87423800  0.13908900  1
  C  914  1  0.40450100  0.89630300  0.16128000  1
  C  915  1  0.40103600  0.92578100  0.15242200  1
  C  916  1  0.39874100  0.93424000  0.12276400  1
  C  917  1  0.39907900  0.91210100  0.10078700  1
  C  918  1  0.41099900  0.84450900  0.14591600  1
  C  920  1  0.39577100  0.91917300  0.07079800  1
  C  925  1  0.63417500  0.85960400  0.85926400  1
  C  926  1  0.63075600  0.82940800  0.85140400  1
  C  927  1  0.63153300  0.80715500  0.87339300  1
  C  928  1  0.63495000  0.81583600  0.90290800  1
  C  929  1  0.63780600  0.84538700  0.91148700  1
  C  930  1  0.63738400  0.86746700  0.88946400  1
  C  931  1  0.62534100  0.82270500  0.82163900  1
  C  932  1  0.64066700  0.89739800  0.89671500  1
  C  934  1  0.63420100  0.88192200  0.83702900  1
  C  935  1  0.63087300  0.87420900  0.80677300  1
  C  936  1  0.63185800  0.89627400  0.78457900  1
  C  937  1  0.63532700  0.92575400  0.79343000  1
  C  938  1  0.63763300  0.93421500  0.82308600  1
  C  939  1  0.63730200  0.91207900  0.84506700  1
  C  940  1  0.62539100  0.84447700  0.79995600  1
  C  942  1  0.64061200  0.91915600  0.87505600  1
  C  947  1  0.63414800  0.13152200  0.08659400  1
  C  948  1  0.63073100  0.16171500  0.09446500  1
  C  949  1  0.63150200  0.18397500  0.07248400  1
  C  950  1  0.63489400  0.17530200  0.04296400  1
  C  951  1  0.63775600  0.14575600  0.03437400  1
  C  952  1  0.63734400  0.12366700  0.05639000  1
  C  953  1  0.62532600  0.16841000  0.12423300  1
  C  954  1  0.64062700  0.09373900  0.04913100  1
  C  956  1  0.63418300  0.10919600  0.10882500  1
  C  957  1  0.63086800  0.11690400  0.13908200  1
  C  958  1  0.63188400  0.09483500  0.16127300  1
  C  959  1  0.63534200  0.06535600  0.15241100  1
  C  960  1  0.63762900  0.05690100  0.12275300  1
  C  961  1  0.63728400  0.07904200  0.10077600  1
  C  962  1  0.62538800  0.14663200  0.14591100  1
  C  964  1  0.64059000  0.07197500  0.07078500  1
  C  969  1  0.13187100  0.37957800  0.83700900  1
  C  970  1  0.13973900  0.38300400  0.80681700  1
  C  971  1  0.11775500  0.38224200  0.78455700  1
  C  972  1  0.08823800  0.37882500  0.79322900  1
  C  973  1  0.07965100  0.37596100  0.82277700  1
  C  974  1  0.10166700  0.37637200  0.84486400  1
  C  975  1  0.16950700  0.38841000  0.80012100  1
  C  976  1  0.09440900  0.37308600  0.87479300  1
  C  978  1  0.15410000  0.37953800  0.85933200  1
  C  979  1  0.18435900  0.38285100  0.85162400  1
  C  980  1  0.20655100  0.38183100  0.87369000  1
  C  981  1  0.19768900  0.37838100  0.90316900  1
  C  982  1  0.16802900  0.37610400  0.91162800  1
  C  983  1  0.14605400  0.37643600  0.88948600  1
  C  984  1  0.19118700  0.38833200  0.82189500  1
  C  986  1  0.11606500  0.37313200  0.89655700  1
  C  991  1  0.90448800  0.37959100  0.10886000  1
  C  992  1  0.89662100  0.38301100  0.13905400  1
  C  993  1  0.91860600  0.38225400  0.16131100  1
  C  994  1  0.94812400  0.37885000  0.15263700  1
  C  995  1  0.95671000  0.37597600  0.12308800  1
  C  996  1  0.93469100  0.37638700  0.10100500  1
  C  997  1  0.86685300  0.38842000  0.14575100  1
  C  998  1  0.94194600  0.37309600  0.07107400  1
  C  1000  1  0.88225600  0.37955400  0.08653700  1
  C  1001  1  0.85199900  0.38287700  0.09424600  1
  C  1002  1  0.82980600  0.38186900  0.07218200  1
  C  1003  1  0.83866300  0.37840500  0.04270300  1
  C  1004  1  0.86832100  0.37611300  0.03424400  1
  C  1005  1  0.89030000  0.37645000  0.05638300  1
  C  1006  1  0.84517400  0.38836100  0.12397700  1
  C  1008  1  0.92029000  0.37314500  0.04931000  1
  C  1013  1  0.13186900  0.61153700  0.10887500  1
  C  1014  1  0.13973600  0.60812200  0.13907100  1
  C  1015  1  0.11774900  0.60889100  0.16132600  1
  C  1016  1  0.08823300  0.61230200  0.15264800  1
  C  1017  1  0.07964700  0.61516000  0.12309900  1
  C  1018  1  0.10166600  0.61474000  0.10101800  1
  C  1019  1  0.16950200  0.60271800  0.14577100  1
  C  1020  1  0.09440900  0.61801900  0.07108500  1
  C  1022  1  0.15409900  0.61156200  0.08655500  1
  C  1023  1  0.18435600  0.60824100  0.09426300  1
  C  1024  1  0.20654600  0.60921900  0.07219500  1
  C  1025  1  0.19768800  0.61268100  0.04271600  1
  C  1026  1  0.16803200  0.61498200  0.03425700  1
  C  1027  1  0.14605400  0.61465500  0.05639800  1
  C  1028  1  0.19118100  0.60277100  0.12399600  1
  C  1030  1  0.11606400  0.61796000  0.04932400  1
  C  1035  1  0.90452900  0.61150800  0.83695600  1
  C  1036  1  0.89666200  0.60808500  0.80676200  1
  C  1037  1  0.91864700  0.60886200  0.78450600  1
  C  1038  1  0.94816500  0.61226100  0.79318300  1
  C  1039  1  0.95675100  0.61512000  0.82273200  1
  C  1040  1  0.93473200  0.61471100  0.84481500  1
  C  1041  1  0.86689600  0.60267600  0.80006400  1
  C  1042  1  0.94198800  0.61799800  0.87474400  1
  C  1044  1  0.88229700  0.61154900  0.85927700  1
  C  1045  1  0.85204000  0.60823000  0.85156600  1
  C  1046  1  0.82984700  0.60925300  0.87363000  1
  C  1047  1  0.83870400  0.61272200  0.90310800  1
  C  1048  1  0.86836200  0.61500900  0.91156800  1
  C  1049  1  0.89034100  0.61465800  0.88943100  1
  C  1050  1  0.84521500  0.60274100  0.82183700  1
  C  1052  1  0.92033000  0.61796500  0.89650400  1
  C  1057  1  0.62853300  0.77629500  0.86842600  1
  C  1059  1  0.60501700  0.73204100  0.88437600  1
  C  1060  1  0.62246200  0.71485700  0.86534300  1
  C  1062  1  0.64704800  0.75916300  0.85024900  1
  C  1065  1  0.69682900  0.77136900  0.84831600  1
  C  1069  1  0.40793500  0.21477900  0.86832500  1
  C  1071  1  0.43141800  0.25903100  0.88433800  1
  C  1072  1  0.41395100  0.27623200  0.86534100  1
  C  1074  1  0.38937300  0.23193100  0.85021500  1
  C  1077  1  0.33959200  0.21972100  0.84832600  1
  C  1081  1  0.62848300  0.21483100  0.07746000  1
  C  1083  1  0.60494500  0.25908200  0.06153000  1
  C  1084  1  0.62240200  0.27626800  0.08055000  1
  C  1086  1  0.64701200  0.23196600  0.09561800  1
  C  1089  1  0.69680200  0.21978100  0.09750200  1
  C  1093  1  0.40791800  0.77632100  0.07747800  1
  C  1095  1  0.43138500  0.73206100  0.06145500  1
  C  1096  1  0.41393400  0.71486600  0.08047100  1
  C  1098  1  0.38936300  0.75916900  0.09559700  1
  C  1101  1  0.33958400  0.77138300  0.09750700  1
  C  1105  1  0.79892500  0.89101900  0.58323000  1
  C  1107  1  0.75466800  0.90700500  0.55973400  1
  C  1108  1  0.73747700  0.88798300  0.57718200  1
  C  1110  1  0.78177900  0.87287800  0.60176800  1
  C  1113  1  0.79397900  0.87096300  0.65155200  1
  C  1117  1  0.23743600  0.89098200  0.36266600  1
  C  1119  1  0.28169100  0.90699200  0.38614500  1
  C  1120  1  0.29888800  0.88799100  0.36867900  1
  C  1122  1  0.25458400  0.87286700  0.34410600  1
  C  1125  1  0.24236800  0.87096900  0.29432700  1
  C  1129  1  0.23743400  0.10011500  0.58322300  1
  C  1131  1  0.28168200  0.08418400  0.55967700  1
  C  1132  1  0.29887200  0.10319900  0.57713300  1
  C  1134  1  0.25457800  0.11826800  0.60175400  1
  C  1137  1  0.24240100  0.12013700  0.65154500  1
  C  1141  1  0.79895100  0.10007400  0.36259800  1
  C  1143  1  0.75469800  0.08408900  0.38609200  1
  C  1144  1  0.73750900  0.10311400  0.36864200  1
  C  1146  1  0.78181300  0.11823000  0.34406700  1
  C  1149  1  0.79402500  0.12016100  0.29428700  1
  C  1153  1  0.91367400  0.60584700  0.75364800  1
  C  1155  1  0.92961500  0.58232800  0.70939300  1
  C  1156  1  0.91060000  0.59979000  0.69220600  1
  C  1158  1  0.89550700  0.62437300  0.73651400  1
  C  1161  1  0.89359000  0.67415600  0.74871400  1
  C  1165  1  0.91361500  0.38528600  0.19216200  1
  C  1167  1  0.92964100  0.40875000  0.23642600  1
  C  1168  1  0.91063200  0.39129200  0.25362200  1
  C  1170  1  0.89550300  0.36672700  0.20931600  1
  C  1173  1  0.89360400  0.31694700  0.19709900  1
  C  1177  1  0.12272100  0.60588800  0.19218600  1
  C  1179  1  0.10677900  0.58235800  0.23643500  1
  C  1180  1  0.12580800  0.59980800  0.25362200  1
  C  1182  1  0.14088900  0.62441000  0.20932100  1
  C  1185  1  0.14279200  0.67419600  0.19712300  1
  C  1189  1  0.12275000  0.38527300  0.75370500  1
  C  1191  1  0.10673800  0.40875800  0.70945000  1
  C  1192  1  0.12575100  0.39130600  0.69225400  1
  C  1194  1  0.14086900  0.36672100  0.73655300  1
  C  1197  1  0.14277000  0.31693600  0.74876000  1
  C  1201  1  0.79893100  0.60589200  0.07741900  1
  C  1203  1  0.75467500  0.58238600  0.06146200  1
  C  1204  1  0.73749100  0.59983700  0.08048900  1
  C  1206  1  0.78180200  0.62440900  0.09559700  1
  C  1209  1  0.79401500  0.67418700  0.09754200  1
  C  1213  1  0.23741500  0.38530000  0.07751500  1
  C  1215  1  0.28166800  0.40878200  0.06150100  1
  C  1216  1  0.29886800  0.39131600  0.08049800  1
  C  1218  1  0.25456700  0.36673900  0.09562500  1
  C  1221  1  0.24235700  0.31695800  0.09751500  1
  C  1225  1  0.23746100  0.60584600  0.86838300  1
  C  1227  1  0.28171400  0.58231000  0.88431300  1
  C  1228  1  0.29889800  0.59976700  0.86529200  1
  C  1230  1  0.25459700  0.62437800  0.85022400  1
  C  1233  1  0.24241000  0.67416600  0.84834100  1
  C  1237  1  0.79895400  0.38528000  0.86836800  1
  C  1239  1  0.75469300  0.40874800  0.88439000  1
  C  1240  1  0.73749900  0.39129600  0.86537400  1
  C  1242  1  0.78180200  0.36672800  0.85024900  1
  C  1245  1  0.79401600  0.31694800  0.84833800  1
  C  1249  1  0.91365400  0.77629500  0.36262400  1
  C  1251  1  0.92964700  0.73203200  0.38610900  1
  C  1252  1  0.91063400  0.71484200  0.36865100  1
  C  1254  1  0.89551200  0.75915000  0.34408400  1
  C  1257  1  0.89358200  0.77136500  0.29430500  1
  C  1261  1  0.91361600  0.21480200  0.58318000  1
  C  1263  1  0.92962700  0.25906000  0.55970100  1
  C  1264  1  0.91062600  0.27625500  0.57716600  1
  C  1266  1  0.89550200  0.23195100  0.60173900  1
  C  1269  1  0.89360400  0.21973500  0.65151900  1
  C  1273  1  0.12274700  0.21480400  0.36261800  1
  C  1275  1  0.10681800  0.25905000  0.38616400  1
  C  1276  1  0.12583300  0.27624100  0.36870800  1
  C  1278  1  0.14090100  0.23194700  0.34408700  1
  C  1281  1  0.14277000  0.21977000  0.29429400  1
  C  1285  1  0.12270200  0.77631700  0.58324800  1
  C  1287  1  0.10671700  0.73206200  0.55975400  1
  C  1288  1  0.12574200  0.71487500  0.57720100  1
  C  1290  1  0.14085900  0.75917700  0.60177900  1
  C  1293  1  0.14278800  0.77138900  0.65155800  1
  C  1297  1  0.62849000  0.89104200  0.19219500  1
  C  1299  1  0.60496400  0.90697800  0.23645000  1
  C  1300  1  0.62241700  0.88795500  0.25363500  1
  C  1302  1  0.64701500  0.87287600  0.20933100  1
  C  1305  1  0.69680000  0.87097000  0.19714000  1
  C  1309  1  0.40792400  0.89097700  0.75368100  1
  C  1311  1  0.43138600  0.90700700  0.70941900  1
  C  1312  1  0.41392400  0.88800400  0.69222100  1
  C  1314  1  0.38936600  0.87286500  0.73652700  1
  C  1317  1  0.33958700  0.87095600  0.74874900  1
  C  1321  1  0.62851900  0.10008600  0.75365700  1
  C  1323  1  0.60498900  0.08414400  0.70940800  1
  C  1324  1  0.62243600  0.10317300  0.69222400  1
  C  1326  1  0.64704100  0.11825300  0.73652300  1
  C  1329  1  0.69682500  0.12015600  0.74872000  1
  C  1333  1  0.40791200  0.10012200  0.19213600  1
  C  1335  1  0.43139600  0.08410900  0.23639100  1
  C  1336  1  0.41394200  0.10312300  0.25358700  1
  C  1338  1  0.38935700  0.11824100  0.20928800  1
  C  1341  1  0.33957600  0.12014300  0.19707900  1
  C  1345  1  0.40753000  0.21483100  0.07705400  1
  C  1347  1  0.43141400  0.25908000  0.06146900  1
  C  1348  1  0.41411100  0.27629100  0.08061600  1
  C  1350  1  0.38924100  0.23200500  0.09543200  1
  C  1353  1  0.33932800  0.22042200  0.09775400  1
  C  1357  1  0.62881800  0.77630300  0.07713100  1
  C  1359  1  0.60494500  0.73206600  0.06150600  1
  C  1360  1  0.62223500  0.71484600  0.08065500  1
  C  1362  1  0.64710800  0.75912000  0.09549600  1
  C  1365  1  0.69702600  0.77069200  0.09782200  1
  C  1369  1  0.40758000  0.77626000  0.86875000  1
  C  1371  1  0.43144200  0.73200800  0.88437300  1
  C  1372  1  0.41414800  0.71479400  0.86522400  1
  C  1374  1  0.38928100  0.75907600  0.85039300  1
  C  1377  1  0.33936800  0.77066000  0.84806700  1
  C  1381  1  0.62877400  0.21482000  0.86872200  1
  C  1383  1  0.60493000  0.25907500  0.88436600  1
  C  1384  1  0.62223400  0.27629100  0.86522700  1
  C  1386  1  0.64709800  0.23200900  0.85039300  1
  C  1389  1  0.69700900  0.22041600  0.84810400  1
  C  1393  1  0.23747900  0.09971600  0.36225100  1
  C  1395  1  0.28172600  0.08413800  0.38614700  1
  C  1396  1  0.29893400  0.10329200  0.36885000  1
  C  1398  1  0.25465500  0.11808800  0.34395700  1
  C  1401  1  0.24308300  0.12038300  0.29403900  1
  C  1405  1  0.79891500  0.09972600  0.58354400  1
  C  1407  1  0.75467200  0.08410600  0.55967200  1
  C  1408  1  0.73745500  0.10325300  0.57696900  1
  C  1410  1  0.78173500  0.11809000  0.60183600  1
  C  1413  1  0.79331300  0.12041800  0.65175100  1
  C  1417  1  0.79891100  0.89134800  0.36230800  1
  C  1419  1  0.75466300  0.90697600  0.38617100  1
  C  1420  1  0.73744800  0.88782000  0.36888500  1
  C  1422  1  0.78172600  0.87299100  0.34401200  1
  C  1425  1  0.79330300  0.87066700  0.29409600  1
  C  1429  1  0.23743200  0.89137200  0.58351100  1
  C  1431  1  0.28168700  0.90701700  0.55967000  1
  C  1432  1  0.29890200  0.88787100  0.57696900  1
  C  1434  1  0.25461900  0.87303700  0.60183100  1
  C  1437  1  0.24302800  0.87073500  0.65174200  1
  C  1441  1  0.12233300  0.38490600  0.19222100  1
  C  1443  1  0.10674800  0.40879100  0.23646800  1
  C  1444  1  0.12589800  0.39149200  0.25367900  1
  C  1446  1  0.14071300  0.36661900  0.20939500  1
  C  1449  1  0.14304000  0.31670400  0.19782000  1
  C  1453  1  0.12237800  0.60617700  0.75365900  1
  C  1455  1  0.10676200  0.58230300  0.70941700  1
  C  1456  1  0.12590200  0.59960400  0.69219900  1
  C  1458  1  0.14073500  0.62447800  0.73647900  1
  C  1461  1  0.14304000  0.67439400  0.74805400  1
  C  1465  1  0.91401900  0.38494100  0.75365500  1
  C  1467  1  0.92964200  0.40880000  0.70940200  1
  C  1468  1  0.91049800  0.39150000  0.69218600  1
  C  1470  1  0.89566500  0.36663700  0.73647200  1
  C  1473  1  0.89334200  0.31672500  0.74806200  1
  C  1477  1  0.91398300  0.60613500  0.19217100  1
  C  1479  1  0.92963600  0.58229600  0.23642600  1
  C  1480  1  0.91048700  0.59959000  0.25364200  1
  C  1482  1  0.89564500  0.62444900  0.20936000  1
  C  1485  1  0.89333500  0.67436300  0.19776800  1
  C  1489  1  0.23746300  0.38489200  0.86878400  1
  C  1491  1  0.28171200  0.40877500  0.88437000  1
  C  1492  1  0.29892200  0.39147300  0.86522300  1
  C  1494  1  0.25463600  0.36660200  0.85040600  1
  C  1497  1  0.24305500  0.31668900  0.84808300  1
  C  1501  1  0.79893500  0.60618200  0.86871400  1
  C  1503  1  0.75469500  0.58231300  0.88434100  1
  C  1504  1  0.73747700  0.59960300  0.86518900  1
  C  1506  1  0.78175400  0.62447200  0.85034700  1
  C  1509  1  0.79332800  0.67438800  0.84801600  1
  C  1513  1  0.79889600  0.38494600  0.07709600  1
  C  1515  1  0.75464700  0.40881200  0.06147500  1
  C  1516  1  0.73743000  0.39151500  0.08062300  1
  C  1518  1  0.78171300  0.36664500  0.09545400  1
  C  1521  1  0.79329700  0.31673400  0.09777600  1
  C  1525  1  0.23745500  0.60614400  0.07712000  1
  C  1527  1  0.28171000  0.58229900  0.06147700  1
  C  1528  1  0.29892700  0.59960400  0.08061600  1
  C  1530  1  0.25464400  0.62446600  0.09545000  1
  C  1533  1  0.24305200  0.67438000  0.09773900  1
  C  1537  1  0.12234700  0.21484400  0.58358700  1
  C  1539  1  0.10677000  0.25908900  0.55969200  1
  C  1540  1  0.12592200  0.27629700  0.57699100  1
  C  1542  1  0.14071600  0.23201700  0.60188200  1
  C  1545  1  0.14301100  0.22044800  0.65179900  1
  C  1549  1  0.12235700  0.77628300  0.36230200  1
  C  1551  1  0.10673900  0.73204000  0.38617300  1
  C  1552  1  0.12588400  0.71482300  0.36887700  1
  C  1554  1  0.14072100  0.75910500  0.34401000  1
  C  1557  1  0.14304900  0.77068300  0.29409600  1
  C  1561  1  0.91398200  0.77627800  0.58353700  1
  C  1563  1  0.92960700  0.73203200  0.55967000  1
  C  1564  1  0.91045400  0.71481700  0.57695800  1
  C  1566  1  0.89562600  0.75909100  0.60183600  1
  C  1569  1  0.89330900  0.77066500  0.65175100  1
  C  1573  1  0.91401100  0.21480000  0.36233000  1
  C  1575  1  0.92965600  0.25905500  0.38617300  1
  C  1576  1  0.91051000  0.27626900  0.36887400  1
  C  1578  1  0.89567500  0.23198800  0.34401200  1
  C  1581  1  0.89337300  0.22039500  0.29410100  1
  C  1585  1  0.40753800  0.09969600  0.75362000  1
  C  1587  1  0.43142300  0.08411100  0.70937300  1
  C  1588  1  0.41412400  0.10326100  0.69216200  1
  C  1590  1  0.38925200  0.11807600  0.73644600  1
  C  1593  1  0.33933700  0.12040400  0.74802100  1
  C  1597  1  0.62881500  0.09974900  0.19218600  1
  C  1599  1  0.60494000  0.08413100  0.23642600  1
  C  1600  1  0.62223900  0.10327400  0.25364600  1
  C  1602  1  0.64711300  0.11810600  0.20936700  1
  C  1605  1  0.69702800  0.12041300  0.19779200  1
  C  1609  1  0.40757400  0.89138800  0.19219100  1
  C  1611  1  0.43143300  0.90701200  0.23644200  1
  C  1612  1  0.41413300  0.88786700  0.25365700  1
  C  1614  1  0.38927200  0.87303400  0.20937300  1
  C  1617  1  0.33936100  0.87071000  0.19778300  1
  C  1621  1  0.62877600  0.89134600  0.75367200  1
  C  1623  1  0.60493200  0.90699900  0.70941900  1
  C  1624  1  0.62222600  0.88785000  0.69220200  1
  C  1626  1  0.64708900  0.87300800  0.73648300  1
  C  1629  1  0.69700200  0.87069900  0.74807100  1
  C  1633  1  0.66277000  0.46484300  0.85228100  1
  C  1635  1  0.65007300  0.50974300  0.87648400  1
  C  1636  1  0.66230000  0.52620600  0.85327200  1
  C  1638  1  0.67402800  0.48133300  0.82850000  1
  C  1641  1  0.66831400  0.46211000  0.78145300  1
  C  1645  1  0.37365100  0.52625300  0.85216400  1
  C  1647  1  0.38630100  0.48133700  0.87640200  1
  C  1648  1  0.37407000  0.46486600  0.85319300  1
  C  1650  1  0.36238100  0.50973800  0.82840600  1
  C  1653  1  0.36821300  0.52892900  0.78135500  1
  C  1657  1  0.66276000  0.52629700  0.09358800  1
  C  1659  1  0.65004900  0.48139300  0.06939200  1
  C  1660  1  0.66225800  0.46490800  0.09260300  1
  C  1662  1  0.67403700  0.50979400  0.11735400  1
  C  1665  1  0.66837600  0.52900400  0.16441200  1
  C  1669  1  0.37361700  0.46483600  0.09363600  1
  C  1671  1  0.38630600  0.50973700  0.06940500  1
  C  1672  1  0.37410200  0.52622600  0.09261800  1
  C  1674  1  0.36236100  0.48135000  0.11739500  1
  C  1677  1  0.36816300  0.46214800  0.16444500  1
  C  1681  1  0.48745700  0.87492300  0.61748100  1
  C  1683  1  0.53236500  0.89912800  0.60479000  1
  C  1684  1  0.54882800  0.87592100  0.61702700  1
  C  1686  1  0.50395500  0.85115200  0.62875500  1
  C  1689  1  0.48474600  0.80409800  0.62305500  1
  C  1693  1  0.54890000  0.87481800  0.32838000  1
  C  1695  1  0.50399800  0.89906300  0.34103400  1
  C  1696  1  0.48752400  0.87584900  0.32881400  1
  C  1698  1  0.53239300  0.85105100  0.31713200  1
  C  1701  1  0.55158800  0.80400600  0.32298300  1
  C  1705  1  0.54891100  0.11626600  0.61747400  1
  C  1707  1  0.50400300  0.09204900  0.60479000  1
  C  1708  1  0.48751400  0.11525800  0.61698900  1
  C  1710  1  0.53239600  0.14002100  0.62875500  1
  C  1713  1  0.55160000  0.18708100  0.62308400  1
  C  1717  1  0.48748200  0.11624500  0.32831900  1
  C  1719  1  0.53238200  0.09204600  0.34104000  1
  C  1720  1  0.54886300  0.11526000  0.32882500  1
  C  1722  1  0.50398000  0.14002000  0.31706600  1
  C  1725  1  0.48476700  0.18706500  0.32285800  1
  C  1729  1  0.89753500  0.64010400  0.44219200  1
  C  1731  1  0.92173300  0.62740900  0.48710100  1
  C  1732  1  0.89852400  0.63964600  0.50356200  1
  C  1734  1  0.87376100  0.65137800  0.45868300  1
  C  1737  1  0.82671000  0.64567900  0.43946600  1
  C  1741  1  0.89748500  0.35100200  0.50364100  1
  C  1743  1  0.92172700  0.36365200  0.45873600  1
  C  1744  1  0.89851400  0.35142900  0.44226200  1
  C  1746  1  0.87371800  0.33974800  0.48713400  1
  C  1749  1  0.82667300  0.34559500  0.50632700  1
  C  1753  1  0.13884100  0.64015300  0.50364900  1
  C  1755  1  0.11464400  0.62743700  0.45875600  1
  C  1756  1  0.13785700  0.63963900  0.44226600  1
  C  1758  1  0.16261300  0.65141900  0.48715500  1
  C  1761  1  0.20966500  0.64574700  0.50637700  1
  C  1765  1  0.13894900  0.35099700  0.44222000  1
  C  1767  1  0.11472200  0.36368300  0.48712900  1
  C  1768  1  0.13793100  0.35147400  0.50361900  1
  C  1770  1  0.16270200  0.33972900  0.45874000  1
  C  1773  1  0.20975700  0.34552500  0.43955100  1
  C  1777  1  0.48747900  0.64013700  0.09356600  1
  C  1779  1  0.53237800  0.62743700  0.06936400  1
  C  1780  1  0.54884200  0.63966700  0.09257500  1
  C  1782  1  0.50396900  0.65139500  0.11734700  1
  C  1785  1  0.48474600  0.64568100  0.16439200  1
  C  1789  1  0.54889000  0.35102300  0.09367800  1
  C  1791  1  0.50397400  0.36367300  0.06943800  1
  C  1792  1  0.48750300  0.35144200  0.09264700  1
  C  1794  1  0.53237500  0.33975200  0.11743500  1
  C  1797  1  0.55156500  0.34558400  0.16448600  1
  C  1801  1  0.54892600  0.64012000  0.85225800  1
  C  1803  1  0.50402500  0.62741300  0.87645600  1
  C  1804  1  0.48753700  0.63961800  0.85324500  1
  C  1806  1  0.53242500  0.65139300  0.82849100  1
  C  1809  1  0.55163500  0.64572500  0.78143400  1
  C  1813  1  0.48746900  0.35098500  0.85220600  1
  C  1815  1  0.53236900  0.36367300  0.87643700  1
  C  1816  1  0.54885800  0.35146900  0.85322500  1
  C  1818  1  0.50398200  0.33972900  0.82844600  1
  C  1821  1  0.48478300  0.34552800  0.78139600  1
  C  1825  1  0.89755900  0.46482400  0.32836500  1
  C  1827  1  0.92176400  0.50973300  0.34105400  1
  C  1828  1  0.89855600  0.52619600  0.32881900  1
  C  1830  1  0.87378600  0.48132100  0.31709500  1
  C  1833  1  0.82673400  0.46211000  0.32279900  1
  C  1837  1  0.89744900  0.52626800  0.61746300  1
  C  1839  1  0.92169300  0.48136600  0.60480900  1
  C  1840  1  0.89848000  0.46489200  0.61703100  1
  C  1842  1  0.87368300  0.50976100  0.62871600  1
  C  1845  1  0.82663800  0.52895500  0.62286900  1
  C  1849  1  0.13890300  0.52628000  0.32836700  1
  C  1851  1  0.11468500  0.48137100  0.34105100  1
  C  1852  1  0.13789400  0.46488200  0.32885200  1
  C  1854  1  0.16265500  0.50976400  0.31708600  1
  C  1857  1  0.20971700  0.52897000  0.32275700  1
  C  1861  1  0.13887400  0.46484600  0.61752200  1
  C  1863  1  0.11467600  0.50974700  0.60480300  1
  C  1864  1  0.13788800  0.52622700  0.61701800  1
  C  1866  1  0.16264900  0.48134400  0.62877700  1
  C  1869  1  0.20969100  0.46213000  0.62298500  1
  C  1873  1  0.66273300  0.87490100  0.50365100  1
  C  1875  1  0.65004700  0.89910400  0.45874000  1
  C  1876  1  0.66227700  0.87589300  0.44228000  1
  C  1878  1  0.67400200  0.85112500  0.48715800  1
  C  1881  1  0.66829000  0.80407400  0.50637300  1
  C  1885  1  0.37363500  0.87484800  0.44220300  1
  C  1887  1  0.38628500  0.89908900  0.48710900  1
  C  1888  1  0.37406400  0.87587600  0.50358100  1
  C  1890  1  0.36238100  0.85108100  0.45871000  1
  C  1893  1  0.36822700  0.80403700  0.43951400  1
  C  1897  1  0.66278800  0.11621200  0.44219600  1
  C  1899  1  0.65007000  0.09201300  0.48708800  1
  C  1900  1  0.66227400  0.11522600  0.50357700  1
  C  1902  1  0.67405200  0.13998400  0.45869000  1
  C  1905  1  0.66838000  0.18703600  0.43946800  1
  C  1909  1  0.37363000  0.11631700  0.50362100  1
  C  1911  1  0.38631500  0.09209100  0.45871000  1
  C  1912  1  0.37410800  0.11530100  0.44222300  1
  C  1914  1  0.36236200  0.14007000  0.48710100  1
  C  1917  1  0.36815600  0.18712500  0.50629200  1
  C  1921  1  0.16303300  0.96477700  0.35042900  1
  C  1923  1  0.14976100  0.00974600  0.37423200  1
  C  1924  1  0.16251100  0.02618300  0.35127800  1
  C  1926  1  0.17480700  0.98123800  0.32687300  1
  C  1929  1  0.17026400  0.96153300  0.27987500  1
  C  1933  1  0.87338100  0.02631900  0.35033200  1
  C  1935  1  0.88660700  0.98133400  0.37417100  1
  C  1936  1  0.87384700  0.96489200  0.35122300  1
  C  1938  1  0.86158900  0.00983500  0.32680100  1
  C  1941  1  0.86625100  0.02950300  0.27979400  1
  C  1945  1  0.16301700  0.02635000  0.59542300  1
  C  1947  1  0.14974600  0.98137800  0.57161800  1
  C  1948  1  0.16247300  0.96491900  0.59457200  1
  C  1950  1  0.17480700  0.00987600  0.61896500  1
  C  1953  1  0.17029700  0.02955900  0.66597500  1
  C  1957  1  0.87335500  0.96476900  0.59549800  1
  C  1959  1  0.88660900  0.00973700  0.57166000  1
  C  1960  1  0.87388200  0.02619900  0.59461400  1
  C  1962  1  0.86158100  0.98125500  0.61903300  1
  C  1965  1  0.86622600  0.96158400  0.66604100  1
  C  1969  1  0.98739100  0.37305000  0.11774600  1
  C  1971  1  0.03236700  0.39685900  0.10448700  1
  C  1972  1  0.04880400  0.37391200  0.11724800  1
  C  1974  1  0.00386100  0.34950700  0.12954000  1
  C  1977  1  0.98417400  0.30249800  0.12501400  1
  C  1981  1  0.04897500  0.37298300  0.82811600  1
  C  1983  1  0.00400100  0.39681300  0.84135900  1
  C  1984  1  0.98755600  0.37386400  0.82860200  1
  C  1986  1  0.03249800  0.34944300  0.81633500  1
  C  1989  1  0.05217400  0.30244000  0.82099400  1
  C  1993  1  0.04897100  0.61809700  0.11775100  1
  C  1995  1  0.00399800  0.59426500  0.10450200  1
  C  1996  1  0.98753200  0.61721800  0.11722000  1
  C  1998  1  0.03247900  0.64162400  0.12954500  1
  C  2001  1  0.05215500  0.68864000  0.12502900  1
  C  2005  1  0.98743000  0.61807500  0.82807400  1
  C  2007  1  0.03239600  0.59426600  0.84135400  1
  C  2008  1  0.04885000  0.61722500  0.82862500  1
  C  2010  1  0.00389900  0.64163000  0.81631300  1
  C  2013  1  0.98421200  0.68862700  0.82096300  1
  C  2017  1  0.39569300  0.14036800  0.94211200  1
  C  2019  1  0.41949300  0.12710300  0.98709200  1
  C  2020  1  0.39654300  0.13986400  0.00352400  1
  C  2022  1  0.37214700  0.15216200  0.95857700  1
  C  2025  1  0.32514000  0.14763400  0.93888300  1
  C  2029  1  0.39561600  0.85073500  0.00370400  1
  C  2031  1  0.41945100  0.86396900  0.95873000  1
  C  2032  1  0.39650300  0.85120800  0.94228600  1
  C  2034  1  0.37208000  0.83894900  0.98722700  1
  C  2037  1  0.32507500  0.84360700  0.00690200  1
  C  2041  1  0.64068300  0.14041800  0.00368900  1
  C  2043  1  0.61687500  0.12713900  0.95872900  1
  C  2044  1  0.63983300  0.13985600  0.94226700  1
  C  2046  1  0.66423100  0.15219300  0.98722100  1
  C  2049  1  0.71123700  0.14767200  0.00691900  1
  C  2053  1  0.64077400  0.85074200  0.94215900  1
  C  2055  1  0.61693700  0.86398700  0.98713600  1
  C  2056  1  0.63989100  0.85126000  0.00359700  1
  C  2058  1  0.66430300  0.83896000  0.95865100  1
  C  2061  1  0.71131200  0.84360800  0.93898600  1
  C  2065  1  0.98741000  0.14039500  0.59541400  1
  C  2067  1  0.03237600  0.12712400  0.57161100  1
  C  2068  1  0.04881600  0.13987400  0.59456400  1
  C  2070  1  0.00387200  0.15217200  0.61897000  1
  C  2073  1  0.98416800  0.14763100  0.66596900  1
  C  2077  1  0.04895200  0.85074900  0.59551300  1
  C  2079  1  0.00396600  0.86397600  0.57167700  1
  C  2080  1  0.98752400  0.85121700  0.59462500  1
  C  2082  1  0.03246700  0.83895800  0.61904400  1
  C  2085  1  0.05213800  0.84362000  0.66605200  1
  C  2089  1  0.04898500  0.14038200  0.35041800  1
  C  2091  1  0.00401600  0.12711200  0.37422300  1
  C  2092  1  0.98755500  0.13983800  0.35126900  1
  C  2094  1  0.03251000  0.15217300  0.32687600  1
  C  2097  1  0.05219200  0.14766200  0.27986400  1
  C  2101  1  0.98740300  0.85072700  0.35035600  1
  C  2103  1  0.03237100  0.86398000  0.37419300  1
  C  2104  1  0.04883200  0.85125300  0.35123800  1
  C  2106  1  0.00388700  0.83895300  0.32682100  1
  C  2109  1  0.98421300  0.84359800  0.27981300  1
  C  2113  1  0.39568400  0.96475400  0.82809800  1
  C  2115  1  0.41949200  0.00973100  0.84135600  1
  C  2116  1  0.39654600  0.02616600  0.82859200  1
  C  2118  1  0.37213900  0.98122300  0.81630100  1
  C  2121  1  0.32513200  0.96153500  0.82082800  1
  C  2125  1  0.39561800  0.02634400  0.11772600  1
  C  2127  1  0.41944700  0.98136800  0.10448500  1
  C  2128  1  0.39649800  0.96492400  0.11724200  1
  C  2130  1  0.37207900  0.00986800  0.12950700  1
  C  2133  1  0.32507800  0.02954600  0.12484900  1
  C  2137  1  0.64073200  0.02633400  0.82809300  1
  C  2139  1  0.61690000  0.98136100  0.84133900  1
  C  2140  1  0.63985400  0.96489600  0.82862400  1
  C  2142  1  0.66426000  0.00984700  0.81629800  1
  C  2145  1  0.71127400  0.02952200  0.82081500  1
  C  2149  1  0.64072100  0.96479900  0.11777000  1
  C  2151  1  0.61690900  0.00976400  0.10449100  1
  C  2152  1  0.63986500  0.02622000  0.11722000  1
  C  2154  1  0.66427200  0.98127000  0.12953100  1
  C  2157  1  0.71127000  0.96158400  0.12488200  1
  C  2161  1  0.16300200  0.37305600  0.00372800  1
  C  2163  1  0.14973600  0.39685600  0.95874900  1
  C  2164  1  0.16249700  0.37390600  0.94231600  1
  C  2166  1  0.17479600  0.34951000  0.98726400  1
  C  2169  1  0.17027200  0.30250400  0.00695900  1
  C  2173  1  0.87336800  0.37298100  0.94214000  1
  C  2175  1  0.88660300  0.39681600  0.98711500  1
  C  2176  1  0.87384300  0.37386800  0.00355900  1
  C  2178  1  0.86158300  0.34944500  0.95861800  1
  C  2181  1  0.86624100  0.30244000  0.93894500  1
  C  2185  1  0.16304900  0.61804500  0.94215400  1
  C  2187  1  0.14977400  0.59423900  0.98711500  1
  C  2188  1  0.16248900  0.61719800  0.00357500  1
  C  2190  1  0.17482200  0.64159800  0.95862100  1
  C  2193  1  0.17029900  0.68860200  0.93892200  1
  C  2197  1  0.87337700  0.61813200  0.00368400  1
  C  2199  1  0.88661900  0.59429400  0.95870800  1
  C  2200  1  0.87389200  0.61725100  0.94224900  1
  C  2202  1  0.86159500  0.64166300  0.98719400  1
  C  2205  1  0.86624500  0.68867300  0.00685800  1
  N  1058  1  0.60868400  0.76147400  0.88504400  1
  N  1061  1  0.64271500  0.72957900  0.84900400  1
  N  1070  1  0.42776900  0.22959700  0.88496700  1
  N  1073  1  0.39369100  0.26152200  0.84900200  1
  N  1082  1  0.60861800  0.22965200  0.06085900  1
  N  1085  1  0.64267400  0.26155200  0.09686600  1
  N  1094  1  0.42773600  0.76149600  0.06082600  1
  N  1097  1  0.39368100  0.72958100  0.09681600  1
  N  1106  1  0.78410000  0.90765300  0.56339400  1
  N  1109  1  0.75219300  0.87164600  0.59744100  1
  N  1118  1  0.25225600  0.90762400  0.38249800  1
  N  1121  1  0.28417300  0.87165000  0.34842400  1
  N  1130  1  0.25225000  0.08351600  0.56335200  1
  N  1133  1  0.28416100  0.11951300  0.59741200  1
  N  1142  1  0.78413200  0.08343900  0.38243600  1
  N  1145  1  0.75222600  0.11946100  0.34839400  1
  N  1154  1  0.93028200  0.58599200  0.73882500  1
  N  1157  1  0.89426500  0.62004400  0.70692800  1
  N  1166  1  0.93026600  0.40510600  0.20698900  1
  N  1169  1  0.89428900  0.37103900  0.23890700  1
  N  1178  1  0.10611200  0.58602800  0.20700200  1
  N  1181  1  0.14213500  0.62007400  0.23890700  1
  N  1190  1  0.10610300  0.40510600  0.73888700  1
  N  1193  1  0.14208900  0.37104600  0.70696700  1
  N  1202  1  0.78410900  0.58604500  0.06080000  1
  N  1205  1  0.75221500  0.62007800  0.09683600  1
  N  1214  1  0.25223100  0.40513600  0.06087200  1
  N  1217  1  0.28415800  0.37105900  0.09683800  1
  N  1226  1  0.25228200  0.58598300  0.88498400  1
  N  1229  1  0.28418300  0.62003900  0.84897500  1
  N  1238  1  0.78412800  0.40510000  0.88502000  1
  N  1241  1  0.75221200  0.37104600  0.84903000  1
  N  1250  1  0.93029000  0.76146700  0.38245600  1
  N  1253  1  0.89428600  0.72956200  0.34840700  1
  N  1262  1  0.93025900  0.22962200  0.56334800  1
  N  1265  1  0.89428500  0.26154200  0.59742100  1
  N  1274  1  0.10614900  0.22961700  0.38248700  1
  N  1277  1  0.14214600  0.26153100  0.34842900  1
  N  1286  1  0.10606800  0.76149700  0.56340900  1
  N  1289  1  0.14208900  0.72959100  0.59745000  1
  N  1298  1  0.60863300  0.90764800  0.20701800  1
  N  1301  1  0.64268000  0.87162800  0.23891800  1
  N  1310  1  0.42774400  0.90763000  0.73885600  1
  N  1313  1  0.39367700  0.87165400  0.70693900  1
  N  1322  1  0.60865900  0.08347600  0.73884100  1
  N  1325  1  0.64270500  0.11949900  0.70693900  1
  N  1334  1  0.42774200  0.08347400  0.20695600  1
  N  1337  1  0.39368500  0.11946100  0.23887400  1
  N  1346  1  0.42748400  0.22965800  0.06054800  1
  N  1349  1  0.39378700  0.26155800  0.09686000  1
  N  1358  1  0.60887500  0.76148800  0.06060000  1
  N  1361  1  0.64256000  0.72956700  0.09690800  1
  N  1370  1  0.42751700  0.76143200  0.88527900  1
  N  1373  1  0.39382500  0.72952300  0.84897400  1
  N  1382  1  0.60884400  0.22964900  0.88525900  1
  N  1385  1  0.64256300  0.26156500  0.84898400  1
  N  1394  1  0.25230500  0.08321300  0.38221200  1
  N  1397  1  0.28420800  0.11951900  0.34850800  1
  N  1406  1  0.78409500  0.08319800  0.56360000  1
  N  1409  1  0.75218200  0.11950700  0.59728900  1
  N  1418  1  0.78408500  0.90788100  0.38224300  1
  N  1421  1  0.75217100  0.87157200  0.34855800  1
  N  1430  1  0.25226300  0.90791200  0.56358500  1
  N  1433  1  0.28417700  0.87162500  0.59729600  1
  N  1442  1  0.10582400  0.40486000  0.20704600  1
  N  1445  1  0.14214400  0.37116700  0.23894800  1
  N  1454  1  0.10585500  0.58622800  0.73884100  1
  N  1457  1  0.14214900  0.61993300  0.70692300  1
  N  1466  1  0.93054700  0.40487800  0.73882500  1
  N  1469  1  0.89424900  0.37117700  0.70691500  1
  N  1478  1  0.93052900  0.58621300  0.20700200  1
  N  1481  1  0.89423700  0.61991300  0.23891500  1
  N  1490  1  0.25229100  0.40484600  0.88529100  1
  N  1493  1  0.28418900  0.37114800  0.84897800  1
  N  1502  1  0.78411800  0.58624000  0.88524700  1
  N  1505  1  0.75219900  0.61992600  0.84893400  1
  N  1514  1  0.78406900  0.40488400  0.06056700  1
  N  1517  1  0.75215800  0.37118900  0.09687100  1
  N  1526  1  0.25228600  0.58621400  0.06058500  1
  N  1529  1  0.28420200  0.61993300  0.09685800  1
  N  1538  1  0.10584400  0.22967000  0.56362600  1
  N  1541  1  0.14215000  0.26157300  0.59733100  1
  N  1550  1  0.10582900  0.76146400  0.38224500  1
  N  1553  1  0.14213800  0.72954900  0.34855600  1
  N  1562  1  0.93051200  0.76145400  0.56360000  1
  N  1565  1  0.89420800  0.72953800  0.59728700  1
  N  1574  1  0.93055100  0.22962900  0.38225800  1
  N  1577  1  0.89426400  0.26154300  0.34854700  1
  N  1586  1  0.42749100  0.08318700  0.73879500  1
  N  1589  1  0.39379900  0.11950700  0.70689300  1
  N  1598  1  0.60886700  0.08322400  0.20700500  1
  N  1601  1  0.64257000  0.11952000  0.23892200  1
  N  1610  1  0.42751100  0.90791600  0.20702000  1
  N  1613  1  0.39381000  0.87161700  0.23892900  1
  N  1622  1  0.60885200  0.90789100  0.73884300  1
  N  1625  1  0.64255100  0.87160000  0.70692800  1
  N  1634  1  0.65144600  0.47995700  0.87541300  1
  N  1637  1  0.67415300  0.51103700  0.83050400  1
  N  1646  1  0.38491300  0.51112100  0.87532000  1
  N  1649  1  0.36224900  0.48003600  0.83041200  1
  N  1658  1  0.65142800  0.51117700  0.07046400  1
  N  1661  1  0.67414400  0.48009100  0.11534500  1
  N  1670  1  0.38489800  0.47995300  0.07048000  1
  N  1673  1  0.36225800  0.51105200  0.11538600  1
  N  1682  1  0.50258100  0.89805100  0.60615800  1
  N  1685  1  0.53365900  0.85315700  0.62888400  1
  N  1694  1  0.53378400  0.89798300  0.33964100  1
  N  1697  1  0.50269100  0.85306100  0.31700300  1
  N  1706  1  0.53378600  0.09313200  0.60616700  1
  N  1709  1  0.50269400  0.13800600  0.62886900  1
  N  1718  1  0.50259700  0.09310400  0.33962600  1
  N  1721  1  0.53368200  0.13802000  0.31697000  1
  N  1730  1  0.92066000  0.62878100  0.45731700  1
  N  1733  1  0.87576200  0.65150700  0.48838800  1
  N  1742  1  0.92064800  0.36226100  0.48852200  1
  N  1745  1  0.87572700  0.33961700  0.45743100  1
  N  1754  1  0.11571300  0.62882000  0.48853900  1
  N  1757  1  0.16060300  0.65152300  0.45745100  1
  N  1766  1  0.11579800  0.36227400  0.45734600  1
  N  1769  1  0.16069600  0.33962500  0.48844300  1
  N  1778  1  0.50259300  0.62881000  0.07043400  1
  N  1781  1  0.53367300  0.65152000  0.11534300  1
  N  1790  1  0.53375700  0.36228200  0.07051900  1
  N  1793  1  0.50267300  0.33962100  0.11542800  1
  N  1802  1  0.53380800  0.62879300  0.87538500  1
  N  1805  1  0.50272100  0.65150100  0.83050000  1
  N  1814  1  0.50258400  0.36226300  0.87536200  1
  N  1817  1  0.53368400  0.33962300  0.83045500  1
  N  1826  1  0.92068800  0.47994700  0.33968500  1
  N  1829  1  0.87579100  0.51102500  0.31696300  1
  N  1838  1  0.92061300  0.51115200  0.60620200  1
  N  1841  1  0.87569300  0.48005900  0.62884300  1
  N  1850  1  0.11576900  0.51115500  0.33967600  1
  N  1853  1  0.16064200  0.48006200  0.31697200  1
  N  1862  1  0.11573400  0.47996100  0.60621700  1
  N  1865  1  0.16064900  0.51104600  0.62887300  1
  N  1874  1  0.65141600  0.89803000  0.48852600  1
  N  1877  1  0.67413100  0.85312700  0.45745300  1
  N  1886  1  0.38489400  0.89801200  0.45732400  1
  N  1889  1  0.36225200  0.85308900  0.48841200  1
  N  1898  1  0.65145300  0.09308200  0.45730400  1
  N  1901  1  0.67415600  0.13797200  0.48839500  1
  N  1910  1  0.38490800  0.09316500  0.48849300  1
  N  1913  1  0.36225800  0.13806600  0.45739800  1
  N  1922  1  0.15116300  0.97994900  0.37325400  1
  N  1925  1  0.17487000  0.01094400  0.32882500  1
  N  1934  1  0.88519100  0.01113000  0.37318200  1
  N  1937  1  0.86151900  0.98013200  0.32875500  1
  N  1946  1  0.15115000  0.01117300  0.57260000  1
  N  1949  1  0.17485500  0.98017000  0.61700700  1
  N  1958  1  0.88517600  0.97994100  0.57264400  1
  N  1961  1  0.86153600  0.01095900  0.61707500  1
  N  1970  1  0.00257000  0.39587200  0.10588000  1
  N  1973  1  0.03356500  0.35146200  0.12961300  1
  N  1982  1  0.03379500  0.39583200  0.83993800  1
  N  1985  1  0.00279400  0.35139600  0.81627200  1
  N  1994  1  0.03379200  0.59526200  0.10590600  1
  N  1997  1  0.00277700  0.63965700  0.12959700  1
  N  2006  1  0.00259900  0.59523300  0.83991400  1
  N  2009  1  0.03360400  0.63968000  0.81627600  1
  N  2018  1  0.41851200  0.12849800  0.95729600  1
  N  2021  1  0.37409500  0.15222900  0.98828300  1
  N  2030  1  0.41846700  0.86255300  0.98852600  1
  N  2033  1  0.37403500  0.83888000  0.95752400  1
  N  2042  1  0.61785600  0.12854800  0.98852500  1
  N  2045  1  0.66227200  0.15223500  0.95751600  1
  N  2054  1  0.61792300  0.86255500  0.95734100  1
  N  2057  1  0.66235000  0.83891400  0.98835400  1
  N  2066  1  0.00258200  0.12852600  0.57258900  1
  N  2069  1  0.03357700  0.15223400  0.61701800  1
  N  2078  1  0.03376000  0.86255900  0.57266400  1
  N  2081  1  0.00276500  0.83888900  0.61709300  1
  N  2090  1  0.03381000  0.12851500  0.37324100  1
  N  2093  1  0.00280600  0.15222100  0.32883400  1
  N  2102  1  0.00257500  0.86254700  0.37320800  1
  N  2105  1  0.03359000  0.83890800  0.32877700  1
  N  2114  1  0.41850500  0.97993500  0.83996300  1
  N  2117  1  0.37409600  0.01092800  0.81623000  1
  N  2126  1  0.41846700  0.01116400  0.10590600  1
  N  2129  1  0.37403300  0.98016400  0.12957100  1
  N  2138  1  0.61789600  0.01115400  0.83993700  1
  N  2141  1  0.66229500  0.98014200  0.81624600  1
  N  2150  1  0.61787800  0.97996800  0.10593000  1
  N  2153  1  0.66232200  0.01097400  0.12956900  1
  N  2162  1  0.15113400  0.39587500  0.98854400  1
  N  2165  1  0.17486400  0.35146000  0.95755800  1
  N  2174  1  0.88518600  0.39583200  0.95731900  1
  N  2177  1  0.86151500  0.35140100  0.98832200  1
  N  2186  1  0.15118300  0.59521800  0.95732000  1
  N  2189  1  0.17486700  0.63963700  0.98832600  1
  N  2198  1  0.88518900  0.59528000  0.98850300  1
  N  2201  1  0.86154800  0.63970800  0.95749100  1
  O  1064  1  0.66890500  0.77126900  0.83368800  1
  O  1076  1  0.36749900  0.21983700  0.83366800  1
  O  1088  1  0.66889000  0.21986700  0.11215600  1
  O  1100  1  0.36749900  0.77126600  0.11215200  1
  O  1112  1  0.79387700  0.85632200  0.62363400  1
  O  1124  1  0.24248500  0.85631700  0.32223700  1
  O  1136  1  0.24248400  0.13480100  0.62363900  1
  O  1148  1  0.79391600  0.13479200  0.32220900  1
  O  1160  1  0.87895400  0.64623700  0.74861700  1
  O  1172  1  0.87895100  0.34485800  0.19721900  1
  O  1184  1  0.15743500  0.64627900  0.19721700  1
  O  1196  1  0.15742000  0.34484900  0.74865000  1
  O  1208  1  0.79390900  0.64626000  0.11216500  1
  O  1220  1  0.24247300  0.34486600  0.11217400  1
  O  1232  1  0.24249500  0.64625600  0.83368700  1
  O  1244  1  0.79389900  0.34486300  0.83369300  1
  O  1256  1  0.87894900  0.77125000  0.32222600  1
  O  1268  1  0.87895200  0.21985200  0.62360600  1
  O  1280  1  0.15743300  0.21985000  0.32220200  1
  O  1292  1  0.15742100  0.77128000  0.62363400  1
  O  1304  1  0.66888500  0.85632800  0.19723000  1
  O  1316  1  0.36750200  0.85630800  0.74862600  1
  O  1328  1  0.66891000  0.13480100  0.74862600  1
  O  1340  1  0.36748800  0.13479200  0.19719100  1
  O  1352  1  0.36741200  0.21994300  0.11206000  1
  O  1364  1  0.66894300  0.77117400  0.11212500  1
  O  1376  1  0.36745100  0.77113400  0.83376100  1
  O  1388  1  0.66893800  0.21995200  0.83377600  1
  O  1400  1  0.24259500  0.13470100  0.32211500  1
  O  1412  1  0.79379100  0.13472100  0.62366700  1
  O  1424  1  0.79378000  0.85636100  0.32218000  1
  O  1436  1  0.24256300  0.85641400  0.62366700  1
  O  1448  1  0.15734300  0.34478800  0.19733600  1
  O  1460  1  0.15735600  0.64631400  0.74853400  1
  O  1472  1  0.87903500  0.34480700  0.74853000  1
  O  1484  1  0.87901900  0.64628300  0.19730300  1
  O  1496  1  0.24257400  0.34477400  0.83377900  1
  O  1508  1  0.79380800  0.64630200  0.83371500  1
  O  1520  1  0.79377000  0.34481500  0.11208400  1
  O  1532  1  0.24258700  0.64630900  0.11206600  1
  O  1544  1  0.15733100  0.21995900  0.62372400  1
  O  1556  1  0.15735200  0.77116000  0.32218000  1
  O  1568  1  0.87899900  0.77114400  0.62367200  1
  O  1580  1  0.87905300  0.21993100  0.32217600  1
  O  1592  1  0.36742300  0.13470600  0.74850500  1
  O  1604  1  0.66895100  0.13472700  0.19731100  1
  O  1616  1  0.36744200  0.85640300  0.19731400  1
  O  1628  1  0.66892500  0.85638300  0.74853800  1
  O  1640  1  0.68795100  0.46855900  0.80523900  1
  O  1652  1  0.34852500  0.52253300  0.80511400  1
  O  1664  1  0.68798700  0.52255600  0.14060400  1
  O  1676  1  0.34848700  0.46856200  0.14067900  1
  O  1688  1  0.49118300  0.82789300  0.64268500  1
  O  1700  1  0.54518700  0.82775500  0.30328500  1
  O  1712  1  0.54515500  0.16327700  0.64270100  1
  O  1724  1  0.49118600  0.16329700  0.30318900  1
  O  1736  1  0.85050400  0.66530900  0.44590900  1
  O  1748  1  0.85042500  0.32589700  0.49993000  1
  O  1760  1  0.18586600  0.66536400  0.49991900  1
  O  1772  1  0.18598700  0.32585400  0.44595700  1
  O  1784  1  0.49119300  0.66531800  0.14060600  1
  O  1796  1  0.54516900  0.32589600  0.14072700  1
  O  1808  1  0.54518600  0.66534100  0.80523700  1
  O  1820  1  0.49119400  0.32585400  0.80516200  1
  O  1832  1  0.85052600  0.46854900  0.30316700  1
  O  1844  1  0.85038900  0.52255500  0.64256500  1
  O  1856  1  0.18591100  0.52252600  0.30314100  1
  O  1868  1  0.18592600  0.46854900  0.64265700  1
  O  1880  1  0.68792600  0.82786400  0.49993200  1
  O  1892  1  0.34853100  0.82778800  0.44591300  1
  O  1904  1  0.68799900  0.16323600  0.44592700  1
  O  1916  1  0.34848400  0.16335600  0.49988400  1
  O  1928  1  0.18933700  0.96846800  0.30397800  1
  O  1940  1  0.84712800  0.02262800  0.30387300  1
  O  1952  1  0.18935200  0.02263200  0.64185600  1
  O  1964  1  0.84710900  0.96847300  0.64195900  1
  O  1976  1  0.99109500  0.32661200  0.14407600  1
  O  1988  1  0.04529200  0.32652000  0.80187200  1
  O  2000  1  0.04523000  0.66452100  0.14408700  1
  O  2012  1  0.99111000  0.66455300  0.80184200  1
  O  2024  1  0.34925400  0.16669600  0.94580700  1
  O  2036  1  0.34915600  0.82448600  0.00002200  1
  O  2048  1  0.68712700  0.16673400  0.99997800  1
  O  2060  1  0.68723100  0.82449000  0.94587100  1
  O  2072  1  0.99110300  0.16670200  0.64186500  1
  O  2084  1  0.04526000  0.82449700  0.64197200  1
  O  2096  1  0.04526700  0.16671700  0.30398500  1
  O  2108  1  0.99110300  0.82448100  0.30389500  1
  O  2120  1  0.34924600  0.96845600  0.80176600  1
  O  2132  1  0.34915600  0.02266200  0.14397300  1
  O  2144  1  0.68715700  0.02259800  0.80175600  1
  O  2156  1  0.68719600  0.96848100  0.14400100  1
  O  2168  1  0.18933200  0.32661900  0.00003500  1
  O  2180  1  0.84711900  0.32652200  0.94582500  1
  O  2192  1  0.18936100  0.66449300  0.94586200  1
  O  2204  1  0.84712600  0.66459200  0.99997400  1
