# generated using pymatgen
data_H22C37N10
_symmetry_space_group_name_H-M   'P 1'
_cell_length_a   38.89030000
_cell_length_b   38.89030000
_cell_length_c   46.17480000
_cell_angle_alpha   90.00160000
_cell_angle_beta   89.99840000
_cell_angle_gamma   90.00000000
_symmetry_Int_Tables_number   1
_chemical_formula_structural   H22C37N10
_chemical_formula_sum   'H352 C592 N160'
_cell_volume   69837.32712356
_cell_formula_units_Z   16
loop_
 _symmetry_equiv_pos_site_id
 _symmetry_equiv_pos_as_xyz
  1  'x, y, z'
loop_
 _atom_site_type_symbol
 _atom_site_label
 _atom_site_symmetry_multiplicity
 _atom_site_fract_x
 _atom_site_fract_y
 _atom_site_fract_z
 _atom_site_occupancy
  H  25  1  0.83891200  0.14110100  0.74070700  1
  H  26  1  0.84737600  0.08162100  0.74673200  1
  H  27  1  0.84644100  0.01731200  0.74727300  1
  H  28  1  0.83152100  0.95833800  0.74580900  1
  H  29  1  0.76163100  0.97632800  0.67821600  1
  H  30  1  0.76131500  0.12253400  0.67834800  1
  H  31  1  0.72265700  0.04946300  0.73229500  1
  H  32  1  0.63095200  0.04946700  0.68350500  1
  H  33  1  0.66411600  0.04946500  0.63966700  1
  H  34  1  0.82278200  0.04946300  0.64268600  1
  H  35  1  0.70953500  0.04945900  0.59903400  1
  H  36  1  0.75957200  0.04945800  0.56846300  1
  H  42  1  0.77820400  0.18370600  0.69223400  1
  H  43  1  0.77587600  0.91710100  0.69181200  1
  H  44  1  0.84884600  0.04944300  0.59498000  1
  H  45  1  0.66713600  0.04946900  0.75699700  1
  H  70  1  0.26001200  0.95779900  0.74067600  1
  H  71  1  0.25153900  0.01730600  0.74671900  1
  H  72  1  0.25248800  0.08163400  0.74727300  1
  H  73  1  0.26740100  0.14059900  0.74579000  1
  H  74  1  0.33728200  0.12259500  0.67818800  1
  H  75  1  0.33759100  0.97639900  0.67831300  1
  H  76  1  0.37608700  0.04947100  0.73228000  1
  H  77  1  0.46727600  0.04946700  0.68223100  1
  H  78  1  0.43434600  0.04946800  0.63909300  1
  H  79  1  0.27604200  0.04947000  0.64264200  1
  H  80  1  0.38933600  0.04947400  0.59897600  1
  H  81  1  0.33930700  0.04947600  0.56840900  1
  H  87  1  0.32069900  0.91541900  0.69236200  1
  H  88  1  0.32303900  0.18182900  0.69178200  1
  H  89  1  0.25000900  0.04947100  0.59488300  1
  H  90  1  0.43473800  0.04946400  0.75622000  1
  H  115  1  0.14113000  0.26002100  0.24071100  1
  H  116  1  0.08161800  0.25154900  0.24674600  1
  H  117  1  0.01730400  0.25247200  0.24728100  1
  H  118  1  0.95833700  0.26739900  0.24581900  1
  H  119  1  0.97632900  0.33729300  0.17823100  1
  H  120  1  0.12253800  0.33761200  0.17836100  1
  H  121  1  0.04946700  0.37626600  0.23231000  1
  H  122  1  0.04947400  0.46797100  0.18351900  1
  H  123  1  0.04947000  0.43481000  0.13967900  1
  H  124  1  0.04946200  0.27614300  0.14270000  1
  H  125  1  0.04946400  0.38938800  0.09904700  1
  H  126  1  0.04945900  0.33935200  0.06847800  1
  H  132  1  0.18349900  0.32070300  0.19240500  1
  H  133  1  0.91710400  0.32303800  0.19182200  1
  H  134  1  0.04945900  0.25007300  0.09498800  1
  H  135  1  0.04947600  0.43179000  0.25701000  1
  H  160  1  0.95781300  0.83891800  0.24075200  1
  H  161  1  0.01728900  0.84738800  0.24678100  1
  H  162  1  0.08161100  0.84645100  0.24732500  1
  H  163  1  0.14058400  0.83152900  0.24585200  1
  H  164  1  0.12258200  0.76164300  0.17825200  1
  H  165  1  0.97638600  0.76132800  0.17838000  1
  H  166  1  0.04945100  0.72283600  0.23234500  1
  H  167  1  0.04944500  0.63165200  0.18228700  1
  H  168  1  0.04944700  0.66458200  0.13915300  1
  H  169  1  0.04945400  0.82287000  0.14268900  1
  H  170  1  0.04945300  0.70957600  0.09904000  1
  H  171  1  0.04945700  0.75960300  0.06845800  1
  H  177  1  0.91517700  0.77822600  0.19221900  1
  H  178  1  0.18181500  0.77589300  0.19184200  1
  H  179  1  0.04946900  0.84887300  0.09500500  1
  H  180  1  0.04944300  0.66417400  0.25627800  1
  H  205  1  0.83152500  0.95831000  0.24733100  1
  H  206  1  0.84645900  0.01727700  0.24586700  1
  H  207  1  0.84739000  0.08160700  0.24640600  1
  H  208  1  0.83891800  0.14111800  0.25245100  1
  H  209  1  0.76131200  0.12251600  0.31479000  1
  H  210  1  0.76161500  0.97632000  0.31491300  1
  H  211  1  0.72262400  0.04944000  0.26078200  1
  H  212  1  0.63090800  0.04943600  0.30961600  1
  H  213  1  0.66408700  0.04944300  0.35344500  1
  H  214  1  0.82285700  0.04945000  0.35034600  1
  H  215  1  0.70896500  0.04944700  0.39372100  1
  H  216  1  0.75819200  0.04945300  0.42404000  1
  H  222  1  0.77586000  0.91709900  0.30133900  1
  H  223  1  0.77824200  0.18349300  0.30078900  1
  H  224  1  0.84783600  0.04945700  0.40100600  1
  H  225  1  0.66712200  0.04943600  0.23613000  1
  H  250  1  0.26741000  0.14061600  0.24734200  1
  H  251  1  0.25246800  0.08164500  0.24587400  1
  H  252  1  0.25152200  0.01731300  0.24642400  1
  H  253  1  0.25998700  0.95783700  0.25246200  1
  H  254  1  0.33759000  0.97641700  0.31481800  1
  H  255  1  0.33729400  0.12260900  0.31493500  1
  H  256  1  0.37612300  0.04948600  0.26079700  1
  H  257  1  0.46731700  0.04949000  0.31089000  1
  H  258  1  0.43437400  0.04948700  0.35401700  1
  H  259  1  0.27597700  0.04947600  0.35040300  1
  H  260  1  0.38991400  0.04948000  0.39377500  1
  H  261  1  0.34069800  0.04947300  0.42410300  1
  H  267  1  0.32306000  0.18184400  0.30134300  1
  H  268  1  0.32063000  0.91519900  0.30105300  1
  H  269  1  0.25105700  0.04947000  0.40102100  1
  H  270  1  0.43475100  0.04949000  0.23690500  1
  H  295  1  0.14059900  0.83151600  0.74730600  1
  H  296  1  0.08163500  0.84644000  0.74583500  1
  H  297  1  0.01730800  0.84739500  0.74639600  1
  H  298  1  0.95780900  0.83892500  0.75243600  1
  H  299  1  0.97640000  0.76131900  0.81477700  1
  H  300  1  0.12259900  0.76162100  0.81489300  1
  H  301  1  0.04947500  0.72263000  0.76077000  1
  H  302  1  0.04947300  0.63091400  0.80960100  1
  H  303  1  0.04946900  0.66409400  0.85343200  1
  H  304  1  0.04946400  0.82286500  0.85034200  1
  H  305  1  0.04946600  0.70897300  0.89370600  1
  H  306  1  0.04946200  0.75819800  0.92403000  1
  H  312  1  0.18183100  0.77587200  0.80130400  1
  H  313  1  0.91534600  0.77825100  0.80085500  1
  H  314  1  0.04946000  0.84783900  0.90101700  1
  H  315  1  0.04947600  0.66712900  0.73611600  1
  H  340  1  0.95831000  0.26739500  0.74729000  1
  H  341  1  0.01727700  0.25245800  0.74581800  1
  H  342  1  0.08162000  0.25153000  0.74635700  1
  H  343  1  0.14112800  0.26000700  0.75240600  1
  H  344  1  0.12251700  0.33760000  0.81475700  1
  H  345  1  0.97632600  0.33729400  0.81488100  1
  H  346  1  0.04944700  0.37612700  0.76073300  1
  H  347  1  0.04944800  0.46732100  0.81083600  1
  H  348  1  0.04945100  0.43437600  0.85395700  1
  H  349  1  0.04945700  0.27598100  0.85035300  1
  H  350  1  0.04945800  0.38991900  0.89371300  1
  H  351  1  0.04945900  0.34070900  0.92404700  1
  H  357  1  0.91710000  0.32305800  0.80130000  1
  H  358  1  0.18349400  0.32068700  0.80074200  1
  H  359  1  0.04946300  0.25107200  0.90100300  1
  H  360  1  0.04944500  0.43476800  0.73685000  1
  H  368  1  0.90172200  0.93332200  0.73555500  1
  H  369  1  0.86864900  0.93582100  0.71339300  1
  H  370  1  0.91541400  0.88085400  0.75803700  1
  H  380  1  0.19719900  0.16561100  0.73552900  1
  H  381  1  0.23027200  0.16311000  0.71336700  1
  H  382  1  0.18350300  0.21807400  0.75801300  1
  H  392  1  0.93332300  0.19719800  0.23556700  1
  H  393  1  0.93582100  0.23027300  0.21340800  1
  H  394  1  0.88085700  0.18350100  0.25805100  1
  H  404  1  0.16559900  0.90173000  0.23559500  1
  H  405  1  0.16309700  0.86865400  0.21343400  1
  H  406  1  0.21808400  0.91541400  0.25807100  1
  H  416  1  0.19721000  0.16562300  0.25760100  1
  H  417  1  0.23028200  0.16312700  0.27976400  1
  H  418  1  0.18351800  0.21808500  0.23511700  1
  H  428  1  0.90170300  0.93330400  0.25762700  1
  H  429  1  0.86862400  0.93580600  0.27978400  1
  H  430  1  0.91538900  0.88081800  0.23514700  1
  H  440  1  0.16561200  0.90171700  0.75756000  1
  H  441  1  0.16311500  0.86864500  0.77972400  1
  H  442  1  0.21807800  0.91541000  0.73507800  1
  H  452  1  0.93330700  0.19721600  0.75758800  1
  H  453  1  0.93580800  0.23029700  0.77974300  1
  H  454  1  0.88082300  0.18352800  0.73510600  1
  H  464  1  0.52127000  0.04946600  0.80933600  1
  H  465  1  0.48519500  0.04946200  0.79033500  1
  H  466  1  0.57729500  0.04946800  0.78687800  1
  H  476  1  0.04947700  0.57765100  0.30935200  1
  H  477  1  0.04947500  0.61372800  0.29035500  1
  H  478  1  0.04947500  0.52162300  0.28689200  1
  H  488  1  0.52127000  0.04943000  0.18380700  1
  H  489  1  0.48519400  0.04942800  0.20280700  1
  H  490  1  0.57729600  0.04943000  0.20626300  1
  H  500  1  0.04947800  0.52127900  0.68378800  1
  H  501  1  0.04947700  0.48520300  0.70278800  1
  H  502  1  0.04947700  0.57730600  0.70625100  1
  H  512  1  0.90918100  0.04946000  0.47284600  1
  H  513  1  0.88668200  0.04945900  0.44244600  1
  H  514  1  0.88249700  0.04945900  0.51993900  1
  H  524  1  0.18972300  0.04947300  0.47281800  1
  H  525  1  0.21223100  0.04947400  0.44242300  1
  H  526  1  0.21640400  0.04947400  0.51994100  1
  H  536  1  0.04945500  0.18974500  0.97285700  1
  H  537  1  0.04945600  0.21223800  0.94245600  1
  H  538  1  0.04945600  0.21642700  0.01994900  1
  H  548  1  0.04946000  0.90918400  0.97288400  1
  H  549  1  0.04945900  0.88668800  0.94248200  1
  H  550  1  0.04946100  0.88250200  0.01997300  1
  H  577  1  0.42749800  0.72968700  0.45916800  1
  H  578  1  0.43596200  0.67020700  0.46519300  1
  H  579  1  0.43502700  0.60589800  0.46573400  1
  H  580  1  0.42010700  0.54692400  0.46427000  1
  H  581  1  0.35021700  0.56491400  0.39667700  1
  H  582  1  0.34990100  0.71112000  0.39680900  1
  H  583  1  0.31124300  0.63804900  0.45075600  1
  H  584  1  0.21953800  0.63805300  0.40196600  1
  H  585  1  0.25270200  0.63805100  0.35812800  1
  H  586  1  0.41136800  0.63804900  0.36114700  1
  H  587  1  0.29812100  0.63804500  0.31749500  1
  H  588  1  0.34815800  0.63804400  0.28692400  1
  H  594  1  0.36679000  0.77229200  0.41069500  1
  H  595  1  0.36446200  0.50568700  0.41027300  1
  H  596  1  0.43743200  0.63802900  0.31344100  1
  H  597  1  0.25572200  0.63805500  0.47545800  1
  H  622  1  0.84859800  0.54638500  0.45913700  1
  H  623  1  0.84012500  0.60589200  0.46518000  1
  H  624  1  0.84107400  0.67022000  0.46573400  1
  H  625  1  0.85598700  0.72918500  0.46425100  1
  H  626  1  0.92586840  0.71118100  0.39664900  1
  H  627  1  0.92617740  0.56498500  0.39677400  1
  H  628  1  0.96467340  0.63805700  0.45074100  1
  H  629  1  0.05586200  0.63805300  0.40069200  1
  H  630  1  0.02293200  0.63805400  0.35755400  1
  H  631  1  0.86462800  0.63805600  0.36110300  1
  H  632  1  0.97792240  0.63806000  0.31743700  1
  H  633  1  0.92789340  0.63806200  0.28687000  1
  H  639  1  0.90928540  0.50400500  0.41082300  1
  H  640  1  0.91162540  0.77041500  0.41024300  1
  H  641  1  0.83859500  0.63805700  0.31334400  1
  H  642  1  0.02332400  0.63805000  0.47468100  1
  H  667  1  0.72971600  0.84860700  0.95917220  1
  H  668  1  0.67020400  0.84013500  0.96520720  1
  H  669  1  0.60589000  0.84105800  0.96574220  1
  H  670  1  0.54692300  0.85598500  0.96428020  1
  H  671  1  0.56491500  0.92587940  0.89669200  1
  H  672  1  0.71112400  0.92619840  0.89682200  1
  H  673  1  0.63805300  0.96485240  0.95077120  1
  H  674  1  0.63806000  0.05655700  0.90198020  1
  H  675  1  0.63805600  0.02339600  0.85814000  1
  H  676  1  0.63804800  0.86472900  0.86116100  1
  H  677  1  0.63805000  0.97797440  0.81750800  1
  H  678  1  0.63804500  0.92793840  0.78693900  1
  H  684  1  0.77208500  0.90928940  0.91086620  1
  H  685  1  0.50569000  0.91162440  0.91028320  1
  H  686  1  0.63804500  0.83865900  0.81344900  1
  H  687  1  0.63806200  0.02037600  0.97547120  1
  H  712  1  0.54639900  0.42750400  0.95921320  1
  H  713  1  0.60587500  0.43597400  0.96524220  1
  H  714  1  0.67019700  0.43503700  0.96578620  1
  H  715  1  0.72917000  0.42011500  0.96431320  1
  H  716  1  0.71116800  0.35022900  0.89671300  1
  H  717  1  0.56497200  0.34991400  0.89684100  1
  H  718  1  0.63803700  0.31142200  0.95080620  1
  H  719  1  0.63803100  0.22023800  0.90074820  1
  H  720  1  0.63803300  0.25316800  0.85761400  1
  H  721  1  0.63804000  0.41145600  0.86115000  1
  H  722  1  0.63803900  0.29816200  0.81750100  1
  H  723  1  0.63804300  0.34818900  0.78691900  1
  H  729  1  0.50376300  0.36681200  0.91068020  1
  H  730  1  0.77040100  0.36447900  0.91030320  1
  H  731  1  0.63805500  0.43745900  0.81346600  1
  H  732  1  0.63802900  0.25276000  0.97473920  1
  H  757  1  0.42011100  0.54689600  0.96579220  1
  H  758  1  0.43504500  0.60586300  0.96432820  1
  H  759  1  0.43597600  0.67019300  0.96486720  1
  H  760  1  0.42750400  0.72970400  0.97091220  1
  H  761  1  0.34989800  0.71110200  0.03325100  1
  H  762  1  0.35020100  0.56490600  0.03337400  1
  H  763  1  0.31121000  0.63802600  0.97924320  1
  H  764  1  0.21949400  0.63802200  0.02807700  1
  H  765  1  0.25267300  0.63802900  0.07190600  1
  H  766  1  0.41144300  0.63803600  0.06880700  1
  H  767  1  0.29755100  0.63803300  0.11218200  1
  H  768  1  0.34677800  0.63803900  0.14250100  1
  H  774  1  0.36444600  0.50568500  0.01980000  1
  H  775  1  0.36682800  0.77207900  0.01925000  1
  H  776  1  0.43642200  0.63804300  0.11946700  1
  H  777  1  0.25570800  0.63802200  0.95459120  1
  H  802  1  0.85599600  0.72920200  0.96580320  1
  H  803  1  0.84105400  0.67023100  0.96433520  1
  H  804  1  0.84010800  0.60589900  0.96488520  1
  H  805  1  0.84857300  0.54642300  0.97092320  1
  H  806  1  0.92617640  0.56500300  0.03327900  1
  H  807  1  0.92588040  0.71119500  0.03339600  1
  H  808  1  0.96470940  0.63807200  0.97925820  1
  H  809  1  0.05590300  0.63807600  0.02935100  1
  H  810  1  0.02296000  0.63807300  0.07247800  1
  H  811  1  0.86456300  0.63806200  0.06886400  1
  H  812  1  0.97850040  0.63806600  0.11223600  1
  H  813  1  0.92928440  0.63805900  0.14256400  1
  H  819  1  0.91164640  0.77043000  0.01980400  1
  H  820  1  0.90921640  0.50378500  0.01951400  1
  H  821  1  0.83964300  0.63805600  0.11948200  1
  H  822  1  0.02333700  0.63807600  0.95536620  1
  H  847  1  0.72918500  0.42010200  0.46576700  1
  H  848  1  0.67022100  0.43502600  0.46429600  1
  H  849  1  0.60589400  0.43598100  0.46485700  1
  H  850  1  0.54639500  0.42751100  0.47089700  1
  H  851  1  0.56498600  0.34990500  0.53323800  1
  H  852  1  0.71118500  0.35020700  0.53335400  1
  H  853  1  0.63806100  0.31121600  0.47923100  1
  H  854  1  0.63805900  0.21950000  0.52806200  1
  H  855  1  0.63805500  0.25268000  0.57189300  1
  H  856  1  0.63805000  0.41145100  0.56880300  1
  H  857  1  0.63805200  0.29755900  0.61216700  1
  H  858  1  0.63804800  0.34678400  0.64249100  1
  H  864  1  0.77041700  0.36445800  0.51976500  1
  H  865  1  0.50393200  0.36683700  0.51931600  1
  H  866  1  0.63804600  0.43642500  0.61947800  1
  H  867  1  0.63806200  0.25571500  0.45457700  1
  H  892  1  0.54689600  0.85598100  0.46575100  1
  H  893  1  0.60586300  0.84104400  0.46427900  1
  H  894  1  0.67020600  0.84011600  0.46481800  1
  H  895  1  0.72971400  0.84859300  0.47086700  1
  H  896  1  0.71110300  0.92618640  0.53321800  1
  H  897  1  0.56491200  0.92588040  0.53334200  1
  H  898  1  0.63803300  0.96471340  0.47919400  1
  H  899  1  0.63803400  0.05590700  0.52929700  1
  H  900  1  0.63803700  0.02296200  0.57241800  1
  H  901  1  0.63804300  0.86456700  0.56881400  1
  H  902  1  0.63804400  0.97850540  0.61217400  1
  H  903  1  0.63804500  0.92929540  0.64250800  1
  H  909  1  0.50568600  0.91164440  0.51976100  1
  H  910  1  0.77208000  0.90927340  0.51920300  1
  H  911  1  0.63804900  0.83965800  0.61946400  1
  H  912  1  0.63803100  0.02335400  0.45531100  1
  H  920  1  0.49030800  0.52190800  0.45401600  1
  H  921  1  0.45723500  0.52440700  0.43185400  1
  H  922  1  0.50400000  0.46944000  0.47649800  1
  H  932  1  0.78578500  0.75419700  0.45399000  1
  H  933  1  0.81885800  0.75169600  0.43182800  1
  H  934  1  0.77208900  0.80666000  0.47647400  1
  H  944  1  0.52190900  0.78578400  0.95402820  1
  H  945  1  0.52440700  0.81885900  0.93186920  1
  H  946  1  0.46944300  0.77208700  0.97651220  1
  H  956  1  0.75418500  0.49031600  0.95405620  1
  H  957  1  0.75168300  0.45724000  0.93189520  1
  H  958  1  0.80667000  0.50400000  0.97653220  1
  H  968  1  0.78579600  0.75420900  0.97606220  1
  H  969  1  0.81886800  0.75171300  0.99822515  1
  H  970  1  0.77210400  0.80667100  0.95357820  1
  H  980  1  0.49028900  0.52189000  0.97608820  1
  H  981  1  0.45721000  0.52439200  0.99824515  1
  H  982  1  0.50397500  0.46940400  0.95360820  1
  H  992  1  0.75419800  0.49030300  0.47602100  1
  H  993  1  0.75170100  0.45723100  0.49818500  1
  H  994  1  0.80666400  0.50399600  0.45353900  1
  H  1004  1  0.52189300  0.78580200  0.47604900  1
  H  1005  1  0.52439400  0.81888300  0.49820400  1
  H  1006  1  0.46940900  0.77211400  0.45356700  1
  H  1016  1  0.10985600  0.63805200  0.52779700  1
  H  1017  1  0.07378100  0.63804800  0.50879600  1
  H  1018  1  0.16588100  0.63805400  0.50533900  1
  H  1028  1  0.63806300  0.16623700  0.02781300  1
  H  1029  1  0.63806100  0.20231400  0.00881600  1
  H  1030  1  0.63806100  0.11020900  0.00535300  1
  H  1040  1  0.10985600  0.63801600  0.90226820  1
  H  1041  1  0.07378000  0.63801400  0.92126820  1
  H  1042  1  0.16588200  0.63801600  0.92472420  1
  H  1052  1  0.63806400  0.10986500  0.40224900  1
  H  1053  1  0.63806300  0.07378900  0.42124900  1
  H  1054  1  0.63806300  0.16589200  0.42471200  1
  H  1064  1  0.49776700  0.63804600  0.19130700  1
  H  1065  1  0.47526800  0.63804500  0.16090700  1
  H  1066  1  0.47108300  0.63804500  0.23840000  1
  H  1076  1  0.77830900  0.63805900  0.19127900  1
  H  1077  1  0.80081700  0.63806000  0.16088400  1
  H  1078  1  0.80499000  0.63806000  0.23840200  1
  H  1088  1  0.63804100  0.77833100  0.69131800  1
  H  1089  1  0.63804200  0.80082400  0.66091700  1
  H  1090  1  0.63804200  0.80501300  0.73841000  1
  H  1100  1  0.63804600  0.49777000  0.69134500  1
  H  1101  1  0.63804500  0.47527400  0.66094300  1
  H  1102  1  0.63804700  0.47108800  0.73843400  1
  C  1  1  0.76971000  0.04946600  0.65077900  1
  C  2  1  0.73703600  0.04946300  0.63839100  1
  C  3  1  0.71242500  0.04946100  0.66043100  1
  C  4  1  0.72908900  0.04944100  0.68715800  1
  C  5  1  0.70964400  0.04946000  0.71307900  1
  C  6  1  0.67295400  0.04946500  0.71271100  1
  C  7  1  0.65711000  0.04946400  0.68510500  1
  C  8  1  0.67638000  0.04946300  0.65920600  1
  C  9  1  0.73343700  0.04946200  0.60815400  1
  C  10  1  0.76299500  0.04946400  0.59037100  1
  C  11  1  0.79668700  0.04946900  0.60201800  1
  C  12  1  0.79924400  0.04946800  0.63286200  1
  C  13  1  0.78449000  0.07883200  0.69679500  1
  C  14  1  0.80932000  0.06718700  0.71623500  1
  C  15  1  0.80936800  0.03177200  0.71607900  1
  C  16  1  0.78455900  0.02000000  0.69670000  1
  C  17  1  0.82867800  0.00883900  0.73263100  1
  C  18  1  0.82079700  0.97378700  0.73063900  1
  C  19  1  0.79874000  0.95985700  0.70929100  1
  C  20  1  0.77977000  0.98426800  0.69274100  1
  C  21  1  0.77945700  0.11443900  0.69281900  1
  C  22  1  0.79962800  0.13846400  0.70854600  1
  C  23  1  0.82410000  0.12524500  0.72843600  1
  C  24  1  0.82928300  0.09006500  0.73238000  1
  C  37  1  0.76691700  0.04942800  0.68282900  1
  C  38  1  0.79423500  0.92406300  0.70556400  1
  C  39  1  0.79633300  0.17405100  0.70498400  1
  C  40  1  0.82658500  0.04945800  0.58448300  1
  C  41  1  0.65373500  0.04946800  0.73869700  1
  C  46  1  0.32906000  0.04946600  0.65070700  1
  C  47  1  0.36166200  0.04947000  0.63826100  1
  C  48  1  0.38610500  0.04947400  0.66021000  1
  C  49  1  0.36948500  0.04949200  0.68698900  1
  C  50  1  0.38880300  0.04947300  0.71291500  1
  C  51  1  0.42531300  0.04946800  0.71192700  1
  C  52  1  0.44114100  0.04946900  0.68427600  1
  C  53  1  0.42201900  0.04946800  0.65859900  1
  C  54  1  0.36541200  0.04947200  0.60806500  1
  C  55  1  0.33587100  0.04947400  0.59031300  1
  C  56  1  0.30218300  0.04947400  0.60198400  1
  C  57  1  0.29957300  0.04946800  0.63281200  1
  C  58  1  0.31435600  0.02008700  0.69675000  1
  C  59  1  0.28957800  0.03174400  0.71621900  1
  C  60  1  0.28952600  0.06716400  0.71606100  1
  C  61  1  0.31428600  0.07894500  0.69665700  1
  C  62  1  0.27020700  0.09010100  0.73259400  1
  C  63  1  0.27811900  0.12514800  0.73061500  1
  C  64  1  0.30017700  0.13907900  0.70926800  1
  C  65  1  0.31912800  0.11466800  0.69270400  1
  C  66  1  0.31945000  0.98448700  0.69279100  1
  C  67  1  0.29926700  0.96050300  0.70853600  1
  C  68  1  0.27481500  0.97367500  0.72841700  1
  C  69  1  0.26962900  0.00886200  0.73236500  1
  C  82  1  0.33179000  0.04950500  0.68273400  1
  C  83  1  0.30469000  0.17486900  0.70554500  1
  C  84  1  0.30244700  0.92506300  0.70501800  1
  C  85  1  0.27232100  0.04947400  0.58445900  1
  C  86  1  0.44571900  0.04946300  0.73679800  1
  C  91  1  0.04946700  0.32921600  0.15079100  1
  C  92  1  0.04946700  0.36188700  0.13840600  1
  C  93  1  0.04946400  0.38650000  0.16044600  1
  C  94  1  0.04944300  0.36983400  0.18717300  1
  C  95  1  0.04946200  0.38928100  0.21309200  1
  C  96  1  0.04947000  0.42597200  0.21272300  1
  C  97  1  0.04947100  0.44181300  0.18511700  1
  C  98  1  0.04946900  0.42254300  0.15922000  1
  C  99  1  0.04946300  0.36548500  0.10816800  1
  C  100  1  0.04946100  0.33592700  0.09038600  1
  C  101  1  0.04946100  0.30223500  0.10203300  1
  C  102  1  0.04946500  0.29968100  0.13287700  1
  C  103  1  0.07883300  0.31443400  0.19680600  1
  C  104  1  0.06718900  0.28960400  0.21624700  1
  C  105  1  0.03177400  0.28955500  0.21608900  1
  C  106  1  0.02000100  0.31436200  0.19671000  1
  C  107  1  0.00884200  0.27026300  0.23265600  1
  C  108  1  0.97378700  0.27812300  0.23064900  1
  C  109  1  0.95985600  0.30016400  0.20929100  1
  C  110  1  0.98426900  0.31915300  0.19275800  1
  C  111  1  0.11443800  0.31947200  0.19283200  1
  C  112  1  0.13842000  0.29927200  0.20857000  1
  C  113  1  0.12525200  0.27482700  0.22845300  1
  C  114  1  0.09006600  0.26964300  0.23239400  1
  C  127  1  0.04943000  0.33200900  0.18284100  1
  C  128  1  0.92406300  0.30469200  0.20558800  1
  C  129  1  0.17385100  0.30243900  0.20506100  1
  C  130  1  0.04945600  0.27233800  0.08449800  1
  C  131  1  0.04947400  0.44519100  0.23871000  1
  C  136  1  0.04945200  0.76986400  0.15076500  1
  C  137  1  0.04945200  0.73726100  0.13832300  1
  C  138  1  0.04945400  0.71282100  0.16027500  1
  C  139  1  0.04947400  0.72944000  0.18705400  1
  C  140  1  0.04945500  0.71012300  0.21297900  1
  C  141  1  0.04944700  0.67361500  0.21198700  1
  C  142  1  0.04944800  0.65778700  0.18433600  1
  C  143  1  0.04944900  0.67690900  0.15865900  1
  C  144  1  0.04945300  0.73350500  0.10812500  1
  C  145  1  0.04945400  0.76304000  0.09036200  1
  C  146  1  0.04944800  0.79672900  0.10202200  1
  C  147  1  0.04945000  0.79934100  0.13285700  1
  C  148  1  0.02007300  0.78456900  0.19681200  1
  C  149  1  0.03172500  0.80934600  0.21628400  1
  C  150  1  0.06714800  0.80942000  0.21610800  1
  C  151  1  0.07893000  0.78463800  0.19672100  1
  C  152  1  0.09008400  0.82868600  0.23268500  1
  C  153  1  0.12513400  0.82080600  0.23068100  1
  C  154  1  0.13906300  0.79874700  0.20933400  1
  C  155  1  0.11465400  0.77979900  0.19277100  1
  C  156  1  0.98447100  0.77947600  0.19285300  1
  C  157  1  0.96043900  0.79962200  0.20859300  1
  C  158  1  0.97366500  0.82410400  0.22848100  1
  C  159  1  0.00884500  0.82929300  0.23243100  1
  C  172  1  0.04948900  0.76713600  0.18279600  1
  C  173  1  0.17485400  0.79423600  0.20561100  1
  C  174  1  0.92483000  0.79630900  0.20500900  1
  C  175  1  0.04946100  0.82661100  0.08450800  1
  C  176  1  0.04945100  0.65320400  0.23685100  1
  C  181  1  0.76959500  0.04945000  0.34209100  1
  C  182  1  0.73685800  0.04944800  0.35443300  1
  C  183  1  0.71232300  0.04944200  0.33254000  1
  C  184  1  0.72904500  0.04942300  0.30586700  1
  C  185  1  0.70960200  0.04943800  0.27999400  1
  C  186  1  0.67291700  0.04943800  0.28040100  1
  C  187  1  0.65706100  0.04943900  0.30800700  1
  C  188  1  0.67631400  0.04944200  0.33388700  1
  C  189  1  0.73283300  0.04944900  0.38454000  1
  C  190  1  0.76214000  0.04945200  0.40218000  1
  C  191  1  0.79587900  0.04945400  0.39055700  1
  C  192  1  0.79916000  0.04945300  0.35989900  1
  C  193  1  0.78454100  0.01997300  0.29638400  1
  C  194  1  0.80936900  0.03175500  0.27704000  1
  C  195  1  0.80933000  0.06717200  0.27688800  1
  C  196  1  0.78447300  0.07882600  0.29629100  1
  C  197  1  0.82930100  0.09005400  0.26076300  1
  C  198  1  0.82411400  0.12524000  0.26470900  1
  C  199  1  0.79966700  0.13841100  0.28459200  1
  C  200  1  0.77946000  0.11442600  0.30031900  1
  C  201  1  0.77975900  0.98425000  0.30038600  1
  C  202  1  0.79873200  0.95983800  0.28384500  1
  C  203  1  0.82079700  0.97376200  0.26249700  1
  C  204  1  0.82866700  0.00881800  0.26049000  1
  C  217  1  0.76685500  0.04941300  0.31014700  1
  C  218  1  0.79646200  0.17386000  0.28809800  1
  C  219  1  0.79421300  0.92405100  0.28757600  1
  C  220  1  0.82423200  0.04945500  0.40920500  1
  C  221  1  0.65372000  0.04943700  0.25443000  1
  C  226  1  0.32917600  0.04947800  0.34216400  1
  C  227  1  0.36184400  0.04947900  0.35456300  1
  C  228  1  0.38620300  0.04948600  0.33275900  1
  C  229  1  0.36952900  0.04950600  0.30603600  1
  C  230  1  0.38884300  0.04949200  0.28015400  1
  C  231  1  0.42534600  0.04948400  0.28118300  1
  C  232  1  0.44118700  0.04949000  0.30883400  1
  C  233  1  0.42208100  0.04948600  0.33449100  1
  C  234  1  0.36602400  0.04947700  0.38462900  1
  C  235  1  0.33673900  0.04947500  0.40224700  1
  C  236  1  0.30300300  0.04947500  0.39060600  1
  C  237  1  0.29966600  0.04947400  0.35996200  1
  C  238  1  0.31430200  0.07897000  0.29642700  1
  C  239  1  0.28950200  0.06717700  0.27707200  1
  C  240  1  0.28956400  0.03175200  0.27690400  1
  C  241  1  0.31436900  0.02008900  0.29633600  1
  C  242  1  0.26961100  0.00886700  0.26077800  1
  C  243  1  0.27480500  0.97368900  0.26473000  1
  C  244  1  0.29928800  0.96046100  0.28461800  1
  C  245  1  0.31943900  0.98449300  0.30034500  1
  C  246  1  0.31912800  0.11468900  0.30042100  1
  C  247  1  0.30017300  0.13909800  0.28386800  1
  C  248  1  0.27812400  0.12516800  0.26251500  1
  C  249  1  0.27023100  0.09011800  0.26051600  1
  C  262  1  0.33184800  0.04951900  0.31024000  1
  C  263  1  0.30260000  0.92484400  0.28821500  1
  C  264  1  0.30469800  0.17488600  0.28759100  1
  C  265  1  0.27465900  0.04947300  0.40922300  1
  C  266  1  0.44573200  0.04947600  0.25632700  1
  C  271  1  0.04946500  0.76960500  0.84208000  1
  C  272  1  0.04946700  0.73686800  0.85442100  1
  C  273  1  0.04947300  0.71233100  0.83252600  1
  C  274  1  0.04949200  0.72905200  0.80585600  1
  C  275  1  0.04947700  0.70960900  0.77997900  1
  C  276  1  0.04947400  0.67292400  0.78038900  1
  C  277  1  0.04947300  0.65707000  0.80799200  1
  C  278  1  0.04947000  0.67632200  0.83387300  1
  C  279  1  0.04946600  0.73283900  0.88452800  1
  C  280  1  0.04946300  0.76214700  0.90217000  1
  C  281  1  0.04946300  0.79588800  0.89055300  1
  C  282  1  0.04946100  0.79916900  0.85989500  1
  C  283  1  0.07894700  0.78454600  0.79637000  1
  C  284  1  0.06716500  0.80937200  0.77702300  1
  C  285  1  0.03174500  0.80933100  0.77687200  1
  C  286  1  0.02009100  0.78447700  0.79627600  1
  C  287  1  0.00886300  0.82930300  0.76074800  1
  C  288  1  0.97368000  0.82411400  0.76469400  1
  C  289  1  0.96048900  0.79965800  0.78458000  1
  C  290  1  0.98448900  0.77946300  0.80030300  1
  C  291  1  0.11467000  0.77978200  0.80038300  1
  C  292  1  0.13908000  0.79874000  0.78382700  1
  C  293  1  0.12514900  0.82079900  0.76248100  1
  C  294  1  0.09010200  0.82872200  0.76051400  1
  C  307  1  0.04950400  0.76686200  0.81013500  1
  C  308  1  0.92487600  0.79636700  0.78817600  1
  C  309  1  0.17487100  0.79423200  0.78755200  1
  C  310  1  0.04946000  0.82423500  0.90921400  1
  C  311  1  0.04947500  0.65372800  0.75441600  1
  C  316  1  0.04945700  0.32917700  0.84210800  1
  C  317  1  0.04945700  0.36184600  0.85450400  1
  C  318  1  0.04945000  0.38620600  0.83269800  1
  C  319  1  0.04943000  0.36953300  0.80597400  1
  C  320  1  0.04944400  0.38884800  0.78009200  1
  C  321  1  0.04945100  0.42535000  0.78112500  1
  C  322  1  0.04944800  0.44118800  0.80877600  1
  C  323  1  0.04945200  0.42208400  0.83443200  1
  C  324  1  0.04945800  0.36602800  0.88457000  1
  C  325  1  0.04946000  0.33674400  0.90219200  1
  C  326  1  0.04946000  0.30300500  0.89056200  1
  C  327  1  0.04945900  0.29966900  0.85991400  1
  C  328  1  0.01996500  0.31430500  0.79636800  1
  C  329  1  0.03175800  0.28952500  0.77699300  1
  C  330  1  0.06718100  0.28956800  0.77684300  1
  C  331  1  0.07884600  0.31437200  0.79627500  1
  C  332  1  0.09006600  0.26961700  0.76071100  1
  C  333  1  0.12525000  0.27480800  0.76466600  1
  C  334  1  0.13841900  0.29925700  0.78454800  1
  C  335  1  0.11443600  0.31945300  0.80028100  1
  C  336  1  0.98424800  0.31914700  0.80035000  1
  C  337  1  0.95983700  0.30018800  0.78380200  1
  C  338  1  0.97376300  0.27812000  0.76245700  1
  C  339  1  0.00881700  0.27024900  0.76044100  1
  C  352  1  0.04941700  0.33185200  0.81018200  1
  C  353  1  0.17385700  0.30245400  0.78805800  1
  C  354  1  0.92405200  0.30470900  0.78753600  1
  C  355  1  0.04946000  0.27467400  0.90920400  1
  C  356  1  0.04945500  0.44574000  0.75627400  1
  C  361  1  0.88213200  0.83823400  0.76203700  1
  C  362  1  0.89124600  0.87197500  0.75374200  1
  C  363  1  0.86803500  0.89329200  0.73842800  1
  C  364  1  0.83463600  0.88091700  0.73201800  1
  C  373  1  0.21660400  0.26059400  0.76191500  1
  C  374  1  0.20766100  0.22693700  0.75371200  1
  C  375  1  0.23089100  0.20563300  0.73841100  1
  C  376  1  0.26428800  0.21801700  0.73199600  1
  C  385  1  0.83833200  0.21661000  0.26196200  1
  C  386  1  0.87199100  0.20765900  0.25375200  1
  C  387  1  0.89329100  0.23088300  0.23844100  1
  C  388  1  0.88091600  0.26427900  0.23203100  1
  C  397  1  0.26068600  0.88210700  0.26212100  1
  C  398  1  0.22697800  0.89123100  0.25378700  1
  C  399  1  0.20562400  0.86803800  0.23847800  1
  C  400  1  0.21800300  0.83464100  0.23206100  1
  C  409  1  0.21660400  0.26059400  0.23121800  1
  C  410  1  0.20767300  0.22694900  0.23942000  1
  C  411  1  0.23089700  0.20565300  0.25472700  1
  C  412  1  0.26429600  0.21802900  0.26113700  1
  C  421  1  0.88209500  0.83822000  0.23110600  1
  C  422  1  0.89120800  0.87192200  0.23943300  1
  C  423  1  0.86801500  0.89327500  0.25474200  1
  C  424  1  0.83461900  0.88089500  0.26115300  1
  C  433  1  0.26059600  0.88231200  0.73117100  1
  C  434  1  0.22694200  0.89125500  0.73937900  1
  C  435  1  0.20564300  0.86803100  0.75468800  1
  C  436  1  0.21801800  0.83463300  0.76109700  1
  C  445  1  0.83823800  0.21678800  0.73108900  1
  C  446  1  0.87193100  0.20770600  0.73939400  1
  C  447  1  0.89327800  0.23090300  0.75470400  1
  C  448  1  0.88089700  0.26429900  0.76111400  1
  C  457  1  0.58599800  0.04946600  0.74186100  1
  C  458  1  0.56548500  0.04946700  0.76713500  1
  C  459  1  0.52896500  0.04946400  0.76585000  1
  C  460  1  0.51297200  0.04946600  0.73845400  1
  C  469  1  0.04947700  0.51292500  0.24187400  1
  C  470  1  0.04947600  0.53343500  0.26714900  1
  C  471  1  0.04947600  0.56995600  0.26586700  1
  C  472  1  0.04947400  0.58595100  0.23847600  1
  C  481  1  0.58599300  0.04942900  0.25127900  1
  C  482  1  0.56548500  0.04942800  0.22600600  1
  C  483  1  0.52896500  0.04942800  0.22729200  1
  C  484  1  0.51297500  0.04942900  0.25468600  1
  C  493  1  0.04947800  0.58600100  0.75126700  1
  C  494  1  0.04947900  0.56549400  0.72599100  1
  C  495  1  0.04947900  0.52897400  0.72727500  1
  C  496  1  0.04947800  0.51298300  0.75466500  1
  C  505  1  0.82910900  0.04945600  0.52730900  1
  C  506  1  0.85905900  0.04945800  0.50998800  1
  C  507  1  0.85751800  0.04946000  0.47921800  1
  C  508  1  0.82497100  0.04945900  0.46573200  1
  C  517  1  0.26981800  0.04947700  0.52727600  1
  C  518  1  0.23983900  0.04947600  0.50998100  1
  C  519  1  0.24137800  0.04947500  0.47920900  1
  C  520  1  0.27392100  0.04947700  0.46571900  1
  C  529  1  0.04945600  0.26981600  0.02731900  1
  C  530  1  0.04945600  0.23986500  0.00999600  1
  C  531  1  0.04945800  0.24140900  0.97922500  1
  C  532  1  0.04945500  0.27395100  0.96573100  1
  C  541  1  0.04946100  0.82911500  0.02734100  1
  C  542  1  0.04945900  0.85906400  0.01002200  1
  C  543  1  0.04946000  0.85752000  0.97924900  1
  C  544  1  0.04945800  0.82497500  0.96575300  1
  C  553  1  0.35829600  0.63805200  0.36924000  1
  C  554  1  0.32562200  0.63804900  0.35685200  1
  C  555  1  0.30101100  0.63804700  0.37889200  1
  C  556  1  0.31767500  0.63802700  0.40561900  1
  C  557  1  0.29823000  0.63804600  0.43154000  1
  C  558  1  0.26154000  0.63805100  0.43117200  1
  C  559  1  0.24569600  0.63805000  0.40356600  1
  C  560  1  0.26496600  0.63804900  0.37766700  1
  C  561  1  0.32202300  0.63804800  0.32661500  1
  C  562  1  0.35158100  0.63805000  0.30883200  1
  C  563  1  0.38527300  0.63805500  0.32047900  1
  C  564  1  0.38783000  0.63805400  0.35132300  1
  C  565  1  0.37307600  0.66741800  0.41525600  1
  C  566  1  0.39790600  0.65577300  0.43469600  1
  C  567  1  0.39795400  0.62035800  0.43454000  1
  C  568  1  0.37314500  0.60858600  0.41516100  1
  C  569  1  0.41726400  0.59742500  0.45109200  1
  C  570  1  0.40938300  0.56237300  0.44910000  1
  C  571  1  0.38732600  0.54844300  0.42775200  1
  C  572  1  0.36835600  0.57285400  0.41120200  1
  C  573  1  0.36804300  0.70302500  0.41128000  1
  C  574  1  0.38821400  0.72705000  0.42700700  1
  C  575  1  0.41268600  0.71383100  0.44689700  1
  C  576  1  0.41786900  0.67865100  0.45084100  1
  C  589  1  0.35550300  0.63801400  0.40129000  1
  C  590  1  0.38282100  0.51264900  0.42402500  1
  C  591  1  0.38491900  0.76263700  0.42344500  1
  C  592  1  0.41517100  0.63804400  0.30294400  1
  C  593  1  0.24232100  0.63805400  0.45715800  1
  C  598  1  0.91764640  0.63805200  0.36916800  1
  C  599  1  0.95024840  0.63805600  0.35672200  1
  C  600  1  0.97469140  0.63806000  0.37867100  1
  C  601  1  0.95807140  0.63807800  0.40545000  1
  C  602  1  0.97738940  0.63805900  0.43137600  1
  C  603  1  0.01389900  0.63805400  0.43038800  1
  C  604  1  0.02972700  0.63805500  0.40273700  1
  C  605  1  0.01060500  0.63805400  0.37706000  1
  C  606  1  0.95399840  0.63805800  0.32652600  1
  C  607  1  0.92445740  0.63806000  0.30877400  1
  C  608  1  0.89076900  0.63806000  0.32044500  1
  C  609  1  0.88815900  0.63805400  0.35127300  1
  C  610  1  0.90294240  0.60867300  0.41521100  1
  C  611  1  0.87816400  0.62033000  0.43468000  1
  C  612  1  0.87811200  0.65575000  0.43452200  1
  C  613  1  0.90287240  0.66753100  0.41511800  1
  C  614  1  0.85879300  0.67868700  0.45105500  1
  C  615  1  0.86670500  0.71373400  0.44907600  1
  C  616  1  0.88876300  0.72766500  0.42772900  1
  C  617  1  0.90771440  0.70325400  0.41116500  1
  C  618  1  0.90803640  0.57307300  0.41125200  1
  C  619  1  0.88785300  0.54908900  0.42699700  1
  C  620  1  0.86340100  0.56226100  0.44687800  1
  C  621  1  0.85821500  0.59744800  0.45082600  1
  C  634  1  0.92037640  0.63809100  0.40119500  1
  C  635  1  0.89327600  0.76345500  0.42400600  1
  C  636  1  0.89103300  0.51364900  0.42347900  1
  C  637  1  0.86090700  0.63806000  0.30292000  1
  C  638  1  0.03430500  0.63804900  0.45525900  1
  C  643  1  0.63805300  0.91780240  0.86925200  1
  C  644  1  0.63805300  0.95047340  0.85686700  1
  C  645  1  0.63805000  0.97508640  0.87890700  1
  C  646  1  0.63802900  0.95842040  0.90563420  1
  C  647  1  0.63804800  0.97786740  0.93155320  1
  C  648  1  0.63805600  0.01455800  0.93118420  1
  C  649  1  0.63805700  0.03039900  0.90357820  1
  C  650  1  0.63805500  0.01112900  0.87768100  1
  C  651  1  0.63804900  0.95407140  0.82662900  1
  C  652  1  0.63804700  0.92451340  0.80884700  1
  C  653  1  0.63804700  0.89082100  0.82049400  1
  C  654  1  0.63805100  0.88826700  0.85133800  1
  C  655  1  0.66741900  0.90302040  0.91526720  1
  C  656  1  0.65577500  0.87819000  0.93470820  1
  C  657  1  0.62036000  0.87814100  0.93455020  1
  C  658  1  0.60858700  0.90294840  0.91517120  1
  C  659  1  0.59742800  0.85884900  0.95111720  1
  C  660  1  0.56237300  0.86670900  0.94911020  1
  C  661  1  0.54844200  0.88875000  0.92775220  1
  C  662  1  0.57285500  0.90773940  0.91121920  1
  C  663  1  0.70302400  0.90805840  0.91129320  1
  C  664  1  0.72700600  0.88785800  0.92703120  1
  C  665  1  0.71383800  0.86341300  0.94691420  1
  C  666  1  0.67865200  0.85822900  0.95085520  1
  C  679  1  0.63801600  0.92059540  0.90130220  1
  C  680  1  0.51264900  0.89327800  0.92404920  1
  C  681  1  0.76243700  0.89102500  0.92352220  1
  C  682  1  0.63804200  0.86092400  0.80295900  1
  C  683  1  0.63806000  0.03377700  0.95717120  1
  C  688  1  0.63803800  0.35845000  0.86922600  1
  C  689  1  0.63803800  0.32584700  0.85678400  1
  C  690  1  0.63804000  0.30140700  0.87873600  1
  C  691  1  0.63806000  0.31802600  0.90551520  1
  C  692  1  0.63804100  0.29870900  0.93144020  1
  C  693  1  0.63803300  0.26220100  0.93044820  1
  C  694  1  0.63803400  0.24637300  0.90279720  1
  C  695  1  0.63803500  0.26549500  0.87712000  1
  C  696  1  0.63803900  0.32209100  0.82658600  1
  C  697  1  0.63804000  0.35162600  0.80882300  1
  C  698  1  0.63803400  0.38531500  0.82048300  1
  C  699  1  0.63803600  0.38792700  0.85131800  1
  C  700  1  0.60865900  0.37315500  0.91527320  1
  C  701  1  0.62031100  0.39793200  0.93474520  1
  C  702  1  0.65573400  0.39800600  0.93456920  1
  C  703  1  0.66751600  0.37322400  0.91518220  1
  C  704  1  0.67867000  0.41727200  0.95114620  1
  C  705  1  0.71372000  0.40939200  0.94914220  1
  C  706  1  0.72764900  0.38733300  0.92779520  1
  C  707  1  0.70324000  0.36838500  0.91123220  1
  C  708  1  0.57305700  0.36806200  0.91131420  1
  C  709  1  0.54902500  0.38820800  0.92705420  1
  C  710  1  0.56225100  0.41269000  0.94694220  1
  C  711  1  0.59743100  0.41787900  0.95089220  1
  C  724  1  0.63807500  0.35572200  0.90125720  1
  C  725  1  0.76344000  0.38282200  0.92407220  1
  C  726  1  0.51341600  0.38489500  0.92347020  1
  C  727  1  0.63804700  0.41519700  0.80296900  1
  C  728  1  0.63803700  0.24179000  0.95531220  1
  C  733  1  0.35818100  0.63803600  0.06055200  1
  C  734  1  0.32544400  0.63803400  0.07289400  1
  C  735  1  0.30090900  0.63802800  0.05100100  1
  C  736  1  0.31763100  0.63800900  0.02432800  1
  C  737  1  0.29818800  0.63802400  0.99845515  1
  C  738  1  0.26150300  0.63802400  0.99886215  1
  C  739  1  0.24564700  0.63802500  0.02646800  1
  C  740  1  0.26490000  0.63802800  0.05234800  1
  C  741  1  0.32141900  0.63803500  0.10300100  1
  C  742  1  0.35072600  0.63803800  0.12064100  1
  C  743  1  0.38446500  0.63804000  0.10901800  1
  C  744  1  0.38774600  0.63803900  0.07836000  1
  C  745  1  0.37312700  0.60855900  0.01484500  1
  C  746  1  0.39795500  0.62034100  0.99550115  1
  C  747  1  0.39791600  0.65575800  0.99534915  1
  C  748  1  0.37305900  0.66741200  0.01475200  1
  C  749  1  0.41788700  0.67864000  0.97922420  1
  C  750  1  0.41270000  0.71382600  0.98317020  1
  C  751  1  0.38825300  0.72699700  0.00305300  1
  C  752  1  0.36804600  0.70301200  0.01878000  1
  C  753  1  0.36834500  0.57283600  0.01884700  1
  C  754  1  0.38731800  0.54842400  0.00230600  1
  C  755  1  0.40938300  0.56234800  0.98095820  1
  C  756  1  0.41725300  0.59740400  0.97895120  1
  C  769  1  0.35544100  0.63799900  0.02860800  1
  C  770  1  0.38504800  0.76244600  0.00655900  1
  C  771  1  0.38279900  0.51263700  0.00603700  1
  C  772  1  0.41281800  0.63804100  0.12766600  1
  C  773  1  0.24230600  0.63802300  0.97289120  1
  C  778  1  0.91776240  0.63806400  0.06062500  1
  C  779  1  0.95043040  0.63806500  0.07302400  1
  C  780  1  0.97478940  0.63807200  0.05122000  1
  C  781  1  0.95811540  0.63809200  0.02449700  1
  C  782  1  0.97742940  0.63807800  0.99861515  1
  C  783  1  0.01393200  0.63807000  0.99964415  1
  C  784  1  0.02977300  0.63807600  0.02729500  1
  C  785  1  0.01066700  0.63807200  0.05295200  1
  C  786  1  0.95461040  0.63806300  0.10309000  1
  C  787  1  0.92532540  0.63806100  0.12070800  1
  C  788  1  0.89158900  0.63806100  0.10906700  1
  C  789  1  0.88825200  0.63806000  0.07842300  1
  C  790  1  0.90288840  0.66755600  0.01488800  1
  C  791  1  0.87808800  0.65576300  0.99553315  1
  C  792  1  0.87815000  0.62033800  0.99536515  1
  C  793  1  0.90295540  0.60867500  0.01479700  1
  C  794  1  0.85819700  0.59745300  0.97923920  1
  C  795  1  0.86339100  0.56227500  0.98319120  1
  C  796  1  0.88787400  0.54904700  0.00307900  1
  C  797  1  0.90802540  0.57307900  0.01880600  1
  C  798  1  0.90771440  0.70327500  0.01888200  1
  C  799  1  0.88875900  0.72768400  0.00232900  1
  C  800  1  0.86671000  0.71375400  0.98097620  1
  C  801  1  0.85881700  0.67870400  0.97897720  1
  C  814  1  0.92043440  0.63810500  0.02870100  1
  C  815  1  0.89118600  0.51343000  0.00667600  1
  C  816  1  0.89328400  0.76347200  0.00605200  1
  C  817  1  0.86324500  0.63805900  0.12768400  1
  C  818  1  0.03431800  0.63806200  0.97478820  1
  C  823  1  0.63805100  0.35819100  0.56054100  1
  C  824  1  0.63805300  0.32545400  0.57288200  1
  C  825  1  0.63805900  0.30091700  0.55098700  1
  C  826  1  0.63807800  0.31763800  0.52431700  1
  C  827  1  0.63806300  0.29819500  0.49844000  1
  C  828  1  0.63806000  0.26151000  0.49885000  1
  C  829  1  0.63805900  0.24565600  0.52645300  1
  C  830  1  0.63805600  0.26490800  0.55233400  1
  C  831  1  0.63805200  0.32142500  0.60298900  1
  C  832  1  0.63804900  0.35073300  0.62063100  1
  C  833  1  0.63804900  0.38447400  0.60901400  1
  C  834  1  0.63804700  0.38775500  0.57835600  1
  C  835  1  0.66753300  0.37313200  0.51483100  1
  C  836  1  0.65575100  0.39795800  0.49548400  1
  C  837  1  0.62033100  0.39791700  0.49533300  1
  C  838  1  0.60867700  0.37306300  0.51473700  1
  C  839  1  0.59744900  0.41788900  0.47920900  1
  C  840  1  0.56226600  0.41270000  0.48315500  1
  C  841  1  0.54907500  0.38824400  0.50304100  1
  C  842  1  0.57307500  0.36804900  0.51876400  1
  C  843  1  0.70325600  0.36836800  0.51884400  1
  C  844  1  0.72766600  0.38732600  0.50228800  1
  C  845  1  0.71373500  0.40938500  0.48094200  1
  C  846  1  0.67868800  0.41730800  0.47897500  1
  C  859  1  0.63809000  0.35544800  0.52859600  1
  C  860  1  0.51346200  0.38495300  0.50663700  1
  C  861  1  0.76345700  0.38281800  0.50601300  1
  C  862  1  0.63804600  0.41282100  0.62767500  1
  C  863  1  0.63806100  0.24231400  0.47287700  1
  C  868  1  0.63804300  0.91776340  0.56056900  1
  C  869  1  0.63804300  0.95043240  0.57296500  1
  C  870  1  0.63803600  0.97479240  0.55115900  1
  C  871  1  0.63801600  0.95811940  0.52443500  1
  C  872  1  0.63803000  0.97743440  0.49855300  1
  C  873  1  0.63803700  0.01393600  0.49958600  1
  C  874  1  0.63803400  0.02977400  0.52723700  1
  C  875  1  0.63803800  0.01067000  0.55289300  1
  C  876  1  0.63804400  0.95461440  0.60303100  1
  C  877  1  0.63804600  0.92533040  0.62065300  1
  C  878  1  0.63804600  0.89159100  0.60902300  1
  C  879  1  0.63804500  0.88825500  0.57837500  1
  C  880  1  0.60855100  0.90289140  0.51482900  1
  C  881  1  0.62034400  0.87811100  0.49545400  1
  C  882  1  0.65576700  0.87815400  0.49530400  1
  C  883  1  0.66743200  0.90295840  0.51473600  1
  C  884  1  0.67865200  0.85820300  0.47917200  1
  C  885  1  0.71383600  0.86339400  0.48312700  1
  C  886  1  0.72700500  0.88784300  0.50300900  1
  C  887  1  0.70302200  0.90803940  0.51874200  1
  C  888  1  0.57283400  0.90773340  0.51881100  1
  C  889  1  0.54842300  0.88877400  0.50226300  1
  C  890  1  0.56234900  0.86670600  0.48091800  1
  C  891  1  0.59740300  0.85883500  0.47890200  1
  C  904  1  0.63800300  0.92043840  0.52864300  1
  C  905  1  0.76244300  0.89104000  0.50651900  1
  C  906  1  0.51263800  0.89329500  0.50599700  1
  C  907  1  0.63804600  0.86326000  0.62766500  1
  C  908  1  0.63804100  0.03432600  0.47473500  1
  C  913  1  0.47071800  0.42682000  0.48049800  1
  C  914  1  0.47983200  0.46056100  0.47220300  1
  C  915  1  0.45662100  0.48187800  0.45688900  1
  C  916  1  0.42322200  0.46950300  0.45047900  1
  C  925  1  0.80519000  0.84918000  0.48037600  1
  C  926  1  0.79624700  0.81552300  0.47217300  1
  C  927  1  0.81947700  0.79421900  0.45687200  1
  C  928  1  0.85287400  0.80660300  0.45045700  1
  C  937  1  0.42691800  0.80519600  0.98042320  1
  C  938  1  0.46057700  0.79624500  0.97221320  1
  C  939  1  0.48187700  0.81946900  0.95690220  1
  C  940  1  0.46950200  0.85286500  0.95049220  1
  C  949  1  0.84927200  0.47069300  0.98058220  1
  C  950  1  0.81556400  0.47981700  0.97224820  1
  C  951  1  0.79421000  0.45662400  0.95693920  1
  C  952  1  0.80658900  0.42322700  0.95052220  1
  C  961  1  0.80519000  0.84918000  0.94967920  1
  C  962  1  0.79625900  0.81553500  0.95788120  1
  C  963  1  0.81948300  0.79423900  0.97318820  1
  C  964  1  0.85288200  0.80661500  0.97959820  1
  C  973  1  0.47068100  0.42680600  0.94956720  1
  C  974  1  0.47979400  0.46050800  0.95789420  1
  C  975  1  0.45660100  0.48186100  0.97320320  1
  C  976  1  0.42320500  0.46948100  0.97961420  1
  C  985  1  0.84918200  0.47089800  0.44963200  1
  C  986  1  0.81552800  0.47984100  0.45784000  1
  C  987  1  0.79422900  0.45661700  0.47314900  1
  C  988  1  0.80660400  0.42321900  0.47955800  1
  C  997  1  0.42682400  0.80537400  0.44955000  1
  C  998  1  0.46051700  0.79629200  0.45785500  1
  C  999  1  0.48186400  0.81948900  0.47316500  1
  C  1000  1  0.46948300  0.85288500  0.47957500  1
  C  1009  1  0.17458400  0.63805200  0.46032200  1
  C  1010  1  0.15407100  0.63805300  0.48559600  1
  C  1011  1  0.11755100  0.63805000  0.48431100  1
  C  1012  1  0.10155800  0.63805200  0.45691500  1
  C  1021  1  0.63806300  0.10151100  0.96033520  1
  C  1022  1  0.63806200  0.12202100  0.98561020  1
  C  1023  1  0.63806200  0.15854200  0.98432820  1
  C  1024  1  0.63806000  0.17453700  0.95693720  1
  C  1033  1  0.17457900  0.63801500  0.96974020  1
  C  1034  1  0.15407100  0.63801400  0.94446720  1
  C  1035  1  0.11755100  0.63801400  0.94575320  1
  C  1036  1  0.10156100  0.63801500  0.97314720  1
  C  1045  1  0.63806400  0.17458700  0.46972800  1
  C  1046  1  0.63806500  0.15408000  0.44445200  1
  C  1047  1  0.63806500  0.11756000  0.44573600  1
  C  1048  1  0.63806400  0.10156900  0.47312600  1
  C  1057  1  0.41769500  0.63804200  0.24577000  1
  C  1058  1  0.44764500  0.63804400  0.22844900  1
  C  1059  1  0.44610400  0.63804600  0.19767900  1
  C  1060  1  0.41355700  0.63804500  0.18419300  1
  C  1069  1  0.85840400  0.63806300  0.24573700  1
  C  1070  1  0.82842500  0.63806200  0.22844200  1
  C  1071  1  0.82996400  0.63806100  0.19767000  1
  C  1072  1  0.86250700  0.63806300  0.18418000  1
  C  1081  1  0.63804200  0.85840200  0.74578000  1
  C  1082  1  0.63804200  0.82845100  0.72845700  1
  C  1083  1  0.63804400  0.82999500  0.69768600  1
  C  1084  1  0.63804100  0.86253700  0.68419200  1
  C  1093  1  0.63804700  0.41770100  0.74580200  1
  C  1094  1  0.63804500  0.44765000  0.72848300  1
  C  1095  1  0.63804600  0.44610600  0.69771000  1
  C  1096  1  0.63804400  0.41356100  0.68421400  1
  N  365  1  0.82837800  0.84781900  0.74040800  1
  N  366  1  0.85033700  0.82798800  0.75430900  1
  N  367  1  0.87984000  0.92398400  0.72912000  1
  N  371  1  0.90455700  0.81739700  0.77503700  1
  N  372  1  0.81074800  0.89803900  0.71638400  1
  N  377  1  0.27054100  0.25111500  0.74038400  1
  N  378  1  0.24856400  0.27093300  0.75428600  1
  N  379  1  0.21907900  0.17494900  0.72909200  1
  N  383  1  0.19476000  0.28180500  0.77516300  1
  N  384  1  0.28817400  0.20089100  0.71636200  1
  N  389  1  0.84781900  0.27053800  0.24042300  1
  N  390  1  0.82799900  0.24856100  0.25432600  1
  N  391  1  0.92398400  0.21908000  0.22913500  1
  N  395  1  0.81713300  0.19473600  0.27519300  1
  N  396  1  0.89803700  0.28817400  0.21640100  1
  N  401  1  0.25110000  0.82838800  0.24044400  1
  N  402  1  0.27095600  0.85031000  0.25434800  1
  N  403  1  0.17493800  0.87985100  0.22915700  1
  N  407  1  0.28141000  0.90473900  0.27500400  1
  N  408  1  0.20087500  0.81075600  0.21642700  1
  N  413  1  0.27055500  0.25112500  0.25274500  1
  N  414  1  0.24857500  0.27094400  0.23884400  1
  N  415  1  0.21909200  0.17496200  0.26403500  1
  N  419  1  0.19480200  0.28183300  0.21794500  1
  N  420  1  0.28818600  0.20091000  0.27677100  1
  N  425  1  0.82836300  0.84779600  0.25277100  1
  N  426  1  0.85028600  0.82794100  0.23887000  1
  N  427  1  0.87982600  0.92396200  0.26406500  1
  N  431  1  0.90468100  0.81747000  0.21820000  1
  N  432  1  0.81072900  0.89802000  0.27677600  1
  N  437  1  0.25111700  0.82837500  0.75270700  1
  N  438  1  0.27093700  0.85035200  0.73880300  1
  N  439  1  0.17495100  0.87983600  0.76399400  1
  N  443  1  0.28179900  0.90416700  0.71792400  1
  N  444  1  0.20089500  0.81074500  0.77673300  1
  N  449  1  0.84779900  0.27055500  0.75273300  1
  N  450  1  0.82794800  0.24862400  0.73883100  1
  N  451  1  0.92396400  0.21909300  0.76402500  1
  N  455  1  0.81741700  0.19431600  0.71813000  1
  N  456  1  0.89802300  0.28819000  0.77673500  1
  N  461  1  0.53432800  0.04946500  0.71506500  1
  N  462  1  0.56816100  0.04946800  0.71661600  1
  N  463  1  0.51014400  0.04946500  0.79051100  1
  N  467  1  0.62070300  0.04946900  0.74253200  1
  N  468  1  0.47884300  0.04946300  0.73489800  1
  N  473  1  0.04947500  0.56459800  0.21508000  1
  N  474  1  0.04947500  0.53076700  0.21662800  1
  N  475  1  0.04947500  0.58877600  0.29052800  1
  N  479  1  0.04947400  0.47822200  0.24254500  1
  N  480  1  0.04946400  0.62008000  0.23493700  1
  N  485  1  0.53432700  0.04943000  0.27808000  1
  N  486  1  0.56815800  0.04943000  0.27652700  1
  N  487  1  0.51014300  0.04943000  0.20263100  1
  N  491  1  0.62069100  0.04943200  0.25060300  1
  N  492  1  0.47885100  0.04945300  0.25823500  1
  N  497  1  0.04947700  0.53433100  0.77806300  1
  N  498  1  0.04948000  0.56816500  0.77651200  1
  N  499  1  0.04947700  0.51015300  0.70261200  1
  N  503  1  0.04947800  0.62069900  0.75059100  1
  N  504  1  0.04946700  0.47885900  0.75819900  1
  N  509  1  0.79726500  0.04945700  0.48381500  1
  N  510  1  0.79908900  0.04945800  0.51232400  1
  N  511  1  0.88684500  0.04945900  0.46344300  1
  N  515  1  0.83009100  0.04945700  0.55654600  1
  N  516  1  0.82012300  0.04945600  0.43699100  1
  N  521  1  0.30164000  0.04947800  0.48377600  1
  N  522  1  0.29981800  0.04947900  0.51227700  1
  N  523  1  0.21206300  0.04947500  0.46341900  1
  N  527  1  0.26908700  0.04947500  0.55650900  1
  N  528  1  0.27878500  0.04947400  0.43700000  1
  N  533  1  0.04945500  0.30165500  0.98381700  1
  N  534  1  0.04945600  0.29983100  0.01232800  1
  N  535  1  0.04945500  0.21208000  0.96345100  1
  N  539  1  0.04945500  0.26886100  0.05655800  1
  N  540  1  0.04945600  0.27879200  0.93698900  1
  N  545  1  0.04946000  0.79727200  0.98384100  1
  N  546  1  0.04945900  0.79909600  0.01235200  1
  N  547  1  0.04946100  0.88684900  0.96347800  1
  N  551  1  0.04946200  0.83009900  0.05657300  1
  N  552  1  0.04946200  0.82013100  0.93700500  1
  N  917  1  0.41696400  0.43640500  0.45886900  1
  N  918  1  0.43892300  0.41657400  0.47277000  1
  N  919  1  0.46842600  0.51257000  0.44758100  1
  N  923  1  0.49314300  0.40598300  0.49349800  1
  N  924  1  0.39933400  0.48662500  0.43484500  1
  N  929  1  0.85912700  0.83970100  0.45884500  1
  N  930  1  0.83715000  0.85951900  0.47274700  1
  N  931  1  0.80766500  0.76353500  0.44755300  1
  N  935  1  0.78334600  0.87039100  0.49362400  1
  N  936  1  0.87676000  0.78947700  0.43482300  1
  N  941  1  0.43640500  0.85912400  0.95888420  1
  N  942  1  0.41658500  0.83714700  0.97278720  1
  N  943  1  0.51257000  0.80766600  0.94759620  1
  N  947  1  0.40571900  0.78332200  0.99365415  1
  N  948  1  0.48662300  0.87676000  0.93486220  1
  N  953  1  0.83968600  0.41697400  0.95890520  1
  N  954  1  0.85954200  0.43889600  0.97280920  1
  N  955  1  0.76352400  0.46843700  0.94761820  1
  N  959  1  0.86999600  0.49332500  0.99346515  1
  N  960  1  0.78946100  0.39934200  0.93488820  1
  N  965  1  0.85914100  0.83971100  0.97120620  1
  N  966  1  0.83716100  0.85953000  0.95730520  1
  N  967  1  0.80767800  0.76354800  0.98249620  1
  N  971  1  0.78338800  0.87041900  0.93640620  1
  N  972  1  0.87677200  0.78949600  0.99523215  1
  N  977  1  0.41694900  0.43638200  0.97123220  1
  N  978  1  0.43887200  0.41652700  0.95733120  1
  N  979  1  0.46841200  0.51254800  0.98252620  1
  N  983  1  0.49326700  0.40605600  0.93666120  1
  N  984  1  0.39931500  0.48660600  0.99523715  1
  N  989  1  0.83970300  0.41696100  0.47116800  1
  N  990  1  0.85952300  0.43893800  0.45726400  1
  N  991  1  0.76353700  0.46842200  0.48245500  1
  N  995  1  0.87038500  0.49275300  0.43638500  1
  N  996  1  0.78948100  0.39933100  0.49519400  1
  N  1001  1  0.43638500  0.85914100  0.47119400  1
  N  1002  1  0.41653400  0.83721000  0.45729200  1
  N  1003  1  0.51255000  0.80767900  0.48248600  1
  N  1007  1  0.40600300  0.78290200  0.43659100  1
  N  1008  1  0.48660900  0.87677600  0.49519600  1
  N  1013  1  0.12291400  0.63805100  0.43352600  1
  N  1014  1  0.15674700  0.63805400  0.43507700  1
  N  1015  1  0.09873000  0.63805100  0.50897200  1
  N  1019  1  0.20928900  0.63805500  0.46099300  1
  N  1020  1  0.06742900  0.63804900  0.45335900  1
  N  1025  1  0.63806100  0.15318400  0.93354120  1
  N  1026  1  0.63806100  0.11935300  0.93508920  1
  N  1027  1  0.63806100  0.17736200  0.00898900  1
  N  1031  1  0.63806000  0.06680800  0.96100620  1
  N  1032  1  0.63805000  0.20866600  0.95339820  1
  N  1037  1  0.12291300  0.63801600  0.99654115  1
  N  1038  1  0.15674400  0.63801600  0.99498815  1
  N  1039  1  0.09872900  0.63801600  0.92109220  1
  N  1043  1  0.20927700  0.63801800  0.96906420  1
  N  1044  1  0.06743700  0.63803900  0.97669620  1
  N  1049  1  0.63806300  0.12291700  0.49652400  1
  N  1050  1  0.63806600  0.15675100  0.49497300  1
  N  1051  1  0.63806300  0.09873900  0.42107300  1
  N  1055  1  0.63806400  0.20928500  0.46905200  1
  N  1056  1  0.63805300  0.06744500  0.47666000  1
  N  1061  1  0.38585100  0.63804300  0.20227600  1
  N  1062  1  0.38767500  0.63804400  0.23078500  1
  N  1063  1  0.47543100  0.63804500  0.18190400  1
  N  1067  1  0.41867700  0.63804300  0.27500700  1
  N  1068  1  0.40870900  0.63804200  0.15545200  1
  N  1073  1  0.89022600  0.63806400  0.20223700  1
  N  1074  1  0.88840400  0.63806500  0.23073800  1
  N  1075  1  0.80064900  0.63806100  0.18188000  1
  N  1079  1  0.85767300  0.63806100  0.27497000  1
  N  1080  1  0.86737100  0.63806000  0.15546100  1
  N  1085  1  0.63804100  0.89024100  0.70227800  1
  N  1086  1  0.63804200  0.88841700  0.73078900  1
  N  1087  1  0.63804100  0.80066600  0.68191200  1
  N  1091  1  0.63804100  0.85744700  0.77501900  1
  N  1092  1  0.63804200  0.86737800  0.65545000  1
  N  1097  1  0.63804600  0.38585800  0.70230200  1
  N  1098  1  0.63804500  0.38768200  0.73081300  1
  N  1099  1  0.63804700  0.47543500  0.68193900  1
  N  1103  1  0.63804800  0.41868500  0.77503400  1
  N  1104  1  0.63804800  0.40871700  0.65546600  1
