# generated using pymatgen
data_H28(C17N4)3
_symmetry_space_group_name_H-M   'P 1'
_cell_length_a   56.25659900
_cell_length_b   56.25659900
_cell_length_c   56.22949791
_cell_angle_alpha   95.99313603
_cell_angle_beta   116.49635195
_cell_angle_gamma   116.72540468
_symmetry_Int_Tables_number   1
_chemical_formula_structural   H28(C17N4)3
_chemical_formula_sum   'H448 C816 N192'
_cell_volume   131484.44843774
_cell_formula_units_Z   16
loop_
 _symmetry_equiv_pos_site_id
 _symmetry_equiv_pos_as_xyz
  1  'x, y, z'
loop_
 _atom_site_type_symbol
 _atom_site_label
 _atom_site_symmetry_multiplicity
 _atom_site_fract_x
 _atom_site_fract_y
 _atom_site_fract_z
 _atom_site_occupancy
  C  1  1  0.56218600  0.28584500  0.50940700  1
  C  2  1  0.52834950  0.26681650  0.49182900  1
  C  3  1  0.52816350  0.25065150  0.53196800  1
  C  4  1  0.56211150  0.26822550  0.54971700  1
  C  5  1  0.57720100  0.26657650  0.57704850  1
  C  6  1  0.55974950  0.24856350  0.58704500  1
  C  7  1  0.52611850  0.23345850  0.56968400  1
  C  8  1  0.51055800  0.23400550  0.54235450  1
  C  9  1  0.51104350  0.26503350  0.46344400  1
  C  10  1  0.52666050  0.28272350  0.45249800  1
  C  11  1  0.55996700  0.30339400  0.46989300  1
  C  12  1  0.57724500  0.30392800  0.49785800  1
  C  13  1  0.59771100  0.31891700  0.55937000  1
  C  14  1  0.63143600  0.33856550  0.57555950  1
  C  15  1  0.63778300  0.30007700  0.55811600  1
  C  16  1  0.60415300  0.27950350  0.54078750  1
  C  17  1  0.65880000  0.29245200  0.55915900  1
  C  18  1  0.64711650  0.26439550  0.54375200  1
  C  19  1  0.61392100  0.24274450  0.52642450  1
  C  20  1  0.59292300  0.25094100  0.52512500  1
  C  21  1  0.57969350  0.33007200  0.56034350  1
  C  22  1  0.59391050  0.35955400  0.57589150  1
  C  23  1  0.62746800  0.37812650  0.59112450  1
  C  24  1  0.64595550  0.36773100  0.59142450  1
  C  37  1  0.58159250  0.28801550  0.53991200  1
  C  38  1  0.65286550  0.33016000  0.57586950  1
  C  41  1  0.50979700  0.24883100  0.50233000  1
  C  44  1  0.60330300  0.21427450  0.51287150  1
  C  45  1  0.57629100  0.32180200  0.45997700  1
  C  46  1  0.57486350  0.36967000  0.57462050  1
  C  50  1  0.57590900  0.24739700  0.61383400  1
  C  52  1  0.95463000  0.95228900  0.23555100  1
  C  53  1  0.98846550  0.96853300  0.25035250  1
  C  54  1  0.98869850  0.00886100  0.23438850  1
  C  55  1  0.95475200  0.99267200  0.21800900  1
  C  56  1  0.93968850  0.00491800  0.20126850  1
  C  57  1  0.95716500  0.03236150  0.20071550  1
  C  58  1  0.99079650  0.04862150  0.21924700  1
  C  59  1  0.00633000  0.03684800  0.23535400  1
  C  60  1  0.00574550  0.95744050  0.26585400  1
  C  61  1  0.99010650  0.93087550  0.26791200  1
  C  62  1  0.95680750  0.91498400  0.25529450  1
  C  63  1  0.93955250  0.92568550  0.23857200  1
  C  64  1  0.91912950  0.96672850  0.23308800  1
  C  65  1  0.88540150  0.94918000  0.21898850  1
  C  66  1  0.87905500  0.92538050  0.17413850  1
  C  67  1  0.91268600  0.94169700  0.18721300  1
  C  68  1  0.85803850  0.90539100  0.14548250  1
  C  69  1  0.86972300  0.90165750  0.12911250  1
  C  70  1  0.90291900  0.91754150  0.14067550  1
  C  71  1  0.92391700  0.93725800  0.16988400  1
  C  72  1  0.93714300  0.98572000  0.26228000  1
  C  73  1  0.92292000  0.98704750  0.27754050  1
  C  74  1  0.88936300  0.96871250  0.26253350  1
  C  75  1  0.87087850  0.95051350  0.23363300  1
  C  88  1  0.93524800  0.96338950  0.21830750  1
  C  89  1  0.86397300  0.92804950  0.18913750  1
  C  92  1  0.00704100  0.99758250  0.25092850  1
  C  95  1  0.91353500  0.91460250  0.12281850  1
  C  96  1  0.94046900  0.88875000  0.25737700  1
  C  97  1  0.94196100  0.00483350  0.30672350  1
  C  101  1  0.94104000  0.04300450  0.18339450  1
  C  103  1  0.78810450  0.73229300  0.78932850  1
  C  104  1  0.78683350  0.74733300  0.77051550  1
  C  105  1  0.73054650  0.73125700  0.75444950  1
  C  106  1  0.73018200  0.71463750  0.77178750  1
  C  107  1  0.70109700  0.69769550  0.77001650  1
  C  108  1  0.67316200  0.69714950  0.75209150  1
  C  109  1  0.67562700  0.71595500  0.73727800  1
  C  110  1  0.70361000  0.73227600  0.73795300  1
  C  111  1  0.81350950  0.76300150  0.76878000  1
  C  112  1  0.84203400  0.76495650  0.78628250  1
  C  113  1  0.84512550  0.75205850  0.80672400  1
  C  114  1  0.81763700  0.73522300  0.80724600  1
  C  115  1  0.77112700  0.72970850  0.82236550  1
  C  116  1  0.77451250  0.71557650  0.84194800  1
  C  117  1  0.75341800  0.67070600  0.80343200  1
  C  118  1  0.75025550  0.68381900  0.78292150  1
  C  119  1  0.74471550  0.64202600  0.79577350  1
  C  120  1  0.73213500  0.62567100  0.76774900  1
  C  121  1  0.72789000  0.63726900  0.74616000  1
  C  122  1  0.73740900  0.66650200  0.75438700  1
  C  123  1  0.78139300  0.75893400  0.83357100  1
  C  124  1  0.79537300  0.77421100  0.86304000  1
  C  125  1  0.79863300  0.75916900  0.88154400  1
  C  126  1  0.78783950  0.73022850  0.87110100  1
  C  139  1  0.75970650  0.71494400  0.79148550  1
  C  140  1  0.76572050  0.68569100  0.83349250  1
  C  143  1  0.75847250  0.74801450  0.75273500  1
  C  146  1  0.71304400  0.61941900  0.71772500  1
  C  147  1  0.87331950  0.75398500  0.82492450  1
  C  148  1  0.80686950  0.80343850  0.87320000  1
  C  152  1  0.64505800  0.67955450  0.75071050  1
  C  154  1  0.72869000  0.00629650  0.45597650  1
  C  155  1  0.72993300  0.98875050  0.47228350  1
  C  156  1  0.78622700  0.02897200  0.51254700  1
  C  157  1  0.78660850  0.04668200  0.49630050  1
  C  158  1  0.81570250  0.07400100  0.50847050  1
  C  159  1  0.84363550  0.08400200  0.53587250  1
  C  160  1  0.84116350  0.06671050  0.55220000  1
  C  161  1  0.81316450  0.03940300  0.54051750  1
  C  162  1  0.70324750  0.96033100  0.46123850  1
  C  163  1  0.67474100  0.94930400  0.43463500  1
  C  164  1  0.67167750  0.96665850  0.41864900  1
  C  165  1  0.69917450  0.99467800  0.42934050  1
  C  166  1  0.74569100  0.05630800  0.47038400  1
  C  167  1  0.74234200  0.07250550  0.45286250  1
  C  168  1  0.76348100  0.05511100  0.42913300  1
  C  169  1  0.76657750  0.03774050  0.44539200  1
  C  170  1  0.77222200  0.05616600  0.40917700  1
  C  171  1  0.78477100  0.04070750  0.40540350  1
  C  172  1  0.78893300  0.02332750  0.42121850  1
  C  173  1  0.77938950  0.02203500  0.44091950  1
  C  174  1  0.73537750  0.05722900  0.48931350  1
  C  175  1  0.72139550  0.07270750  0.49058100  1
  C  176  1  0.71817250  0.08794850  0.47227400  1
  C  177  1  0.72901500  0.08832000  0.45415900  1
  C  190  1  0.75709950  0.03685200  0.46705350  1
  C  191  1  0.75120250  0.07287400  0.43180950  1
  C  194  1  0.75828350  0.99932850  0.50135200  1
  C  197  1  0.80372000  0.00969900  0.41819500  1
  C  198  1  0.64352000  0.95664550  0.39232950  1
  C  199  1  0.70986100  0.07136100  0.50828700  1
  C  203  1  0.87174200  0.11073450  0.54640650  1
  C  409  1  0.45457350  0.71494900  0.49773550  1
  C  410  1  0.48842450  0.73389750  0.51509700  1
  C  411  1  0.48820100  0.74976950  0.47470950  1
  C  412  1  0.45424150  0.73230850  0.45719600  1
  C  413  1  0.43895250  0.73387750  0.42985800  1
  C  414  1  0.45622050  0.75170350  0.41962800  1
  C  415  1  0.48984550  0.76664050  0.43672700  1
  C  416  1  0.50560650  0.76618900  0.46406650  1
  C  417  1  0.50592900  0.73577200  0.54348300  1
  C  418  1  0.49048500  0.71826450  0.55465050  1
  C  419  1  0.45715400  0.69768750  0.53747550  1
  C  420  1  0.43969150  0.69704100  0.50949850  1
  C  421  1  0.41883700  0.68170050  0.44785350  1
  C  422  1  0.38513550  0.66198700  0.43185050  1
  C  423  1  0.37879100  0.70048700  0.44927100  1
  C  424  1  0.41241150  0.72112050  0.46642500  1
  C  425  1  0.35778800  0.70808950  0.44831750  1
  C  426  1  0.36947050  0.73617150  0.46365000  1
  C  427  1  0.40265550  0.75787300  0.48080850  1
  C  428  1  0.42364300  0.74970500  0.48201500  1
  C  429  1  0.43687050  0.67060050  0.44680200  1
  C  430  1  0.42270100  0.64111200  0.43134500  1
  C  431  1  0.38916950  0.62246100  0.41631450  1
  C  432  1  0.37065750  0.63279700  0.41609850  1
  C  445  1  0.43496200  0.71263750  0.46721450  1
  C  446  1  0.36371450  0.67036150  0.43163100  1
  C  449  1  0.50678000  0.75166900  0.50434000  1
  C  452  1  0.41326950  0.78635200  0.49431150  1
  C  453  1  0.44098750  0.67950200  0.54762950  1
  C  454  1  0.44181350  0.63110300  0.43254050  1
  C  458  1  0.43987800  0.75284250  0.39286750  1
  C  460  1  0.06241100  0.04827850  0.77208750  1
  C  461  1  0.02856250  0.03179600  0.75718750  1
  C  462  1  0.02875050  0.99163800  0.77327850  1
  C  463  1  0.06270900  0.00808100  0.78978900  1
  C  464  1  0.07797600  0.99603650  0.80666250  1
  C  465  1  0.06068750  0.96854800  0.80722050  1
  C  466  1  0.02706200  0.95202350  0.78852050  1
  C  467  1  0.01132400  0.96359650  0.77229050  1
  C  468  1  0.01107600  0.04268450  0.74157350  1
  C  469  1  0.02653400  0.06929650  0.73952450  1
  C  470  1  0.05985950  0.08544150  0.75226300  1
  C  471  1  0.07730500  0.07491800  0.76906200  1
  C  472  1  0.09813100  0.03413950  0.77459150  1
  C  473  1  0.13183650  0.05185000  0.78860450  1
  C  474  1  0.13817850  0.07562450  0.83346100  1
  C  475  1  0.10455800  0.05914800  0.82045400  1
  C  476  1  0.15918100  0.09569200  0.86208100  1
  C  477  1  0.14749650  0.09935650  0.87847400  1
  C  478  1  0.11431150  0.08332400  0.86697050  1
  C  479  1  0.09332300  0.06352200  0.83779900  1
  C  480  1  0.08010550  0.01505500  0.74543850  1
  C  481  1  0.09428100  0.01378800  0.73012000  1
  C  482  1  0.12781400  0.03229600  0.74502800  1
  C  483  1  0.14632100  0.05059100  0.77389700  1
  C  496  1  0.08200700  0.03737600  0.78940100  1
  C  497  1  0.15325800  0.07305900  0.81841900  1
  C  500  1  0.01018900  0.00268700  0.75659500  1
  C  503  1  0.10369900  0.08622400  0.88483700  1
  C  504  1  0.07603300  0.11175800  0.75024500  1
  C  505  1  0.07518050  0.99587450  0.70097800  1
  C  509  1  0.07700150  0.95813350  0.82472500  1
  C  511  1  0.22851400  0.26886100  0.21790900  1
  C  512  1  0.22969150  0.25403200  0.23690450  1
  C  513  1  0.28593550  0.26980450  0.25311700  1
  C  514  1  0.28640950  0.28624300  0.23561450  1
  C  515  1  0.31550650  0.30292600  0.23733350  1
  C  516  1  0.34333650  0.30335400  0.25533350  1
  C  517  1  0.34077150  0.28474800  0.27035450  1
  C  518  1  0.31278300  0.26870750  0.26974850  1
  C  519  1  0.20298550  0.23861700  0.23866250  1
  C  520  1  0.17451050  0.23667000  0.22098050  1
  C  521  1  0.17148850  0.24929950  0.20032500  1
  C  522  1  0.19902650  0.26594300  0.19981550  1
  C  523  1  0.24564550  0.27124300  0.18498150  1
  C  524  1  0.24248400  0.28540250  0.16541250  1
  C  525  1  0.26371950  0.33037600  0.20388750  1
  C  526  1  0.26660850  0.31721900  0.22435950  1
  C  527  1  0.27261250  0.35911600  0.21155150  1
  C  528  1  0.28506500  0.37546450  0.23953350  1
  C  529  1  0.28896900  0.36379150  0.26106350  1
  C  530  1  0.27932500  0.33452650  0.25284650  1
  C  531  1  0.23522450  0.24196550  0.17380100  1
  C  532  1  0.22128800  0.22665900  0.14435200  1
  C  533  1  0.21821700  0.24171800  0.12584900  1
  C  534  1  0.22918650  0.27071350  0.13627900  1
  C  547  1  0.25699750  0.28604850  0.21582200  1
  C  548  1  0.25149700  0.31536300  0.17386300  1
  C  551  1  0.25799050  0.25333500  0.25488450  1
  C  554  1  0.30362750  0.38159350  0.28945300  1
  C  555  1  0.14331250  0.24729700  0.18189350  1
  C  556  1  0.20965550  0.19739400  0.13421350  1
  C  560  1  0.37142300  0.32061600  0.25657200  1
  C  562  1  0.28846900  0.99451700  0.55213600  1
  C  563  1  0.28731500  0.01233650  0.53613150  1
  C  564  1  0.23106700  0.97229650  0.49560650  1
  C  565  1  0.23058050  0.95431550  0.51156700  1
  C  566  1  0.20147700  0.92693150  0.49912750  1
  C  567  1  0.17364600  0.91710550  0.47171550  1
  C  568  1  0.17621450  0.93470200  0.45568250  1
  C  569  1  0.20421600  0.96208300  0.46764800  1
  C  570  1  0.31402800  0.04080550  0.54745350  1
  C  571  1  0.34248450  0.05160800  0.57401850  1
  C  572  1  0.34548200  0.03397400  0.58967100  1
  C  573  1  0.31793750  0.00591850  0.57874000  1
  C  574  1  0.27132650  0.94446500  0.53737950  1
  C  575  1  0.27443850  0.92804800  0.55469550  1
  C  576  1  0.25314550  0.94525150  0.57837800  1
  C  577  1  0.25033650  0.96286600  0.56235850  1
  C  578  1  0.24420150  0.94400350  0.59819600  1
  C  579  1  0.23178950  0.95955500  0.60209550  1
  C  580  1  0.22798450  0.97722700  0.58655850  1
  C  581  1  0.23766150  0.97866000  0.56695450  1
  C  582  1  0.28180150  0.94372950  0.51855800  1
  C  583  1  0.29574900  0.92823600  0.51722400  1
  C  584  1  0.29877650  0.91280150  0.53535600  1
  C  585  1  0.28774300  0.91222900  0.55333700  1
  C  598  1  0.25997650  0.96394300  0.54081250  1
  C  599  1  0.26534200  0.92744150  0.57559350  1
  C  602  1  0.25902550  0.00201150  0.50710900  1
  C  605  1  0.21339600  0.99100650  0.58972450  1
  C  606  1  0.37362400  0.04373900  0.61589700  1
  C  607  1  0.30743850  0.92975350  0.49963200  1
  C  611  1  0.14555950  0.89024950  0.46087100  1
  C  817  1  0.60424650  0.42340750  0.60126900  1
  C  818  1  0.59772100  0.44306100  0.59104000  1
  C  820  1  0.64225650  0.48299700  0.63531550  1
  C  821  1  0.64990000  0.46421100  0.64675000  1
  C  822  1  0.63061350  0.43448300  0.62979250  1
  C  824  1  0.66058650  0.51241300  0.65328350  1
  C  825  1  0.69536900  0.56978800  0.69179600  1
  C  826  1  0.70323950  0.55042500  0.70095350  1
  C  829  1  0.68600350  0.52181100  0.68197950  1
  C  833  1  0.67030900  0.55964700  0.66286300  1
  C  837  1  0.91252100  0.00205050  0.33101650  1
  C  838  1  0.91903850  0.99835150  0.35720900  1
  C  840  1  0.87451700  0.99809200  0.35258400  1
  C  841  1  0.86687650  0.00186150  0.32613500  1
  C  842  1  0.88616500  0.00419250  0.31569950  1
  C  844  1  0.85617400  0.99771450  0.36365750  1
  C  845  1  0.82131350  0.00135250  0.38620300  1
  C  846  1  0.81351900  0.00269450  0.35898350  1
  C  849  1  0.83075300  0.00096000  0.34760700  1
  C  853  1  0.84644150  0.99758800  0.40117450  1
  C  857  1  0.83398400  0.82775500  0.92688100  1
  C  858  1  0.86394500  0.85394450  0.94653650  1
  C  860  1  0.85950950  0.84920950  0.98641900  1
  C  861  1  0.82921750  0.82275700  0.96762850  1
  C  862  1  0.81645300  0.81238350  0.93792650  1
  C  864  1  0.87095200  0.86023500  0.01581800  1
  C  865  1  0.88980900  0.88270550  0.07317550  1
  C  866  1  0.86121800  0.85544150  0.05379750  1
  C  869  1  0.85157800  0.84412550  0.02519150  1
  C  873  1  0.90867250  0.89771500  0.06305450  1
  C  877  1  0.68279850  0.09795550  0.50550500  1
  C  878  1  0.65290150  0.08766700  0.50185950  1
  C  880  1  0.65730750  0.13195100  0.50152750  1
  C  881  1  0.68753450  0.14343250  0.50524700  1
  C  882  1  0.70028450  0.12650500  0.50759150  1
  C  884  1  0.64587000  0.14989300  0.50111900  1
  C  885  1  0.62697350  0.18836300  0.50464750  1
  C  886  1  0.65555050  0.19755950  0.50596000  1
  C  889  1  0.66518550  0.17860750  0.50428000  1
  C  893  1  0.60822150  0.15942350  0.50097400  1
  C  897  1  0.41242850  0.57742050  0.40596400  1
  C  898  1  0.41885550  0.55771800  0.41618050  1
  C  900  1  0.37424850  0.51784100  0.37189950  1
  C  901  1  0.36669750  0.53667600  0.36048250  1
  C  902  1  0.38607600  0.56640550  0.37745050  1
  C  904  1  0.35586200  0.48842750  0.35390950  1
  C  905  1  0.32106750  0.43109250  0.31534200  1
  C  906  1  0.31322750  0.45047900  0.30620950  1
  C  909  1  0.33047900  0.47908050  0.32521350  1
  C  913  1  0.34608600  0.44118250  0.34428350  1
  C  917  1  0.10462000  0.99873100  0.67673700  1
  C  918  1  0.09819550  0.00251050  0.65059200  1
  C  920  1  0.14279450  0.00284450  0.65534500  1
  C  921  1  0.15035050  0.99901000  0.68175750  1
  C  922  1  0.13097050  0.99659550  0.69210300  1
  C  924  1  0.16119100  0.00325650  0.64433050  1
  C  925  1  0.19605700  0.99956800  0.62183300  1
  C  926  1  0.20383150  0.99823400  0.64905150  1
  C  929  1  0.18658450  0.99998400  0.66040150  1
  C  933  1  0.17096600  0.00337400  0.60685000  1
  C  937  1  0.18272250  0.17306200  0.08057650  1
  C  938  1  0.15275150  0.14689800  0.06086950  1
  C  940  1  0.15739400  0.15162850  0.02108950  1
  C  941  1  0.18770550  0.17804700  0.03993250  1
  C  942  1  0.20037500  0.18840700  0.06961300  1
  C  944  1  0.14604050  0.14061250  0.99171600  1
  C  945  1  0.12734750  0.11814550  0.93442400  1
  C  946  1  0.15595050  0.14539100  0.95383950  1
  C  949  1  0.16551300  0.15670050  0.98241750  1
  C  953  1  0.10838650  0.10315350  0.94447100  1
  C  957  1  0.33432400  0.90302300  0.50221300  1
  C  958  1  0.36423150  0.91327250  0.50589600  1
  C  960  1  0.35960850  0.86887500  0.50599850  1
  C  961  1  0.32936850  0.85743050  0.50223800  1
  C  962  1  0.31671700  0.87443500  0.49998100  1
  C  964  1  0.37095350  0.85086700  0.50631950  1
  C  965  1  0.38967850  0.81229400  0.50262750  1
  C  966  1  0.36109550  0.80312700  0.50129250  1
  C  969  1  0.35154050  0.82213100  0.50304650  1
  C  973  1  0.40852650  0.84125400  0.50640850  1
  C  1137  1  0.54095200  0.32746050  0.41707850  1
  C  1138  1  0.51646000  0.32775350  0.41818050  1
  C  1140  1  0.49231300  0.32795650  0.37066550  1
  C  1141  1  0.51684200  0.32827700  0.36889400  1
  C  1142  1  0.54108100  0.32829950  0.39216050  1
  C  1144  1  0.46830400  0.32798900  0.34680800  1
  C  1145  1  0.42078250  0.32713500  0.29783450  1
  C  1146  1  0.44633350  0.32788200  0.29817750  1
  C  1149  1  0.46994200  0.32814650  0.32234750  1
  C  1153  1  0.42073650  0.32802900  0.32304250  1
  C  1157  1  0.97580700  0.88118050  0.29835950  1
  C  1158  1  0.00036350  0.90678750  0.32314700  1
  C  1160  1  0.02452150  0.88342750  0.34744800  1
  C  1161  1  0.99993500  0.85711700  0.32323600  1
  C  1162  1  0.97566350  0.85613600  0.29904050  1
  C  1164  1  0.04856750  0.88358850  0.37146300  1
  C  1165  1  0.09614900  0.88215450  0.41807750  1
  C  1166  1  0.07054300  0.85693650  0.39327350  1
  C  1169  1  0.04690100  0.85748950  0.36995650  1
  C  1173  1  0.09623750  0.90741650  0.41904100  1
  C  1177  1  0.92212200  0.79501800  0.83064300  1
  C  1178  1  0.92170350  0.82001050  0.83126500  1
  C  1180  1  0.96955750  0.84432050  0.83153900  1
  C  1181  1  0.97126450  0.81990300  0.83153450  1
  C  1182  1  0.94775800  0.79559850  0.83135950  1
  C  1184  1  0.99371100  0.86844900  0.83178100  1
  C  1185  1  0.04232600  0.91528250  0.83132050  1
  C  1186  1  0.04235250  0.89027300  0.83174350  1
  C  1189  1  0.01819450  0.86684400  0.83180950  1
  C  1193  1  0.01814050  0.91633900  0.83234650  1
  C  1197  1  0.59462850  0.91362250  0.38452000  1
  C  1198  1  0.59511150  0.91465400  0.40997150  1
  C  1200  1  0.54724500  0.86706950  0.38641650  1
  C  1201  1  0.54552500  0.86534100  0.36027200  1
  C  1202  1  0.56901700  0.88867450  0.35946450  1
  C  1204  1  0.52310450  0.84315400  0.38640150  1
  C  1205  1  0.47453850  0.79406350  0.38465100  1
  C  1206  1  0.47448950  0.79444950  0.35959300  1
  C  1209  1  0.49862600  0.81867750  0.36030650  1
  C  1213  1  0.49869600  0.81930850  0.40988750  1
  C  1217  1  0.59575250  0.67303900  0.70948050  1
  C  1218  1  0.59597450  0.67235600  0.68436850  1
  C  1220  1  0.54851250  0.67255700  0.66059850  1
  C  1221  1  0.54668400  0.67216500  0.68494500  1
  C  1222  1  0.57015050  0.67224200  0.70906850  1
  C  1224  1  0.52465750  0.67279850  0.63679700  1
  C  1225  1  0.47631700  0.67370950  0.59049950  1
  C  1226  1  0.47599650  0.67263050  0.61530100  1
  C  1229  1  0.50008350  0.67244050  0.63850900  1
  C  1233  1  0.50085400  0.67345850  0.58945250  1
  C  1237  1  0.92108000  0.11880500  0.58916600  1
  C  1238  1  0.92082900  0.09346850  0.58823050  1
  C  1240  1  0.96837450  0.11717700  0.63587750  1
  C  1241  1  0.97021500  0.14334850  0.63735050  1
  C  1242  1  0.94671850  0.14399700  0.61398450  1
  C  1244  1  0.99226850  0.11724100  0.65994950  1
  C  1245  1  0.04069050  0.11930600  0.70914850  1
  C  1246  1  0.04100700  0.14442000  0.70843100  1
  C  1249  1  0.01688350  0.14353150  0.68417800  1
  C  1253  1  0.01610600  0.09371650  0.68434850  1
  C  1257  1  0.54126500  0.20612600  0.62214800  1
  C  1258  1  0.51699850  0.18081450  0.59699200  1
  C  1260  1  0.49316650  0.15704450  0.62088900  1
  C  1261  1  0.51774800  0.18160800  0.64689600  1
  C  1262  1  0.54164750  0.20583000  0.64736250  1
  C  1264  1  0.46928100  0.13313550  0.62113250  1
  C  1265  1  0.42236050  0.08662950  0.62352300  1
  C  1266  1  0.44807650  0.11164700  0.64847950  1
  C  1269  1  0.47133250  0.13496050  0.64742600  1
  C  1273  1  0.42159350  0.08547850  0.59793300  1
  C  1277  1  0.97566450  0.08591200  0.17666750  1
  C  1278  1  0.99998550  0.08506350  0.17572500  1
  C  1280  1  0.02380000  0.13276500  0.17573400  1
  C  1281  1  0.99920650  0.13417300  0.17567850  1
  C  1282  1  0.97529550  0.11073800  0.17598950  1
  C  1284  1  0.04769100  0.15689350  0.17571350  1
  C  1285  1  0.09463650  0.20621300  0.17615150  1
  C  1286  1  0.06889800  0.20542600  0.17540500  1
  C  1289  1  0.04563700  0.18111800  0.17546000  1
  C  1293  1  0.09537650  0.18138800  0.17575350  1
  C  1457  1  0.56218600  0.08657005  0.31013205  1
  C  1458  1  0.52834950  0.06754155  0.29255405  1
  C  1459  1  0.52816350  0.05137655  0.33269305  1
  C  1460  1  0.56211150  0.06895055  0.35044205  1
  C  1461  1  0.57720100  0.06730155  0.37777355  1
  C  1462  1  0.55974950  0.04928855  0.38777005  1
  C  1463  1  0.52611850  0.03418355  0.37040905  1
  C  1464  1  0.51055800  0.03473055  0.34307955  1
  C  1465  1  0.51104350  0.06575855  0.26416905  1
  C  1466  1  0.52666050  0.08344855  0.25322305  1
  C  1467  1  0.55996700  0.10411905  0.27061805  1
  C  1468  1  0.57724500  0.10465305  0.29858305  1
  C  1469  1  0.59771100  0.11964205  0.36009505  1
  C  1470  1  0.63143600  0.13929055  0.37628455  1
  C  1471  1  0.63778300  0.10080205  0.35884105  1
  C  1472  1  0.60415300  0.08022855  0.34151255  1
  C  1473  1  0.65880000  0.09317700  0.35988400  1
  C  1474  1  0.64711650  0.06512050  0.34447700  1
  C  1475  1  0.61392100  0.04346950  0.32714950  1
  C  1476  1  0.59292300  0.05166600  0.32585000  1
  C  1477  1  0.57969350  0.13079705  0.36106855  1
  C  1478  1  0.59391050  0.16027905  0.37661655  1
  C  1479  1  0.62746800  0.17885155  0.39184955  1
  C  1480  1  0.64595550  0.16845605  0.39214955  1
  C  1493  1  0.58159250  0.08874055  0.34063705  1
  C  1494  1  0.65286550  0.13088505  0.37659455  1
  C  1497  1  0.50979700  0.04955605  0.30305505  1
  C  1500  1  0.60330300  0.01499950  0.31359650  1
  C  1501  1  0.57629100  0.12252705  0.26070205  1
  C  1502  1  0.57486350  0.17039505  0.37534555  1
  C  1506  1  0.57590900  0.04812205  0.41455905  1
  C  1508  1  0.95463000  0.75301405  0.03627605  1
  C  1509  1  0.98846550  0.76925805  0.05107755  1
  C  1510  1  0.98869850  0.80958605  0.03511355  1
  C  1511  1  0.95475200  0.79339705  0.01873405  1
  C  1512  1  0.93968850  0.80564305  0.00199355  1
  C  1513  1  0.95716500  0.83308655  0.00144055  1
  C  1514  1  0.99079650  0.84934655  0.01997205  1
  C  1515  1  0.00633000  0.83757305  0.03607905  1
  C  1516  1  0.00574550  0.75816555  0.06657905  1
  C  1517  1  0.99010650  0.73160055  0.06863705  1
  C  1518  1  0.95680750  0.71570905  0.05601955  1
  C  1519  1  0.93955250  0.72641055  0.03929705  1
  C  1520  1  0.91912950  0.76745355  0.03381305  1
  C  1521  1  0.88540150  0.74990505  0.01971355  1
  C  1522  1  0.87905500  0.72610555  0.97486355  1
  C  1523  1  0.91268600  0.74242205  0.98793805  1
  C  1524  1  0.85803850  0.70611600  0.94620750  1
  C  1525  1  0.86972300  0.70238250  0.92983750  1
  C  1526  1  0.90291900  0.71826650  0.94140050  1
  C  1527  1  0.92391700  0.73798300  0.97060900  1
  C  1528  1  0.93714300  0.78644505  0.06300505  1
  C  1529  1  0.92292000  0.78777255  0.07826555  1
  C  1530  1  0.88936300  0.76943755  0.06325855  1
  C  1531  1  0.87087850  0.75123855  0.03435805  1
  C  1544  1  0.93524800  0.76411455  0.01903255  1
  C  1545  1  0.86397300  0.72877455  0.98986255  1
  C  1548  1  0.00704100  0.79830755  0.05165355  1
  C  1551  1  0.91353500  0.71532750  0.92354350  1
  C  1552  1  0.94046900  0.68947505  0.05810205  1
  C  1553  1  0.94196100  0.80555855  0.10744855  1
  C  1557  1  0.94104000  0.84372955  0.98411955  1
  C  1559  1  0.78810450  0.53301800  0.59005350  1
  C  1560  1  0.78683350  0.54805800  0.57124050  1
  C  1561  1  0.73054650  0.53198200  0.55517450  1
  C  1562  1  0.73018200  0.51536250  0.57251250  1
  C  1563  1  0.70109700  0.49842050  0.57074150  1
  C  1564  1  0.67316200  0.49787450  0.55281650  1
  C  1565  1  0.67562700  0.51668000  0.53800300  1
  C  1566  1  0.70361000  0.53300100  0.53867800  1
  C  1567  1  0.81350950  0.56372650  0.56950500  1
  C  1568  1  0.84203400  0.56568150  0.58700750  1
  C  1569  1  0.84512550  0.55278350  0.60744900  1
  C  1570  1  0.81763700  0.53594800  0.60797100  1
  C  1571  1  0.77112700  0.53043350  0.62309050  1
  C  1572  1  0.77451250  0.51630150  0.64267300  1
  C  1573  1  0.75341800  0.47143100  0.60415700  1
  C  1574  1  0.75025550  0.48454400  0.58364650  1
  C  1575  1  0.74471550  0.44275100  0.59649850  1
  C  1576  1  0.73213500  0.42639600  0.56847400  1
  C  1577  1  0.72789000  0.43799400  0.54688500  1
  C  1578  1  0.73740900  0.46722700  0.55511200  1
  C  1579  1  0.78139300  0.55965900  0.63429600  1
  C  1580  1  0.79537300  0.57493600  0.66376500  1
  C  1581  1  0.79863300  0.55989400  0.68226900  1
  C  1582  1  0.78783950  0.53095350  0.67182600  1
  C  1595  1  0.75970650  0.51566900  0.59221050  1
  C  1596  1  0.76572050  0.48641600  0.63421750  1
  C  1599  1  0.75847250  0.54873950  0.55346000  1
  C  1602  1  0.71304400  0.42014400  0.51845000  1
  C  1603  1  0.87331950  0.55471000  0.62564950  1
  C  1604  1  0.80686950  0.60416350  0.67392500  1
  C  1608  1  0.64505800  0.48027950  0.55143550  1
  C  1610  1  0.72869000  0.80702150  0.25670150  1
  C  1611  1  0.72993300  0.78947550  0.27300850  1
  C  1612  1  0.78622700  0.82969700  0.31327200  1
  C  1613  1  0.78660850  0.84740700  0.29702550  1
  C  1614  1  0.81570250  0.87472600  0.30919550  1
  C  1615  1  0.84363550  0.88472700  0.33659750  1
  C  1616  1  0.84116350  0.86743550  0.35292500  1
  C  1617  1  0.81316450  0.84012800  0.34124250  1
  C  1618  1  0.70324750  0.76105600  0.26196350  1
  C  1619  1  0.67474100  0.75002900  0.23536000  1
  C  1620  1  0.67167750  0.76738350  0.21937400  1
  C  1621  1  0.69917450  0.79540300  0.23006550  1
  C  1622  1  0.74569100  0.85703300  0.27110900  1
  C  1623  1  0.74234200  0.87323050  0.25358750  1
  C  1624  1  0.76348100  0.85583600  0.22985800  1
  C  1625  1  0.76657750  0.83846550  0.24611700  1
  C  1626  1  0.77222200  0.85689100  0.20990200  1
  C  1627  1  0.78477100  0.84143250  0.20612850  1
  C  1628  1  0.78893300  0.82405250  0.22194350  1
  C  1629  1  0.77938950  0.82276000  0.24164450  1
  C  1630  1  0.73537750  0.85795400  0.29003850  1
  C  1631  1  0.72139550  0.87343250  0.29130600  1
  C  1632  1  0.71817250  0.88867350  0.27299900  1
  C  1633  1  0.72901500  0.88904500  0.25488400  1
  C  1646  1  0.75709950  0.83757700  0.26777850  1
  C  1647  1  0.75120250  0.87359900  0.23253450  1
  C  1650  1  0.75828350  0.80005350  0.30207700  1
  C  1653  1  0.80372000  0.81042400  0.21892000  1
  C  1654  1  0.64352000  0.75737050  0.19305450  1
  C  1655  1  0.70986100  0.87208600  0.30901200  1
  C  1659  1  0.87174200  0.91145950  0.34713150  1
  C  1865  1  0.45457350  0.51567400  0.29846050  1
  C  1866  1  0.48842450  0.53462250  0.31582200  1
  C  1867  1  0.48820100  0.55049450  0.27543450  1
  C  1868  1  0.45424150  0.53303350  0.25792100  1
  C  1869  1  0.43895250  0.53460250  0.23058300  1
  C  1870  1  0.45622050  0.55242850  0.22035300  1
  C  1871  1  0.48984550  0.56736550  0.23745200  1
  C  1872  1  0.50560650  0.56691400  0.26479150  1
  C  1873  1  0.50592900  0.53649700  0.34420800  1
  C  1874  1  0.49048500  0.51898950  0.35537550  1
  C  1875  1  0.45715400  0.49841250  0.33820050  1
  C  1876  1  0.43969150  0.49776600  0.31022350  1
  C  1877  1  0.41883700  0.48242550  0.24857850  1
  C  1878  1  0.38513550  0.46271200  0.23257550  1
  C  1879  1  0.37879100  0.50121200  0.24999600  1
  C  1880  1  0.41241150  0.52184550  0.26715000  1
  C  1881  1  0.35778800  0.50881450  0.24904250  1
  C  1882  1  0.36947050  0.53689650  0.26437500  1
  C  1883  1  0.40265550  0.55859800  0.28153350  1
  C  1884  1  0.42364300  0.55043000  0.28274000  1
  C  1885  1  0.43687050  0.47132550  0.24752700  1
  C  1886  1  0.42270100  0.44183700  0.23207000  1
  C  1887  1  0.38916950  0.42318600  0.21703950  1
  C  1888  1  0.37065750  0.43352200  0.21682350  1
  C  1901  1  0.43496200  0.51336250  0.26793950  1
  C  1902  1  0.36371450  0.47108650  0.23235600  1
  C  1905  1  0.50678000  0.55239400  0.30506500  1
  C  1908  1  0.41326950  0.58707700  0.29503650  1
  C  1909  1  0.44098750  0.48022700  0.34835450  1
  C  1910  1  0.44181350  0.43182800  0.23326550  1
  C  1914  1  0.43987800  0.55356750  0.19359250  1
  C  1916  1  0.06241100  0.84900350  0.57281250  1
  C  1917  1  0.02856250  0.83252100  0.55791250  1
  C  1918  1  0.02875050  0.79236300  0.57400350  1
  C  1919  1  0.06270900  0.80880600  0.59051400  1
  C  1920  1  0.07797600  0.79676150  0.60738750  1
  C  1921  1  0.06068750  0.76927300  0.60794550  1
  C  1922  1  0.02706200  0.75274850  0.58924550  1
  C  1923  1  0.01132400  0.76432150  0.57301550  1
  C  1924  1  0.01107600  0.84340950  0.54229850  1
  C  1925  1  0.02653400  0.87002150  0.54024950  1
  C  1926  1  0.05985950  0.88616650  0.55298800  1
  C  1927  1  0.07730500  0.87564300  0.56978700  1
  C  1928  1  0.09813100  0.83486450  0.57531650  1
  C  1929  1  0.13183650  0.85257500  0.58932950  1
  C  1930  1  0.13817850  0.87634950  0.63418600  1
  C  1931  1  0.10455800  0.85987300  0.62117900  1
  C  1932  1  0.15918100  0.89641700  0.66280600  1
  C  1933  1  0.14749650  0.90008150  0.67919900  1
  C  1934  1  0.11431150  0.88404900  0.66769550  1
  C  1935  1  0.09332300  0.86424700  0.63852400  1
  C  1936  1  0.08010550  0.81578000  0.54616350  1
  C  1937  1  0.09428100  0.81451300  0.53084500  1
  C  1938  1  0.12781400  0.83302100  0.54575300  1
  C  1939  1  0.14632100  0.85131600  0.57462200  1
  C  1952  1  0.08200700  0.83810100  0.59012600  1
  C  1953  1  0.15325800  0.87378400  0.61914400  1
  C  1956  1  0.01018900  0.80341200  0.55732000  1
  C  1959  1  0.10369900  0.88694900  0.68556200  1
  C  1960  1  0.07603300  0.91248300  0.55097000  1
  C  1961  1  0.07518050  0.79659950  0.50170300  1
  C  1965  1  0.07700150  0.75885850  0.62545000  1
  C  1967  1  0.22851400  0.06958605  0.01863405  1
  C  1968  1  0.22969150  0.05475705  0.03762955  1
  C  1969  1  0.28593550  0.07052955  0.05384205  1
  C  1970  1  0.28640950  0.08696805  0.03633955  1
  C  1971  1  0.31550650  0.10365105  0.03805855  1
  C  1972  1  0.34333650  0.10407905  0.05605855  1
  C  1973  1  0.34077150  0.08547305  0.07107955  1
  C  1974  1  0.31278300  0.06943255  0.07047355  1
  C  1975  1  0.20298550  0.03934205  0.03938755  1
  C  1976  1  0.17451050  0.03739505  0.02170555  1
  C  1977  1  0.17148850  0.05002455  0.00105005  1
  C  1978  1  0.19902650  0.06666805  0.00054055  1
  C  1979  1  0.24564550  0.07196805  0.98570655  1
  C  1980  1  0.24248400  0.08612755  0.96613755  1
  C  1981  1  0.26371950  0.13110105  0.00461255  1
  C  1982  1  0.26660850  0.11794405  0.02508455  1
  C  1983  1  0.27261250  0.15984105  0.01227655  1
  C  1984  1  0.28506500  0.17618955  0.04025855  1
  C  1985  1  0.28896900  0.16451655  0.06178855  1
  C  1986  1  0.27932500  0.13525155  0.05357155  1
  C  1987  1  0.23522450  0.04269050  0.97452600  1
  C  1988  1  0.22128800  0.02738400  0.94507700  1
  C  1989  1  0.21821700  0.04244300  0.92657400  1
  C  1990  1  0.22918650  0.07143850  0.93700400  1
  C  2003  1  0.25699750  0.08677355  0.01654705  1
  C  2004  1  0.25149700  0.11608805  0.97458805  1
  C  2007  1  0.25799050  0.05406005  0.05560955  1
  C  2010  1  0.30362750  0.18231855  0.09017805  1
  C  2011  1  0.14331250  0.04802205  0.98261855  1
  C  2012  1  0.20965550  0.99811900  0.93493850  1
  C  2016  1  0.37142300  0.12134105  0.05729705  1
  C  2018  1  0.28846900  0.79524205  0.35286105  1
  C  2019  1  0.28731500  0.81306155  0.33685655  1
  C  2020  1  0.23106700  0.77302155  0.29633155  1
  C  2021  1  0.23058050  0.75504055  0.31229205  1
  C  2022  1  0.20147700  0.72765655  0.29985255  1
  C  2023  1  0.17364600  0.71783055  0.27244055  1
  C  2024  1  0.17621450  0.73542705  0.25640755  1
  C  2025  1  0.20421600  0.76280805  0.26837305  1
  C  2026  1  0.31402800  0.84153055  0.34817855  1
  C  2027  1  0.34248450  0.85233305  0.37474355  1
  C  2028  1  0.34548200  0.83469905  0.39039605  1
  C  2029  1  0.31793750  0.80664355  0.37946505  1
  C  2030  1  0.27132650  0.74519005  0.33810455  1
  C  2031  1  0.27443850  0.72877305  0.35542055  1
  C  2032  1  0.25314550  0.74597655  0.37910305  1
  C  2033  1  0.25033650  0.76359105  0.36308355  1
  C  2034  1  0.24420150  0.74472855  0.39892105  1
  C  2035  1  0.23178950  0.76028005  0.40282055  1
  C  2036  1  0.22798450  0.77795205  0.38728355  1
  C  2037  1  0.23766150  0.77938505  0.36767955  1
  C  2038  1  0.28180150  0.74445450  0.31928300  1
  C  2039  1  0.29574900  0.72896100  0.31794900  1
  C  2040  1  0.29877650  0.71352650  0.33608100  1
  C  2041  1  0.28774300  0.71295400  0.35406200  1
  C  2054  1  0.25997650  0.76466805  0.34153755  1
  C  2055  1  0.26534200  0.72816655  0.37631855  1
  C  2058  1  0.25902550  0.80273655  0.30783405  1
  C  2061  1  0.21339600  0.79173155  0.39044955  1
  C  2062  1  0.37362400  0.84446405  0.41662205  1
  C  2063  1  0.30743850  0.73047850  0.30035700  1
  C  2067  1  0.14555950  0.69097455  0.26159605  1
  C  2273  1  0.60424650  0.22413250  0.40199400  1
  C  2274  1  0.59772100  0.24378600  0.39176500  1
  C  2276  1  0.64225650  0.28372200  0.43604050  1
  C  2277  1  0.64990000  0.26493600  0.44747500  1
  C  2278  1  0.63061350  0.23520800  0.43051750  1
  C  2280  1  0.66058650  0.31313800  0.45400850  1
  C  2281  1  0.69536900  0.37051300  0.49252100  1
  C  2282  1  0.70323950  0.35115000  0.50167850  1
  C  2285  1  0.68600350  0.32253600  0.48270450  1
  C  2289  1  0.67030900  0.36037200  0.46358800  1
  C  2293  1  0.91252100  0.80277550  0.13174150  1
  C  2294  1  0.91903850  0.79907650  0.15793400  1
  C  2296  1  0.87451700  0.79881700  0.15330900  1
  C  2297  1  0.86687650  0.80258650  0.12686000  1
  C  2298  1  0.88616500  0.80491750  0.11642450  1
  C  2300  1  0.85617400  0.79843950  0.16438250  1
  C  2301  1  0.82131350  0.80207750  0.18692800  1
  C  2302  1  0.81351900  0.80341950  0.15970850  1
  C  2305  1  0.83075300  0.80168500  0.14833200  1
  C  2309  1  0.84644150  0.79831300  0.20189950  1
  C  2313  1  0.83398400  0.62848000  0.72760600  1
  C  2314  1  0.86394500  0.65466950  0.74726150  1
  C  2316  1  0.85950950  0.64993450  0.78714400  1
  C  2317  1  0.82921750  0.62348200  0.76835350  1
  C  2318  1  0.81645300  0.61310850  0.73865150  1
  C  2320  1  0.87095200  0.66096000  0.81654300  1
  C  2321  1  0.88980900  0.68343050  0.87390050  1
  C  2322  1  0.86121800  0.65616650  0.85452250  1
  C  2325  1  0.85157800  0.64485050  0.82591650  1
  C  2329  1  0.90867250  0.69844000  0.86377950  1
  C  2333  1  0.68279850  0.89868050  0.30623000  1
  C  2334  1  0.65290150  0.88839200  0.30258450  1
  C  2336  1  0.65730750  0.93267600  0.30225250  1
  C  2337  1  0.68753450  0.94415750  0.30597200  1
  C  2338  1  0.70028450  0.92723000  0.30831650  1
  C  2340  1  0.64587000  0.95061800  0.30184400  1
  C  2341  1  0.62697350  0.98908800  0.30537250  1
  C  2342  1  0.65555050  0.99828450  0.30668500  1
  C  2345  1  0.66518550  0.97933250  0.30500500  1
  C  2349  1  0.60822150  0.96014850  0.30169900  1
  C  2353  1  0.41242850  0.37814550  0.20668900  1
  C  2354  1  0.41885550  0.35844300  0.21690550  1
  C  2356  1  0.37424850  0.31856600  0.17262450  1
  C  2357  1  0.36669750  0.33740100  0.16120750  1
  C  2358  1  0.38607600  0.36713050  0.17817550  1
  C  2360  1  0.35586200  0.28915250  0.15463450  1
  C  2361  1  0.32106750  0.23181750  0.11606700  1
  C  2362  1  0.31322750  0.25120400  0.10693450  1
  C  2365  1  0.33047900  0.27980550  0.12593850  1
  C  2369  1  0.34608600  0.24190750  0.14500850  1
  C  2373  1  0.10462000  0.79945600  0.47746200  1
  C  2374  1  0.09819550  0.80323550  0.45131700  1
  C  2376  1  0.14279450  0.80356950  0.45607000  1
  C  2377  1  0.15035050  0.79973500  0.48248250  1
  C  2378  1  0.13097050  0.79732050  0.49282800  1
  C  2380  1  0.16119100  0.80398150  0.44505550  1
  C  2381  1  0.19605700  0.80029300  0.42255800  1
  C  2382  1  0.20383150  0.79895900  0.44977650  1
  C  2385  1  0.18658450  0.80070900  0.46112650  1
  C  2389  1  0.17096600  0.80409900  0.40757500  1
  C  2393  1  0.18272250  0.97378700  0.88130150  1
  C  2394  1  0.15275150  0.94762300  0.86159450  1
  C  2396  1  0.15739400  0.95235350  0.82181450  1
  C  2397  1  0.18770550  0.97877200  0.84065750  1
  C  2398  1  0.20037500  0.98913200  0.87033800  1
  C  2400  1  0.14604050  0.94133750  0.79244100  1
  C  2401  1  0.12734750  0.91887050  0.73514900  1
  C  2402  1  0.15595050  0.94611600  0.75456450  1
  C  2405  1  0.16551300  0.95742550  0.78314250  1
  C  2409  1  0.10838650  0.90387850  0.74519600  1
  C  2413  1  0.33432400  0.70374800  0.30293800  1
  C  2414  1  0.36423150  0.71399750  0.30662100  1
  C  2416  1  0.35960850  0.66960000  0.30672350  1
  C  2417  1  0.32936850  0.65815550  0.30296300  1
  C  2418  1  0.31671700  0.67516000  0.30070600  1
  C  2420  1  0.37095350  0.65159200  0.30704450  1
  C  2421  1  0.38967850  0.61301900  0.30335250  1
  C  2422  1  0.36109550  0.60385200  0.30201750  1
  C  2425  1  0.35154050  0.62285600  0.30377150  1
  C  2429  1  0.40852650  0.64197900  0.30713350  1
  C  2593  1  0.54095200  0.12818555  0.21780355  1
  C  2594  1  0.51646000  0.12847855  0.21890555  1
  C  2596  1  0.49231300  0.12868155  0.17139055  1
  C  2597  1  0.51684200  0.12900200  0.16961900  1
  C  2598  1  0.54108100  0.12902450  0.19288550  1
  C  2600  1  0.46830400  0.12871405  0.14753305  1
  C  2601  1  0.42078250  0.12786005  0.09855955  1
  C  2602  1  0.44633350  0.12860700  0.09890250  1
  C  2605  1  0.46994200  0.12887150  0.12307250  1
  C  2609  1  0.42073650  0.12875405  0.12376755  1
  C  2613  1  0.97580700  0.68190555  0.09908455  1
  C  2614  1  0.00036350  0.70751255  0.12387205  1
  C  2616  1  0.02452150  0.68415255  0.14817305  1
  C  2617  1  0.99993500  0.65784200  0.12396100  1
  C  2618  1  0.97566350  0.65686100  0.09976550  1
  C  2620  1  0.04856750  0.68431355  0.17218805  1
  C  2621  1  0.09614900  0.68287955  0.21880255  1
  C  2622  1  0.07054300  0.65766150  0.19399850  1
  C  2625  1  0.04690100  0.65821450  0.17068150  1
  C  2629  1  0.09623750  0.70814155  0.21976605  1
  C  2633  1  0.92212200  0.59574300  0.63136800  1
  C  2634  1  0.92170350  0.62073550  0.63199000  1
  C  2636  1  0.96955750  0.64504550  0.63226400  1
  C  2637  1  0.97126450  0.62062800  0.63225950  1
  C  2638  1  0.94775800  0.59632350  0.63208450  1
  C  2640  1  0.99371100  0.66917400  0.63250600  1
  C  2641  1  0.04232600  0.71600750  0.63204550  1
  C  2642  1  0.04235250  0.69099800  0.63246850  1
  C  2645  1  0.01819450  0.66756900  0.63253450  1
  C  2649  1  0.01814050  0.71706400  0.63307150  1
  C  2653  1  0.59462850  0.71434750  0.18524500  1
  C  2654  1  0.59511150  0.71537900  0.21069650  1
  C  2656  1  0.54724500  0.66779450  0.18714150  1
  C  2657  1  0.54552500  0.66606600  0.16099700  1
  C  2658  1  0.56901700  0.68939950  0.16018950  1
  C  2660  1  0.52310450  0.64387900  0.18712650  1
  C  2661  1  0.47453850  0.59478850  0.18537600  1
  C  2662  1  0.47448950  0.59517450  0.16031800  1
  C  2665  1  0.49862600  0.61940250  0.16103150  1
  C  2669  1  0.49869600  0.62003350  0.21061250  1
  C  2673  1  0.59575250  0.47376400  0.51020550  1
  C  2674  1  0.59597450  0.47308100  0.48509350  1
  C  2676  1  0.54851250  0.47328200  0.46132350  1
  C  2677  1  0.54668400  0.47289000  0.48567000  1
  C  2678  1  0.57015050  0.47296700  0.50979350  1
  C  2680  1  0.52465750  0.47352350  0.43752200  1
  C  2681  1  0.47631700  0.47443450  0.39122450  1
  C  2682  1  0.47599650  0.47335550  0.41602600  1
  C  2685  1  0.50008350  0.47316550  0.43923400  1
  C  2689  1  0.50085400  0.47418350  0.39017750  1
  C  2693  1  0.92108000  0.91953000  0.38989100  1
  C  2694  1  0.92082900  0.89419350  0.38895550  1
  C  2696  1  0.96837450  0.91790200  0.43660250  1
  C  2697  1  0.97021500  0.94407350  0.43807550  1
  C  2698  1  0.94671850  0.94472200  0.41470950  1
  C  2700  1  0.99226850  0.91796600  0.46067450  1
  C  2701  1  0.04069050  0.92003100  0.50987350  1
  C  2702  1  0.04100700  0.94514500  0.50915600  1
  C  2705  1  0.01688350  0.94425650  0.48490300  1
  C  2709  1  0.01610600  0.89444150  0.48507350  1
  C  2713  1  0.54126500  0.00685105  0.42287305  1
  C  2714  1  0.51699850  0.98153955  0.39771705  1
  C  2716  1  0.49316650  0.95776955  0.42161405  1
  C  2717  1  0.51774800  0.98233305  0.44762105  1
  C  2718  1  0.54164750  0.00655505  0.44808755  1
  C  2720  1  0.46928100  0.93386055  0.42185755  1
  C  2721  1  0.42236050  0.88735455  0.42424805  1
  C  2722  1  0.44807650  0.91237205  0.44920455  1
  C  2725  1  0.47133250  0.93568555  0.44815105  1
  C  2729  1  0.42159350  0.88620355  0.39865805  1
  C  2733  1  0.97566450  0.88663705  0.97739255  1
  C  2734  1  0.99998550  0.88578855  0.97645005  1
  C  2736  1  0.02380000  0.93349005  0.97645905  1
  C  2737  1  0.99920650  0.93489805  0.97640355  1
  C  2738  1  0.97529550  0.91146305  0.97671455  1
  C  2740  1  0.04769100  0.95761855  0.97643855  1
  C  2741  1  0.09463650  0.00693805  0.97687655  1
  C  2742  1  0.06889800  0.00615105  0.97613005  1
  C  2745  1  0.04563700  0.98184305  0.97618505  1
  C  2749  1  0.09537650  0.98211305  0.97647855  1
  H  25  1  0.63906150  0.39961850  0.60173000  1
  H  26  1  0.67025900  0.38200550  0.60257750  1
  H  27  1  0.68306150  0.30725900  0.57167650  1
  H  28  1  0.66363950  0.26002050  0.54600900  1
  H  29  1  0.56881950  0.23563150  0.51286200  1
  H  30  1  0.55528650  0.31636600  0.54841850  1
  H  31  1  0.60169150  0.27871600  0.58985550  1
  H  32  1  0.51238650  0.22181850  0.57657000  1
  H  33  1  0.48605900  0.22202050  0.52997950  1
  H  34  1  0.60157500  0.31827200  0.51051800  1
  H  35  1  0.48668950  0.25088850  0.45049800  1
  H  36  1  0.51326050  0.28023650  0.43167200  1
  H  39  1  0.66678400  0.34416100  0.56857000  1
  H  40  1  0.66939300  0.33426850  0.59816850  1
  H  42  1  0.49555500  0.22634050  0.48781250  1
  H  43  1  0.49339450  0.25487550  0.50095700  1
  H  47  1  0.55136900  0.35525700  0.56272300  1
  H  48  1  0.58149400  0.19803300  0.50605100  1
  H  49  1  0.59962800  0.33033050  0.47024950  1
  H  51  1  0.59904050  0.26282350  0.62712900  1
  H  76  1  0.87776250  0.96770350  0.27242800  1
  H  77  1  0.84657750  0.93735250  0.22359100  1
  H  78  1  0.83377750  0.89363250  0.13601600  1
  H  79  1  0.85319850  0.88737650  0.10820300  1
  H  80  1  0.94801950  0.94910850  0.17868700  1
  H  81  1  0.96155050  0.99821350  0.27299600  1
  H  82  1  0.91519750  0.99324150  0.18890800  1
  H  83  1  0.00454550  0.06923650  0.22134400  1
  H  84  1  0.03082950  0.04896250  0.24787200  1
  H  85  1  0.91522600  0.91402400  0.22858800  1
  H  86  1  0.03009500  0.96883150  0.27604950  1
  H  87  1  0.00348700  0.92343550  0.27879950  1
  H  90  1  0.85005150  0.90683350  0.18922100  1
  H  91  1  0.84744650  0.93380400  0.17670150  1
  H  93  1  0.02125850  0.99729250  0.24266000  1
  H  94  1  0.02346500  0.01261250  0.27339350  1
  H  98  1  0.96545600  0.01643850  0.31582150  1
  H  99  1  0.93536800  0.92957100  0.12842200  1
  H  100  1  0.91712150  0.87570000  0.24258150  1
  H  102  1  0.91792550  0.03321600  0.17572650  1
  H  127  1  0.80956550  0.76907500  0.90302350  1
  H  128  1  0.79091950  0.72016400  0.88532750  1
  H  129  1  0.74695000  0.63253100  0.81053500  1
  H  130  1  0.72547400  0.60474050  0.76334750  1
  H  131  1  0.73442700  0.67533650  0.73912450  1
  H  132  1  0.77968450  0.76968400  0.81991650  1
  H  133  1  0.70028400  0.68516200  0.78197700  1
  H  134  1  0.65716850  0.71808350  0.72574400  1
  H  135  1  0.70414600  0.74497900  0.72615700  1
  H  136  1  0.81919400  0.72507550  0.82144250  1
  H  137  1  0.81244150  0.77338750  0.75479500  1
  H  138  1  0.86042450  0.77597200  0.78382350  1
  H  141  1  0.78697850  0.68578700  0.84742950  1
  H  142  1  0.74749000  0.67320500  0.83760200  1
  H  144  1  0.75057450  0.73997750  0.73026300  1
  H  145  1  0.76600700  0.77052200  0.75901700  1
  H  149  1  0.80440650  0.81255200  0.85882650  1
  H  150  1  0.70380700  0.62505150  0.70152850  1
  H  151  1  0.87142450  0.73905100  0.83330750  1
  H  153  1  0.64702050  0.67165600  0.76598150  1
  H  178  1  0.70725200  0.09849550  0.47123350  1
  H  179  1  0.72598150  0.09947900  0.44102150  1
  H  180  1  0.77005000  0.06872000  0.39746900  1
  H  181  1  0.79146450  0.04297650  0.39115000  1
  H  182  1  0.78231250  0.00973150  0.45271700  1
  H  183  1  0.73706450  0.04528800  0.50177650  1
  H  184  1  0.81652850  0.08678000  0.49675550  1
  H  185  1  0.85962650  0.07362800  0.57279550  1
  H  186  1  0.81262050  0.02706250  0.55267500  1
  H  187  1  0.69764250  0.00731550  0.41763100  1
  H  188  1  0.70429500  0.94741050  0.47268950  1
  H  189  1  0.65634750  0.92844650  0.42722700  1
  H  192  1  0.72998000  0.06557700  0.41061700  1
  H  193  1  0.76946850  0.09522000  0.43760450  1
  H  195  1  0.76616700  0.98475650  0.50120650  1
  H  196  1  0.75074350  0.99807150  0.51632400  1
  H  200  1  0.71227500  0.05943550  0.51985250  1
  H  201  1  0.81297200  0.00277800  0.43309900  1
  H  202  1  0.64545700  0.96689450  0.37927450  1
  H  204  1  0.86977900  0.12406200  0.53658000  1
  H  433  1  0.37761600  0.60095800  0.40579500  1
  H  434  1  0.34637650  0.61847350  0.40508500  1
  H  435  1  0.33353500  0.69324300  0.43593000  1
  H  436  1  0.35295300  0.74052500  0.46147100  1
  H  437  1  0.44773650  0.76504700  0.49415650  1
  H  438  1  0.46126550  0.68436850  0.45857900  1
  H  439  1  0.41445700  0.72181800  0.41721900  1
  H  440  1  0.50343400  0.77810300  0.42964900  1
  H  441  1  0.53010450  0.77806450  0.47625600  1
  H  442  1  0.41534850  0.68274900  0.49699150  1
  H  443  1  0.53029900  0.74985200  0.55627000  1
  H  444  1  0.50402500  0.72081800  0.57547500  1
  H  447  1  0.34997100  0.65643750  0.43910450  1
  H  448  1  0.34702850  0.66611550  0.40933400  1
  H  450  1  0.52119700  0.77420050  0.51880650  1
  H  451  1  0.52302050  0.74546400  0.50554150  1
  H  455  1  0.46529150  0.64558350  0.44434200  1
  H  456  1  0.43505150  0.80259100  0.50106250  1
  H  457  1  0.41769200  0.67110800  0.53754600  1
  H  459  1  0.41672150  0.73743750  0.37969500  1
  H  484  1  0.13937450  0.03335950  0.73508100  1
  H  485  1  0.17060300  0.06387150  0.78387050  1
  H  486  1  0.18343450  0.10756750  0.87150100  1
  H  487  1  0.16401550  0.11371300  0.89935550  1
  H  488  1  0.06922950  0.05155800  0.82903750  1
  H  489  1  0.05570850  0.00243750  0.73479000  1
  H  490  1  0.10247300  0.00789400  0.81911300  1
  H  491  1  0.01345900  0.93136150  0.78639750  1
  H  492  1  0.98682500  0.95129050  0.75966250  1
  H  493  1  0.10164650  0.08675250  0.77911500  1
  H  494  1  0.98670900  0.03111000  0.73129200  1
  H  495  1  0.01300950  0.07659050  0.72855900  1
  H  498  1  0.16701100  0.09427250  0.81824350  1
  H  499  1  0.16993350  0.06745650  0.83087500  1
  H  501  1  0.99578600  0.00274250  0.76471950  1
  H  502  1  0.99393700  0.98764550  0.73413250  1
  H  506  1  0.05170050  0.98419550  0.69195700  1
  H  507  1  0.08189250  0.07121450  0.87925900  1
  H  508  1  0.09934200  0.12495700  0.76513200  1
  H  510  1  0.10015050  0.96809350  0.83247000  1
  H  535  1  0.20730400  0.23179550  0.10437750  1
  H  536  1  0.22625600  0.28079500  0.12205500  1
  H  537  1  0.27059000  0.36864800  0.19682200  1
  H  538  1  0.29186450  0.39643400  0.24395050  1
  H  539  1  0.28208450  0.32564950  0.26807700  1
  H  540  1  0.23678500  0.23120750  0.18745250  1
  H  541  1  0.31639450  0.31532750  0.22524800  1
  H  542  1  0.35915100  0.28255000  0.28197700  1
  H  543  1  0.31216950  0.25613850  0.28167800  1
  H  544  1  0.19753800  0.27594200  0.18549500  1
  H  545  1  0.20399350  0.22840500  0.25279050  1
  H  546  1  0.15609650  0.22584300  0.22345650  1
  H  549  1  0.23036650  0.31541250  0.15986000  1
  H  550  1  0.26984950  0.32774350  0.16984400  1
  H  552  1  0.26589900  0.26162500  0.27733200  1
  H  553  1  0.25037900  0.23080500  0.24883400  1
  H  557  1  0.21196900  0.18827100  0.14858000  1
  H  558  1  0.31286900  0.37599250  0.30567850  1
  H  559  1  0.14526800  0.26217900  0.17343200  1
  H  561  1  0.36949550  0.32834450  0.24118900  1
  H  586  1  0.30968600  0.90225000  0.53636600  1
  H  587  1  0.29062100  0.90091900  0.56633800  1
  H  588  1  0.24615450  0.93126500  0.60972350  1
  H  589  1  0.22495050  0.95715900  0.61624350  1
  H  590  1  0.23496550  0.99115850  0.55534100  1
  H  591  1  0.28026600  0.95581950  0.50623750  1
  H  592  1  0.20057950  0.91395550  0.51064000  1
  H  593  1  0.15782650  0.92794600  0.43509650  1
  H  594  1  0.20483400  0.97463300  0.45569700  1
  H  595  1  0.31940400  0.99309000  0.59023500  1
  H  596  1  0.31303750  0.05392750  0.53623600  1
  H  597  1  0.36090300  0.07250550  0.58163550  1
  H  600  1  0.28642550  0.93453550  0.59680300  1
  H  601  1  0.24694800  0.90506350  0.56955550  1
  H  603  1  0.25112950  0.01654850  0.50749100  1
  H  604  1  0.26664300  0.00357700  0.49218900  1
  H  608  1  0.30518550  0.94183150  0.48821400  1
  H  609  1  0.20413200  0.99794600  0.57484600  1
  H  610  1  0.37162850  0.03334550  0.62883500  1
  H  612  1  0.14749150  0.87677500  0.47048850  1
  H  823  1  0.63499200  0.42078600  0.63869600  1
  H  827  1  0.57823400  0.43600100  0.57095100  1
  H  832  1  0.72041050  0.55661250  0.72204100  1
  H  834  1  0.66297300  0.57250700  0.65551700  1
  H  843  1  0.88182500  0.00874700  0.29763600  1
  H  847  1  0.93854600  0.99780200  0.36967400  1
  H  852  1  0.79631050  0.00654650  0.34796000  1
  H  854  1  0.85374150  0.99755600  0.42136850  1
  H  863  1  0.79380600  0.79430050  0.92423650  1
  H  867  1  0.87701800  0.86645100  0.93949500  1
  H  872  1  0.84627100  0.84439600  0.05997600  1
  H  874  1  0.92893750  0.91793750  0.07593500  1
  H  883  1  0.72290500  0.13545800  0.51210400  1
  H  887  1  0.63986500  0.06757250  0.50134650  1
  H  892  1  0.67043450  0.21865750  0.50974000  1
  H  894  1  0.58797850  0.15204950  0.50096000  1
  H  903  1  0.38177650  0.58014350  0.36856400  1
  H  907  1  0.43834150  0.56474350  0.43625700  1
  H  912  1  0.29610750  0.44433450  0.28511400  1
  H  914  1  0.35340750  0.42830650  0.35160400  1
  H  923  1  0.13523850  0.99198600  0.71013350  1
  H  927  1  0.07868450  0.00304350  0.63809100  1
  H  932  1  0.22099300  0.99432750  0.66006650  1
  H  934  1  0.16367400  0.00338750  0.58664850  1
  H  943  1  0.22303300  0.20646400  0.08334800  1
  H  947  1  0.13957450  0.13442650  0.06785100  1
  H  952  1  0.17095900  0.15642350  0.94771250  1
  H  954  1  0.08810200  0.08294900  0.93155800  1
  H  963  1  0.29408650  0.86551500  0.49543450  1
  H  967  1  0.37735800  0.93340000  0.50652000  1
  H  972  1  0.34615100  0.78202000  0.49744500  1
  H  974  1  0.42878700  0.84861250  0.50645650  1
  H  1143  1  0.55884950  0.32879950  0.39078800  1
  H  1147  1  0.51610850  0.32834550  0.43622900  1
  H  1152  1  0.44772850  0.32800000  0.28062950  1
  H  1154  1  0.40358000  0.32885100  0.32435800  1
  H  1163  1  0.95785750  0.83698850  0.28176900  1
  H  1167  1  0.00073600  0.92518950  0.32411250  1
  H  1172  1  0.06912750  0.83799200  0.39197850  1
  H  1174  1  0.11344750  0.92590200  0.43701850  1
  H  1183  1  0.94936350  0.77818450  0.83164600  1
  H  1187  1  0.90435400  0.82104800  0.83196800  1
  H  1192  1  0.05991250  0.88890500  0.83175350  1
  H  1194  1  0.01790050  0.93445000  0.83336350  1
  H  1203  1  0.56741100  0.88733950  0.34043350  1
  H  1207  1  0.61247000  0.93271550  0.42836950  1
  H  1212  1  0.45692550  0.77688600  0.34065550  1
  H  1214  1  0.49893900  0.82058300  0.42825000  1
  H  1223  1  0.56862650  0.67196900  0.72653950  1
  H  1227  1  0.61318650  0.67159500  0.68310750  1
  H  1232  1  0.45819700  0.67210500  0.61663300  1
  H  1234  1  0.50133200  0.67302250  0.57147550  1
  H  1243  1  0.94825450  0.16299150  0.61525900  1
  H  1247  1  0.90358300  0.07499050  0.57024850  1
  H  1252  1  0.05883300  0.16355300  0.72571600  1
  H  1254  1  0.01561400  0.07526150  0.68340650  1
  H  1263  1  0.55929750  0.22345000  0.66624250  1
  H  1267  1  0.51652400  0.17946900  0.57852000  1
  H  1272  1  0.44990350  0.11306250  0.66760800  1
  H  1274  1  0.40415650  0.06736600  0.57959650  1
  H  1283  1  0.95764400  0.11195950  0.17594250  1
  H  1287  1  0.00047150  0.06708200  0.17488950  1
  H  1292  1  0.06705850  0.22270850  0.17496100  1
  H  1294  1  0.11281400  0.18049600  0.17509000  1
  H  1481  1  0.63906150  0.20034355  0.40245505  1
  H  1482  1  0.67025900  0.18273055  0.40330255  1
  H  1483  1  0.68306150  0.10798400  0.37240150  1
  H  1484  1  0.66363950  0.06074550  0.34673400  1
  H  1485  1  0.56881950  0.03635650  0.31358700  1
  H  1486  1  0.55528650  0.11709105  0.34914355  1
  H  1487  1  0.60169150  0.07944105  0.39058055  1
  H  1488  1  0.51238650  0.02254355  0.37729505  1
  H  1489  1  0.48605900  0.02274555  0.33070455  1
  H  1490  1  0.60157500  0.11899705  0.31124305  1
  H  1491  1  0.48668950  0.05161355  0.25122305  1
  H  1492  1  0.51326050  0.08096150  0.23239700  1
  H  1495  1  0.66678400  0.14488605  0.36929505  1
  H  1496  1  0.66939300  0.13499355  0.39889355  1
  H  1498  1  0.49555500  0.02706555  0.28853755  1
  H  1499  1  0.49339450  0.05560055  0.30168205  1
  H  1503  1  0.55136900  0.15598205  0.36344805  1
  H  1504  1  0.58149400  0.99875800  0.30677600  1
  H  1505  1  0.59962800  0.13105555  0.27097455  1
  H  1507  1  0.59904050  0.06354855  0.42785405  1
  H  1532  1  0.87776250  0.76842855  0.07315305  1
  H  1533  1  0.84657750  0.73807755  0.02431605  1
  H  1534  1  0.83377750  0.69435750  0.93674100  1
  H  1535  1  0.85319850  0.68810150  0.90892800  1
  H  1536  1  0.94801950  0.74983350  0.97941200  1
  H  1537  1  0.96155050  0.79893855  0.07372105  1
  H  1538  1  0.91519750  0.79396655  0.98963305  1
  H  1539  1  0.00454550  0.86996155  0.02206905  1
  H  1540  1  0.03082950  0.84968755  0.04859705  1
  H  1541  1  0.91522600  0.71474905  0.02931305  1
  H  1542  1  0.03009500  0.76955655  0.07677455  1
  H  1543  1  0.00348700  0.72416055  0.07952455  1
  H  1546  1  0.85005150  0.70755855  0.98994605  1
  H  1547  1  0.84744650  0.73452905  0.97742655  1
  H  1549  1  0.02125850  0.79801755  0.04338505  1
  H  1550  1  0.02346500  0.81333755  0.07411855  1
  H  1554  1  0.96545600  0.81716355  0.11654655  1
  H  1555  1  0.93536800  0.73029600  0.92914700  1
  H  1556  1  0.91712150  0.67642505  0.04330655  1
  H  1558  1  0.91792550  0.83394105  0.97645155  1
  H  1583  1  0.80956550  0.56980000  0.70374850  1
  H  1584  1  0.79091950  0.52088900  0.68605250  1
  H  1585  1  0.74695000  0.43325600  0.61126000  1
  H  1586  1  0.72547400  0.40546550  0.56407250  1
  H  1587  1  0.73442700  0.47606150  0.53984950  1
  H  1588  1  0.77968450  0.57040900  0.62064150  1
  H  1589  1  0.70028400  0.48588700  0.58270200  1
  H  1590  1  0.65716850  0.51880850  0.52646900  1
  H  1591  1  0.70414600  0.54570400  0.52688200  1
  H  1592  1  0.81919400  0.52580050  0.62216750  1
  H  1593  1  0.81244150  0.57411250  0.55552000  1
  H  1594  1  0.86042450  0.57669700  0.58454850  1
  H  1597  1  0.78697850  0.48651200  0.64815450  1
  H  1598  1  0.74749000  0.47393000  0.63832700  1
  H  1600  1  0.75057450  0.54070250  0.53098800  1
  H  1601  1  0.76600700  0.57124700  0.55974200  1
  H  1605  1  0.80440650  0.61327700  0.65955150  1
  H  1606  1  0.70380700  0.42577650  0.50225350  1
  H  1607  1  0.87142450  0.53977600  0.63403250  1
  H  1609  1  0.64702050  0.47238100  0.56670650  1
  H  1634  1  0.70725200  0.89922050  0.27195850  1
  H  1635  1  0.72598150  0.90020400  0.24174650  1
  H  1636  1  0.77005000  0.86944500  0.19819400  1
  H  1637  1  0.79146450  0.84370150  0.19187500  1
  H  1638  1  0.78231250  0.81045650  0.25344200  1
  H  1639  1  0.73706450  0.84601300  0.30250150  1
  H  1640  1  0.81652850  0.88750500  0.29748050  1
  H  1641  1  0.85962650  0.87435300  0.37352050  1
  H  1642  1  0.81262050  0.82778750  0.35340000  1
  H  1643  1  0.69764250  0.80804050  0.21835600  1
  H  1644  1  0.70429500  0.74813550  0.27341450  1
  H  1645  1  0.65634750  0.72917150  0.22795200  1
  H  1648  1  0.72998000  0.86630200  0.21134200  1
  H  1649  1  0.76946850  0.89594500  0.23832950  1
  H  1651  1  0.76616700  0.78548150  0.30193150  1
  H  1652  1  0.75074350  0.79879650  0.31704900  1
  H  1656  1  0.71227500  0.86016050  0.32057750  1
  H  1657  1  0.81297200  0.80350300  0.23382400  1
  H  1658  1  0.64545700  0.76761950  0.17999950  1
  H  1660  1  0.86977900  0.92478700  0.33730500  1
  H  1889  1  0.37761600  0.40168300  0.20652000  1
  H  1890  1  0.34637650  0.41919850  0.20581000  1
  H  1891  1  0.33353500  0.49396800  0.23665500  1
  H  1892  1  0.35295300  0.54125000  0.26219600  1
  H  1893  1  0.44773650  0.56577200  0.29488150  1
  H  1894  1  0.46126550  0.48509350  0.25930400  1
  H  1895  1  0.41445700  0.52254300  0.21794400  1
  H  1896  1  0.50343400  0.57882800  0.23037400  1
  H  1897  1  0.53010450  0.57878950  0.27698100  1
  H  1898  1  0.41534850  0.48347400  0.29771650  1
  H  1899  1  0.53029900  0.55057700  0.35699500  1
  H  1900  1  0.50402500  0.52154300  0.37620000  1
  H  1903  1  0.34997100  0.45716250  0.23982950  1
  H  1904  1  0.34702850  0.46684050  0.21005900  1
  H  1906  1  0.52119700  0.57492550  0.31953150  1
  H  1907  1  0.52302050  0.54618900  0.30626650  1
  H  1911  1  0.46529150  0.44630850  0.24506700  1
  H  1912  1  0.43505150  0.60331600  0.30178750  1
  H  1913  1  0.41769200  0.47183300  0.33827100  1
  H  1915  1  0.41672150  0.53816250  0.18042000  1
  H  1940  1  0.13937450  0.83408450  0.53580600  1
  H  1941  1  0.17060300  0.86459650  0.58459550  1
  H  1942  1  0.18343450  0.90829250  0.67222600  1
  H  1943  1  0.16401550  0.91443800  0.70008050  1
  H  1944  1  0.06922950  0.85228300  0.62976250  1
  H  1945  1  0.05570850  0.80316250  0.53551500  1
  H  1946  1  0.10247300  0.80861900  0.61983800  1
  H  1947  1  0.01345900  0.73208650  0.58712250  1
  H  1948  1  0.98682500  0.75201550  0.56038750  1
  H  1949  1  0.10164650  0.88747750  0.57984000  1
  H  1950  1  0.98670900  0.83183500  0.53201700  1
  H  1951  1  0.01300950  0.87731550  0.52928400  1
  H  1954  1  0.16701100  0.89499750  0.61896850  1
  H  1955  1  0.16993350  0.86818150  0.63160000  1
  H  1957  1  0.99578600  0.80346750  0.56544450  1
  H  1958  1  0.99393700  0.78837050  0.53485750  1
  H  1962  1  0.05170050  0.78492050  0.49268200  1
  H  1963  1  0.08189250  0.87193950  0.67998400  1
  H  1964  1  0.09934200  0.92568200  0.56585700  1
  H  1966  1  0.10015050  0.76881850  0.63319500  1
  H  1991  1  0.20730400  0.03252050  0.90510250  1
  H  1992  1  0.22625600  0.08152000  0.92278000  1
  H  1993  1  0.27059000  0.16937305  0.99754705  1
  H  1994  1  0.29186450  0.19715905  0.04467555  1
  H  1995  1  0.28208450  0.12637455  0.06880205  1
  H  1996  1  0.23678500  0.03193250  0.98817750  1
  H  1997  1  0.31639450  0.11605255  0.02597305  1
  H  1998  1  0.35915100  0.08327505  0.08270205  1
  H  1999  1  0.31216950  0.05686355  0.08240305  1
  H  2000  1  0.19753800  0.07666705  0.98622005  1
  H  2001  1  0.20399350  0.02913005  0.05351555  1
  H  2002  1  0.15609650  0.02656805  0.02418155  1
  H  2005  1  0.23036650  0.11613755  0.96058505  1
  H  2006  1  0.26984950  0.12846855  0.97056905  1
  H  2008  1  0.26589900  0.06235005  0.07805705  1
  H  2009  1  0.25037900  0.03153005  0.04955905  1
  H  2013  1  0.21196900  0.98899600  0.94930500  1
  H  2014  1  0.31286900  0.17671755  0.10640355  1
  H  2015  1  0.14526800  0.06290405  0.97415705  1
  H  2017  1  0.36949550  0.12906955  0.04191405  1
  H  2042  1  0.30968600  0.70297500  0.33709100  1
  H  2043  1  0.29062100  0.70164400  0.36706300  1
  H  2044  1  0.24615450  0.73199005  0.41044855  1
  H  2045  1  0.22495050  0.75788405  0.41696855  1
  H  2046  1  0.23496550  0.79188355  0.35606605  1
  H  2047  1  0.28026600  0.75654450  0.30696250  1
  H  2048  1  0.20057950  0.71468055  0.31136505  1
  H  2049  1  0.15782650  0.72867105  0.23582155  1
  H  2050  1  0.20483400  0.77535805  0.25642205  1
  H  2051  1  0.31940400  0.79381505  0.39096005  1
  H  2052  1  0.31303750  0.85465255  0.33696105  1
  H  2053  1  0.36090300  0.87323055  0.38236055  1
  H  2056  1  0.28642550  0.73526055  0.39752805  1
  H  2057  1  0.24694800  0.70578855  0.37028055  1
  H  2059  1  0.25112950  0.81727355  0.30821605  1
  H  2060  1  0.26664300  0.80430205  0.29291405  1
  H  2064  1  0.30518550  0.74255650  0.28893900  1
  H  2065  1  0.20413200  0.79867105  0.37557105  1
  H  2066  1  0.37162850  0.83407055  0.42956005  1
  H  2068  1  0.14749150  0.67750005  0.27121355  1
  H  2279  1  0.63499200  0.22151100  0.43942100  1
  H  2283  1  0.57823400  0.23672600  0.37167600  1
  H  2288  1  0.72041050  0.35733750  0.52276600  1
  H  2290  1  0.66297300  0.37323200  0.45624200  1
  H  2299  1  0.88182500  0.80947200  0.09836100  1
  H  2303  1  0.93854600  0.79852700  0.17039900  1
  H  2308  1  0.79631050  0.80727150  0.14868500  1
  H  2310  1  0.85374150  0.79828100  0.22209350  1
  H  2319  1  0.79380600  0.59502550  0.72496150  1
  H  2323  1  0.87701800  0.66717600  0.74022000  1
  H  2328  1  0.84627100  0.64512100  0.86070100  1
  H  2330  1  0.92893750  0.71866250  0.87666000  1
  H  2339  1  0.72290500  0.93618300  0.31282900  1
  H  2343  1  0.63986500  0.86829750  0.30207150  1
  H  2348  1  0.67043450  0.01938250  0.31046500  1
  H  2350  1  0.58797850  0.95275267  0.30166317  1
  H  2359  1  0.38177650  0.38086850  0.16928900  1
  H  2363  1  0.43834150  0.36546850  0.23698200  1
  H  2368  1  0.29610750  0.24505950  0.08583900  1
  H  2370  1  0.35340750  0.22903150  0.15232900  1
  H  2379  1  0.13523850  0.79271100  0.51085850  1
  H  2383  1  0.07868450  0.80376850  0.43881600  1
  H  2388  1  0.22099300  0.79505250  0.46079150  1
  H  2390  1  0.16367400  0.80411250  0.38737350  1
  H  2399  1  0.22303300  0.00718900  0.88407300  1
  H  2403  1  0.13957450  0.93515150  0.86857600  1
  H  2408  1  0.17095900  0.95714850  0.74843750  1
  H  2410  1  0.08810200  0.88367400  0.73228300  1
  H  2419  1  0.29408650  0.66624000  0.29615950  1
  H  2423  1  0.37735800  0.73412500  0.30724500  1
  H  2428  1  0.34615100  0.58274500  0.29817000  1
  H  2430  1  0.42878700  0.64933750  0.30718150  1
  H  2599  1  0.55884950  0.12952450  0.19151300  1
  H  2603  1  0.51610850  0.12907055  0.23695405  1
  H  2608  1  0.44772850  0.12872500  0.08135450  1
  H  2610  1  0.40358000  0.12957605  0.12508305  1
  H  2619  1  0.95785750  0.63771350  0.08249400  1
  H  2623  1  0.00073600  0.72591455  0.12483755  1
  H  2628  1  0.06912750  0.63871700  0.19270350  1
  H  2630  1  0.11344750  0.72662705  0.23774355  1
  H  2639  1  0.94936350  0.57890950  0.63237100  1
  H  2643  1  0.90435400  0.62177300  0.63269300  1
  H  2648  1  0.05991250  0.68963000  0.63247850  1
  H  2650  1  0.01790050  0.73517500  0.63408850  1
  H  2659  1  0.56741100  0.68806450  0.14115850  1
  H  2663  1  0.61247000  0.73344050  0.22909450  1
  H  2668  1  0.45692550  0.57761100  0.14138050  1
  H  2670  1  0.49893900  0.62130800  0.22897500  1
  H  2679  1  0.56862650  0.47269400  0.52726450  1
  H  2683  1  0.61318650  0.47232000  0.48383250  1
  H  2688  1  0.45819700  0.47283000  0.41735800  1
  H  2690  1  0.50133200  0.47374750  0.37220050  1
  H  2699  1  0.94825450  0.96371650  0.41598400  1
  H  2703  1  0.90358300  0.87571550  0.37097350  1
  H  2708  1  0.05883300  0.96427800  0.52644100  1
  H  2710  1  0.01561400  0.87598650  0.48413150  1
  H  2719  1  0.55929750  0.02417505  0.46696755  1
  H  2723  1  0.51652400  0.98019405  0.37924505  1
  H  2728  1  0.44990350  0.91378755  0.46833305  1
  H  2730  1  0.40415650  0.86809105  0.38032155  1
  H  2739  1  0.95764400  0.91268455  0.97666755  1
  H  2743  1  0.00047150  0.86780705  0.97561455  1
  H  2748  1  0.06705850  0.02343355  0.97568605  1
  H  2750  1  0.11281400  0.98122105  0.97581505  1
  N  819  1  0.61643050  0.47154950  0.60796300  1
  N  828  1  0.65393000  0.53177250  0.64499350  1
  N  830  1  0.69195100  0.50247250  0.69103650  1
  N  831  1  0.67490250  0.47528550  0.67442400  1
  N  835  1  0.58256000  0.39536650  0.58538350  1
  N  836  1  0.70860050  0.59440550  0.71219500  1
  N  839  1  0.90033450  0.99657750  0.36698500  1
  N  848  1  0.86282900  0.99610300  0.38969200  1
  N  850  1  0.82481700  0.00406500  0.32230900  1
  N  851  1  0.84187500  0.00451350  0.31218350  1
  N  855  1  0.93426150  0.00789850  0.32472700  1
  N  856  1  0.80811950  0.00856450  0.39759300  1
  N  859  1  0.87549000  0.86367000  0.97499800  1
  N  868  1  0.89866850  0.88627600  0.03518950  1
  N  870  1  0.82311650  0.81881850  0.00584800  1
  N  871  1  0.81254700  0.80874300  0.97867900  1
  N  875  1  0.82185350  0.82147200  0.89888450  1
  N  876  1  0.89403800  0.89403550  0.09780950  1
  N  879  1  0.64136800  0.10457350  0.50007250  1
  N  888  1  0.61821100  0.14156800  0.49953700  1
  N  890  1  0.69359600  0.18771600  0.50734500  1
  N  891  1  0.70415900  0.17112750  0.50782450  1
  N  895  1  0.69489700  0.08207550  0.51132150  1
  N  896  1  0.62278500  0.20877950  0.51176850  1
  N  899  1  0.40006500  0.52923200  0.39924400  1
  N  908  1  0.36247650  0.46904300  0.36217950  1
  N  910  1  0.32461050  0.49846250  0.31617500  1
  N  911  1  0.34171450  0.52564950  0.33280800  1
  N  915  1  0.43422700  0.60544700  0.42181200  1
  N  916  1  0.30793350  0.40654800  0.29491050  1
  N  919  1  0.11698150  0.00435300  0.64089750  1
  N  928  1  0.15456950  0.00487900  0.61830750  1
  N  930  1  0.19245050  0.99683000  0.68566950  1
  N  931  1  0.17533800  0.99634750  0.69574150  1
  N  935  1  0.08277250  0.99273950  0.68290500  1
  N  936  1  0.20914800  0.99221600  0.61041600  1
  N  939  1  0.14129550  0.13718450  0.03243000  1
  N  948  1  0.11831350  0.11459200  0.97230850  1
  N  950  1  0.19398600  0.18198150  0.00180550  1
  N  951  1  0.20447900  0.19204850  0.02895450  1
  N  955  1  0.19471450  0.17934450  0.10855200  1
  N  956  1  0.12316700  0.10682950  0.90981550  1
  N  959  1  0.37566300  0.89629000  0.50758600  1
  N  968  1  0.39861700  0.85916200  0.50792400  1
  N  970  1  0.32312400  0.81306100  0.49995500  1
  N  971  1  0.31264300  0.82970750  0.49954850  1
  N  975  1  0.32236400  0.91902100  0.49654000  1
  N  976  1  0.39381650  0.79185050  0.49547800  1
  N  1139  1  0.49332250  0.32786850  0.39533400  1
  N  1148  1  0.44387450  0.32817200  0.34614350  1
  N  1150  1  0.49440250  0.32858650  0.32267300  1
  N  1151  1  0.51661100  0.32868000  0.34470700  1
  N  1155  1  0.56568300  0.32916700  0.43863100  1
  N  1156  1  0.40011200  0.32784900  0.27447700  1
  N  1159  1  0.02353450  0.90708750  0.34637700  1
  N  1168  1  0.07306350  0.90736950  0.39607300  1
  N  1170  1  0.02238400  0.83334300  0.34593600  1
  N  1171  1  0.00014600  0.83316050  0.32384350  1
  N  1175  1  0.95106800  0.87800750  0.27534350  1
  N  1176  1  0.11686250  0.87948050  0.43943100  1
  N  1179  1  0.94490850  0.84333900  0.83156150  1
  N  1188  1  0.99492950  0.89325750  0.83228600  1
  N  1190  1  0.01793300  0.84262050  0.83193150  1
  N  1191  1  0.99574700  0.82042250  0.83183250  1
  N  1195  1  0.90206600  0.77192700  0.83223000  1
  N  1196  1  0.06658700  0.93673600  0.83217900  1
  N  1199  1  0.57190750  0.89174700  0.41009850  1
  N  1208  1  0.52189450  0.84246150  0.41000800  1
  N  1210  1  0.49887550  0.81904550  0.33632500  1
  N  1211  1  0.52104500  0.84113600  0.33630200  1
  N  1215  1  0.61475500  0.93522850  0.38150850  1
  N  1216  1  0.45026400  0.77067600  0.38184200  1
  N  1219  1  0.57297500  0.67239700  0.66131400  1
  N  1228  1  0.52383850  0.67313100  0.61223950  1
  N  1230  1  0.50012300  0.67180250  0.66258350  1
  N  1231  1  0.52218950  0.67170350  0.68456600  1
  N  1235  1  0.61630600  0.67217050  0.73279250  1
  N  1236  1  0.45172000  0.67221600  0.56900600  1
  N  1239  1  0.94386250  0.09342250  0.61124800  1
  N  1248  1  0.99308200  0.09350700  0.66106100  1
  N  1250  1  0.01684750  0.16756100  0.68353650  1
  N  1251  1  0.99474900  0.16746750  0.66139350  1
  N  1255  1  0.90049650  0.12155500  0.56776650  1
  N  1256  1  0.06530150  0.12240750  0.73223700  1
  N  1259  1  0.49404200  0.15766400  0.59711700  1
  N  1268  1  0.44456100  0.10837450  0.59756250  1
  N  1270  1  0.49588700  0.15924550  0.67129050  1
  N  1271  1  0.51782950  0.18132750  0.67103400  1
  N  1275  1  0.56535900  0.22951800  0.62475000  1
  N  1276  1  0.40244750  0.06506200  0.62674850  1
  N  1279  1  0.02294200  0.10814100  0.17552700  1
  N  1288  1  0.07241200  0.15805450  0.17568850  1
  N  1290  1  0.02107200  0.18041300  0.17515800  1
  N  1291  1  0.99912200  0.15821200  0.17529000  1
  N  1295  1  0.95161950  0.06444900  0.17604750  1
  N  1296  1  0.11450400  0.22931300  0.17442100  1
  N  2275  1  0.61643050  0.27227450  0.40868800  1
  N  2284  1  0.65393000  0.33249750  0.44571850  1
  N  2286  1  0.69195100  0.30319750  0.49176150  1
  N  2287  1  0.67490250  0.27601050  0.47514900  1
  N  2291  1  0.58256000  0.19609155  0.38610855  1
  N  2292  1  0.70860050  0.39513050  0.51292000  1
  N  2295  1  0.90033450  0.79730250  0.16771000  1
  N  2304  1  0.86282900  0.79682800  0.19041700  1
  N  2306  1  0.82481700  0.80479000  0.12303400  1
  N  2307  1  0.84187500  0.80523850  0.11290850  1
  N  2311  1  0.93426150  0.80862350  0.12545200  1
  N  2312  1  0.80811950  0.80928950  0.19831800  1
  N  2315  1  0.87549000  0.66439500  0.77572300  1
  N  2324  1  0.89866850  0.68700100  0.83591450  1
  N  2326  1  0.82311650  0.61954350  0.80657300  1
  N  2327  1  0.81254700  0.60946800  0.77940400  1
  N  2331  1  0.82185350  0.62219700  0.69960950  1
  N  2332  1  0.89403800  0.69476050  0.89853450  1
  N  2335  1  0.64136800  0.90529850  0.30079750  1
  N  2344  1  0.61821100  0.94229300  0.30026200  1
  N  2346  1  0.69359600  0.98844100  0.30807000  1
  N  2347  1  0.70415900  0.97185250  0.30854950  1
  N  2351  1  0.69489700  0.88280050  0.31204650  1
  N  2352  1  0.62278500  0.00950450  0.31249350  1
  N  2355  1  0.40006500  0.32995700  0.19996900  1
  N  2364  1  0.36247650  0.26976800  0.16290450  1
  N  2366  1  0.32461050  0.29918750  0.11690000  1
  N  2367  1  0.34171450  0.32637450  0.13353300  1
  N  2371  1  0.43422700  0.40617200  0.22253700  1
  N  2372  1  0.30793350  0.20727305  0.09563555  1
  N  2375  1  0.11698150  0.80507800  0.44162250  1
  N  2384  1  0.15456950  0.80560400  0.41903250  1
  N  2386  1  0.19245050  0.79755500  0.48639450  1
  N  2387  1  0.17533800  0.79707250  0.49646650  1
  N  2391  1  0.08277250  0.79346450  0.48363000  1
  N  2392  1  0.20914800  0.79294104  0.41114104  1
  N  2395  1  0.14129550  0.93790950  0.83315500  1
  N  2404  1  0.11831350  0.91531700  0.77303350  1
  N  2406  1  0.19398600  0.98270650  0.80253050  1
  N  2407  1  0.20447900  0.99277350  0.82967950  1
  N  2411  1  0.19471450  0.98006950  0.90927700  1
  N  2412  1  0.12316700  0.90755450  0.71054050  1
  N  2415  1  0.37566300  0.69701500  0.30831100  1
  N  2424  1  0.39861700  0.65988700  0.30864900  1
  N  2426  1  0.32312400  0.61378600  0.30068000  1
  N  2427  1  0.31264300  0.63043250  0.30027350  1
  N  2431  1  0.32236400  0.71974600  0.29726500  1
  N  2432  1  0.39381650  0.59257550  0.29620300  1
  N  2595  1  0.49332250  0.12859355  0.19605905  1
  N  2604  1  0.44387450  0.12889705  0.14686855  1
  N  2606  1  0.49440250  0.12931150  0.12339800  1
  N  2607  1  0.51661100  0.12940500  0.14543200  1
  N  2611  1  0.56568300  0.12989205  0.23935605  1
  N  2612  1  0.40011200  0.12857405  0.07520205  1
  N  2615  1  0.02353450  0.70781255  0.14710205  1
  N  2624  1  0.07306350  0.70809455  0.19679805  1
  N  2626  1  0.02238400  0.63406800  0.14666100  1
  N  2627  1  0.00014600  0.63388550  0.12456850  1
  N  2631  1  0.95106800  0.67873255  0.07606855  1
  N  2632  1  0.11686250  0.68020555  0.24015605  1
  N  2635  1  0.94490850  0.64406400  0.63228650  1
  N  2644  1  0.99492950  0.69398250  0.63301100  1
  N  2646  1  0.01793300  0.64334550  0.63265650  1
  N  2647  1  0.99574700  0.62114750  0.63255750  1
  N  2651  1  0.90206600  0.57265200  0.63295500  1
  N  2652  1  0.06658700  0.73746100  0.63290400  1
  N  2655  1  0.57190750  0.69247200  0.21082350  1
  N  2664  1  0.52189450  0.64318650  0.21073300  1
  N  2666  1  0.49887550  0.61977050  0.13705000  1
  N  2667  1  0.52104500  0.64186100  0.13702700  1
  N  2671  1  0.61475500  0.73595350  0.18223350  1
  N  2672  1  0.45026400  0.57140100  0.18256700  1
  N  2675  1  0.57297500  0.47312200  0.46203900  1
  N  2684  1  0.52383850  0.47385600  0.41296450  1
  N  2686  1  0.50012300  0.47252750  0.46330850  1
  N  2687  1  0.52218950  0.47242850  0.48529100  1
  N  2691  1  0.61630600  0.47289550  0.53351750  1
  N  2692  1  0.45172000  0.47294100  0.36973100  1
  N  2695  1  0.94386250  0.89414750  0.41197300  1
  N  2704  1  0.99308200  0.89423200  0.46178600  1
  N  2706  1  0.01684750  0.96828600  0.48426150  1
  N  2707  1  0.99474900  0.96819250  0.46211850  1
  N  2711  1  0.90049650  0.92228000  0.36849150  1
  N  2712  1  0.06530150  0.92313250  0.53296200  1
  N  2715  1  0.49404200  0.95838905  0.39784205  1
  N  2724  1  0.44456100  0.90909955  0.39828755  1
  N  2726  1  0.49588700  0.95997055  0.47201555  1
  N  2727  1  0.51782950  0.98205255  0.47175905  1
  N  2731  1  0.56535900  0.03024305  0.42547505  1
  N  2732  1  0.40244750  0.86578705  0.42747355  1
  N  2735  1  0.02294200  0.90886605  0.97625205  1
  N  2744  1  0.07241200  0.95877955  0.97641355  1
  N  2746  1  0.02107200  0.98113805  0.97588305  1
  N  2747  1  0.99912200  0.95893705  0.97601505  1
  N  2751  1  0.95161950  0.86517405  0.97677255  1
  N  2752  1  0.11450400  0.03003805  0.97514605  1
