# generated using pymatgen
data_H32C39N8
_symmetry_space_group_name_H-M   'P 1'
_cell_length_a   42.71350000
_cell_length_b   46.18970000
_cell_length_c   46.17480000
_cell_angle_alpha   89.98150000
_cell_angle_beta   90.00000000
_cell_angle_gamma   89.96300000
_symmetry_Int_Tables_number   1
_chemical_formula_structural   H32C39N8
_chemical_formula_sum   'H512 C624 N128'
_cell_volume   91099.33587139
_cell_formula_units_Z   16
loop_
 _symmetry_equiv_pos_site_id
 _symmetry_equiv_pos_as_xyz
  1  'x, y, z'
loop_
 _atom_site_type_symbol
 _atom_site_label
 _atom_site_symmetry_multiplicity
 _atom_site_fract_x
 _atom_site_fract_y
 _atom_site_fract_z
 _atom_site_occupancy
  H  26  1  0.77574800  0.92527300  0.83537900  1
  H  27  1  0.78473900  0.87452300  0.84097500  1
  H  28  1  0.87326200  0.93939300  0.83332500  1
  H  29  1  0.88217000  0.88944200  0.83908500  1
  H  30  1  0.87605700  0.86384300  0.88796800  1
  H  31  1  0.86915500  0.86284500  0.93855900  1
  H  32  1  0.78208200  0.82109100  0.92761300  1
  H  33  1  0.78825100  0.82364900  0.87667700  1
  H  34  1  0.82507200  0.78598800  0.85096700  1
  H  35  1  0.79671300  0.75354700  0.82094100  1
  H  36  1  0.78354000  0.82024500  0.75971700  1
  H  37  1  0.81131600  0.85263900  0.78985800  1
  H  38  1  0.87273800  0.85245900  0.79306100  1
  H  39  1  0.88293300  0.80704700  0.87182400  1
  H  40  1  0.93563000  0.79732300  0.86044200  1
  H  41  1  0.92517400  0.84079800  0.78063500  1
  H  67  1  0.77587800  0.07320200  0.16293500  1
  H  68  1  0.78495700  0.12392000  0.15732900  1
  H  69  1  0.87336800  0.05881600  0.16494100  1
  H  70  1  0.88235800  0.10874800  0.15917700  1
  H  71  1  0.87634700  0.13442800  0.11032400  1
  H  72  1  0.86945600  0.13542400  0.05972900  1
  H  73  1  0.78234900  0.17723200  0.07065800  1
  H  74  1  0.78851200  0.17467600  0.12159400  1
  H  75  1  0.82530300  0.21232400  0.14727800  1
  H  76  1  0.79697800  0.24482100  0.17730300  1
  H  77  1  0.78393100  0.17819700  0.23861100  1
  H  78  1  0.81167000  0.14575300  0.20846200  1
  H  79  1  0.87305200  0.14571000  0.20517900  1
  H  80  1  0.88315100  0.19125100  0.12648500  1
  H  81  1  0.93582000  0.20100300  0.13788700  1
  H  82  1  0.92545800  0.15740000  0.21763000  1
  H  108  1  0.22259200  0.92516600  0.16284400  1
  H  109  1  0.21354100  0.87445200  0.15718600  1
  H  110  1  0.12509400  0.93950600  0.16481700  1
  H  111  1  0.11613200  0.88958200  0.15899800  1
  H  112  1  0.12221200  0.86397100  0.11014000  1
  H  113  1  0.12911100  0.86296800  0.05954800  1
  H  114  1  0.21618500  0.82110700  0.07051800  1
  H  115  1  0.21001800  0.82367400  0.12145100  1
  H  116  1  0.17321000  0.78602500  0.14713600  1
  H  117  1  0.20153800  0.75352100  0.17717300  1
  H  118  1  0.21456900  0.82012500  0.23846500  1
  H  119  1  0.18682600  0.85257500  0.20830600  1
  H  120  1  0.12545000  0.85255700  0.20500700  1
  H  121  1  0.11538000  0.80712100  0.12628400  1
  H  122  1  0.06268700  0.79741200  0.13762700  1
  H  123  1  0.07300700  0.84090300  0.21741000  1
  H  149  1  0.22270700  0.07303200  0.83547100  1
  H  150  1  0.21374000  0.12377600  0.84108800  1
  H  151  1  0.12518800  0.05895100  0.83344500  1
  H  152  1  0.11631000  0.10889600  0.83922500  1
  H  153  1  0.12242700  0.13444100  0.88808700  1
  H  154  1  0.12931000  0.13541500  0.93867800  1
  H  155  1  0.21638100  0.17718700  0.92774900  1
  H  156  1  0.21023100  0.17465100  0.87681400  1
  H  157  1  0.17344600  0.21234400  0.85110500  1
  H  158  1  0.20181400  0.24480100  0.82107500  1
  H  159  1  0.21493700  0.17814200  0.75984400  1
  H  160  1  0.18715200  0.14574000  0.78998500  1
  H  161  1  0.12576600  0.14593100  0.79318400  1
  H  162  1  0.11555800  0.19124100  0.87197100  1
  H  163  1  0.06285600  0.20095500  0.86060500  1
  H  164  1  0.07331200  0.15758600  0.78076700  1
  H  190  1  0.21607200  0.82278400  0.92816400  1
  H  191  1  0.21240800  0.82564000  0.87681500  1
  H  192  1  0.12712800  0.86189900  0.93551900  1
  H  193  1  0.12327700  0.86424300  0.88468800  1
  H  194  1  0.11907900  0.89097400  0.83415800  1
  H  195  1  0.12728300  0.94099100  0.82864500  1
  H  196  1  0.22429200  0.92893200  0.84086500  1
  H  197  1  0.21615600  0.87804200  0.84486900  1
  H  198  1  0.19579300  0.85791800  0.79108500  1
  H  199  1  0.22602000  0.82736200  0.76130200  1
  H  200  1  0.20654100  0.75690600  0.81656800  1
  H  201  1  0.17671700  0.78784900  0.84689700  1
  H  202  1  0.12075800  0.80561300  0.86702600  1
  H  203  1  0.13028200  0.85500300  0.79072800  1
  H  204  1  0.07763600  0.84414900  0.77819100  1
  H  205  1  0.06851000  0.79485800  0.85471600  1
  H  231  1  0.21627100  0.17548100  0.07008700  1
  H  232  1  0.21261900  0.17263800  0.12143700  1
  H  233  1  0.12733000  0.13646900  0.06275400  1
  H  234  1  0.12348800  0.13414400  0.11358800  1
  H  235  1  0.11923600  0.10748000  0.16411900  1
  H  236  1  0.12736200  0.05745100  0.16963600  1
  H  237  1  0.22438600  0.06926400  0.15739600  1
  H  238  1  0.21632700  0.12017600  0.15338900  1
  H  239  1  0.19608300  0.14038100  0.20714300  1
  H  240  1  0.22632600  0.17089600  0.23690900  1
  H  241  1  0.20675900  0.24139300  0.18168800  1
  H  242  1  0.17692100  0.21048400  0.15137400  1
  H  243  1  0.12091500  0.19273800  0.13122800  1
  H  244  1  0.13057000  0.14344300  0.20758200  1
  H  245  1  0.07791200  0.15430500  0.22013300  1
  H  246  1  0.06865500  0.20349700  0.14355600  1
  H  272  1  0.78245000  0.17554300  0.92831200  1
  H  273  1  0.78610200  0.17267200  0.87696600  1
  H  274  1  0.87137500  0.13638800  0.93568800  1
  H  275  1  0.87521400  0.13403300  0.88485400  1
  H  276  1  0.87942300  0.10733400  0.83430500  1
  H  277  1  0.87120300  0.05732700  0.82873800  1
  H  278  1  0.77419900  0.06938800  0.84098600  1
  H  279  1  0.78234900  0.12026900  0.84503900  1
  H  280  1  0.80271400  0.14041500  0.79124700  1
  H  281  1  0.77247700  0.17097700  0.76146600  1
  H  282  1  0.79195400  0.24141600  0.81671500  1
  H  283  1  0.82179100  0.21046000  0.84704400  1
  H  284  1  0.87777600  0.19264400  0.86720300  1
  H  285  1  0.86818400  0.14337000  0.79087800  1
  H  286  1  0.92085000  0.15423300  0.77831900  1
  H  287  1  0.93001700  0.20339000  0.85489400  1
  H  313  1  0.78216000  0.82282800  0.06998600  1
  H  314  1  0.78582600  0.82570700  0.12133000  1
  H  315  1  0.87107600  0.86188400  0.06258000  1
  H  316  1  0.87493000  0.86424600  0.11341200  1
  H  317  1  0.87920900  0.89088300  0.16396400  1
  H  318  1  0.87106900  0.94090200  0.16954800  1
  H  319  1  0.77404400  0.92908900  0.15732700  1
  H  320  1  0.78211400  0.87818400  0.15325200  1
  H  321  1  0.80238800  0.85795900  0.20699100  1
  H  322  1  0.77213500  0.82743500  0.23676200  1
  H  323  1  0.79169800  0.75695100  0.18156600  1
  H  324  1  0.82155300  0.78786400  0.15124600  1
  H  325  1  0.87755600  0.80565900  0.13106600  1
  H  326  1  0.86787000  0.85485500  0.20743600  1
  H  327  1  0.92054500  0.84398200  0.22000300  1
  H  328  1  0.92980300  0.79489300  0.14338000  1
  H  354  1  0.27636500  0.42513000  0.33865800  1
  H  355  1  0.28540900  0.37439500  0.34402800  1
  H  356  1  0.37381600  0.43906700  0.33399300  1
  H  357  1  0.38279900  0.38906300  0.33956800  1
  H  358  1  0.37667700  0.36291200  0.38884400  1
  H  359  1  0.36997700  0.36158400  0.43944800  1
  H  360  1  0.28324300  0.31922000  0.42856600  1
  H  361  1  0.28928100  0.32192000  0.37758000  1
  H  362  1  0.32545000  0.28527800  0.34954200  1
  H  363  1  0.29553900  0.25450700  0.31896400  1
  H  364  1  0.28237900  0.32381000  0.26076000  1
  H  365  1  0.31108200  0.35446200  0.29151800  1
  H  366  1  0.37275100  0.35243100  0.29377600  1
  H  367  1  0.38358800  0.30618500  0.37197000  1
  H  368  1  0.43618500  0.29663200  0.36016800  1
  H  369  1  0.42510400  0.34092800  0.28088700  1
  H  395  1  0.27623600  0.57308400  0.65956700  1
  H  396  1  0.28522800  0.62381500  0.65421800  1
  H  397  1  0.37370100  0.55911300  0.66421400  1
  H  398  1  0.38263100  0.60911700  0.65865400  1
  H  399  1  0.37648000  0.63527100  0.60938900  1
  H  400  1  0.36976600  0.63657600  0.55878800  1
  H  401  1  0.28297100  0.67894500  0.56967200  1
  H  402  1  0.28902300  0.67625300  0.62065500  1
  H  403  1  0.32514500  0.71291200  0.64867100  1
  H  404  1  0.29524100  0.74370600  0.67925800  1
  H  405  1  0.28222000  0.67443600  0.73750900  1
  H  406  1  0.31092700  0.64376700  0.70673800  1
  H  407  1  0.37260800  0.64572200  0.70441600  1
  H  408  1  0.38328200  0.69202700  0.62624400  1
  H  409  1  0.43586700  0.70158800  0.63800900  1
  H  410  1  0.42495700  0.65723000  0.71726400  1
  H  436  1  0.72217000  0.42526500  0.65953200  1
  H  437  1  0.71320300  0.37452700  0.65424000  1
  H  438  1  0.62469900  0.43919000  0.66421800  1
  H  439  1  0.61579400  0.38918200  0.65871200  1
  H  440  1  0.62195100  0.36302300  0.60945500  1
  H  441  1  0.62866300  0.36169800  0.55885500  1
  H  442  1  0.71546000  0.31933800  0.56977900  1
  H  443  1  0.70941300  0.32205000  0.62075600  1
  H  444  1  0.67326700  0.28539700  0.64882700  1
  H  445  1  0.70319500  0.25461700  0.67942500  1
  H  446  1  0.71631200  0.32392300  0.73756800  1
  H  447  1  0.68758800  0.35458100  0.70678200  1
  H  448  1  0.62593300  0.35254600  0.70454500  1
  H  449  1  0.61510100  0.30631900  0.62638100  1
  H  450  1  0.56253900  0.29673600  0.63823300  1
  H  451  1  0.57361000  0.34099900  0.71749600  1
  H  477  1  0.72214900  0.57315900  0.33863400  1
  H  478  1  0.71309500  0.62389200  0.34396400  1
  H  479  1  0.62469900  0.55920600  0.33401700  1
  H  480  1  0.61571200  0.60920900  0.33956000  1
  H  481  1  0.62183400  0.63535600  0.38880100  1
  H  482  1  0.62854400  0.63670600  0.43940200  1
  H  483  1  0.71526100  0.67909400  0.42846500  1
  H  484  1  0.70921600  0.67637000  0.37748700  1
  H  485  1  0.67303800  0.71302300  0.34944700  1
  H  486  1  0.70293700  0.74380200  0.31885100  1
  H  487  1  0.71607800  0.67451500  0.26067300  1
  H  488  1  0.68739200  0.64385600  0.29145300  1
  H  489  1  0.62576000  0.64586100  0.29371800  1
  H  490  1  0.61489900  0.69206600  0.37189900  1
  H  491  1  0.56230000  0.70160800  0.36009500  1
  H  492  1  0.57339000  0.65736000  0.28081700  1
  H  518  1  0.71668200  0.32502300  0.42759600  1
  H  519  1  0.71325900  0.32825900  0.37629000  1
  H  520  1  0.62600100  0.36061100  0.43472400  1
  H  521  1  0.62239300  0.36322400  0.38389300  1
  H  522  1  0.61924700  0.39141200  0.33495000  1
  H  523  1  0.62737300  0.44154400  0.32984700  1
  H  524  1  0.72469800  0.42919500  0.33928000  1
  H  525  1  0.71661900  0.37822900  0.34275900  1
  H  526  1  0.69359300  0.35737700  0.28906800  1
  H  527  1  0.72494400  0.32675600  0.25995200  1
  H  528  1  0.70980600  0.25803600  0.31843200  1
  H  529  1  0.67904500  0.28890700  0.34793600  1
  H  530  1  0.62183100  0.30484500  0.36530200  1
  H  531  1  0.62994400  0.35655800  0.29042600  1
  H  532  1  0.57732300  0.34560800  0.27805300  1
  H  533  1  0.56951800  0.29400400  0.35316900  1
  H  559  1  0.71650200  0.67339100  0.57065400  1
  H  560  1  0.71307900  0.67016500  0.62196100  1
  H  561  1  0.62585400  0.63783900  0.56352800  1
  H  562  1  0.62224600  0.63523700  0.61435900  1
  H  563  1  0.61910400  0.60707300  0.66328900  1
  H  564  1  0.62724400  0.55693300  0.66836700  1
  H  565  1  0.72456700  0.56919200  0.65894400  1
  H  566  1  0.71647400  0.62016900  0.65549500  1
  H  567  1  0.69346900  0.64105500  0.70917100  1
  H  568  1  0.72478000  0.67167300  0.73829200  1
  H  569  1  0.70952700  0.74040300  0.67982700  1
  H  570  1  0.67880900  0.70953600  0.65032300  1
  H  571  1  0.62159500  0.69359300  0.63295500  1
  H  572  1  0.62981700  0.64189900  0.70784100  1
  H  573  1  0.57715500  0.65278500  0.72018900  1
  H  574  1  0.56924200  0.70436900  0.64506400  1
  H  600  1  0.28178200  0.67324500  0.42748500  1
  H  601  1  0.28521900  0.67000900  0.37618600  1
  H  602  1  0.37248400  0.63770500  0.43465900  1
  H  603  1  0.37610600  0.63509600  0.38382900  1
  H  604  1  0.37927600  0.60691100  0.33492400  1
  H  605  1  0.37118000  0.55677400  0.32984000  1
  H  606  1  0.27383800  0.56908000  0.33921300  1
  H  607  1  0.28189200  0.62004700  0.34267500  1
  H  608  1  0.30490600  0.64093000  0.28899200  1
  H  609  1  0.27355300  0.67155700  0.25986000  1
  H  610  1  0.28868400  0.74026500  0.31831800  1
  H  611  1  0.31944500  0.70938700  0.34783300  1
  H  612  1  0.37667900  0.69343100  0.36521500  1
  H  613  1  0.36852700  0.64178000  0.29034500  1
  H  614  1  0.42117800  0.65271400  0.27796400  1
  H  615  1  0.42899500  0.70424500  0.35309900  1
  H  641  1  0.28203700  0.32489000  0.57075400  1
  H  642  1  0.28546700  0.32814700  0.62205600  1
  H  643  1  0.37266700  0.36048100  0.56357200  1
  H  644  1  0.37627900  0.36311500  0.61440000  1
  H  645  1  0.37939100  0.39130800  0.66331600  1
  H  646  1  0.37120300  0.44143900  0.66840200  1
  H  647  1  0.27389000  0.42911300  0.65898300  1
  H  648  1  0.28202800  0.37814500  0.65552300  1
  H  649  1  0.30506300  0.35730000  0.70920900  1
  H  650  1  0.27373300  0.32669400  0.73834300  1
  H  651  1  0.28901400  0.25793400  0.67995900  1
  H  652  1  0.31976100  0.28879100  0.65043500  1
  H  653  1  0.37700000  0.30479200  0.63306100  1
  H  654  1  0.36865900  0.35644100  0.70791800  1
  H  655  1  0.42131600  0.34553500  0.72035500  1
  H  656  1  0.42932300  0.29400300  0.64522500  1
  H  663  1  0.74273900  0.74169500  0.79997000  1
  H  667  1  0.80147500  0.78052200  0.68893600  1
  H  669  1  0.83381300  0.73120600  0.65662000  1
  H  670  1  0.84440800  0.76739200  0.64799100  1
  H  671  1  0.82987900  0.74380000  0.62081900  1
  H  673  1  0.78592400  0.77754800  0.60818700  1
  H  674  1  0.79744700  0.80331600  0.63460600  1
  H  675  1  0.75917200  0.78822200  0.63515000  1
  H  682  1  0.74298300  0.25668000  0.19830400  1
  H  686  1  0.80187600  0.21800200  0.30934500  1
  H  688  1  0.83406700  0.26736400  0.34165400  1
  H  689  1  0.84476400  0.23119400  0.35029200  1
  H  690  1  0.83016400  0.25477500  0.37745700  1
  H  692  1  0.78630300  0.22097300  0.39009100  1
  H  693  1  0.79790400  0.19521400  0.36367800  1
  H  694  1  0.75958700  0.21025900  0.36312600  1
  H  701  1  0.25551400  0.74164000  0.19817800  1
  H  705  1  0.19663100  0.78030300  0.30920400  1
  H  707  1  0.16441600  0.73093200  0.34150400  1
  H  708  1  0.15372900  0.76710000  0.35014000  1
  H  709  1  0.16831200  0.74349800  0.37731000  1
  H  711  1  0.21217600  0.77728000  0.38995700  1
  H  712  1  0.20059500  0.80305900  0.36354100  1
  H  713  1  0.23890800  0.78800300  0.36300000  1
  H  720  1  0.25577900  0.25664600  0.80008200  1
  H  724  1  0.19702900  0.21788300  0.68905900  1
  H  726  1  0.16474200  0.26721400  0.65669600  1
  H  727  1  0.15412400  0.23103500  0.64808800  1
  H  728  1  0.16868200  0.25461600  0.62090600  1
  H  730  1  0.21261900  0.22083900  0.60831200  1
  H  731  1  0.20106500  0.19508100  0.63474900  1
  H  732  1  0.23935000  0.21015000  0.63529600  1
  H  739  1  0.27339600  0.79811700  0.75304500  1
  H  743  1  0.19590300  0.69255000  0.77408800  1
  H  745  1  0.15637200  0.67293900  0.72277200  1
  H  746  1  0.14669400  0.65973700  0.75780000  1
  H  747  1  0.15564200  0.63538200  0.72926400  1
  H  749  1  0.19913600  0.61221600  0.75749300  1
  H  750  1  0.19322500  0.63516600  0.78782200  1
  H  751  1  0.23026000  0.63361800  0.77032600  1
  H  758  1  0.27366000  0.20011400  0.24520500  1
  H  762  1  0.19612100  0.30573000  0.22413800  1
  H  764  1  0.15656900  0.32540900  0.27543900  1
  H  765  1  0.14689700  0.33860000  0.24040200  1
  H  766  1  0.15583400  0.36296300  0.26892100  1
  H  768  1  0.19933000  0.38606600  0.24068600  1
  H  769  1  0.19342800  0.36310300  0.21037200  1
  H  770  1  0.23046100  0.36462300  0.22787000  1
  H  777  1  0.72510100  0.20022100  0.75320800  1
  H  781  1  0.80256900  0.30579000  0.77422000  1
  H  783  1  0.84217200  0.32535000  0.72291500  1
  H  784  1  0.85181700  0.33856800  0.75793600  1
  H  785  1  0.84291700  0.36291300  0.72936300  1
  H  787  1  0.79940300  0.38611500  0.75752200  1
  H  788  1  0.80526600  0.36318000  0.78788400  1
  H  789  1  0.76825100  0.36473500  0.77035200  1
  H  796  1  0.72480800  0.79821200  0.24506600  1
  H  800  1  0.80230800  0.69257300  0.22402800  1
  H  802  1  0.84190500  0.67287200  0.27532200  1
  H  803  1  0.85153600  0.65967900  0.24028600  1
  H  804  1  0.84260600  0.63531800  0.26882700  1
  H  806  1  0.79906400  0.61224500  0.24064100  1
  H  807  1  0.80495700  0.63520400  0.21030800  1
  H  808  1  0.76794000  0.63371000  0.22783500  1
  H  815  1  0.02532900  0.85983000  0.79650800  1
  H  819  1  0.94157100  0.75607100  0.80283900  1
  H  821  1  0.91443000  0.74162500  0.86337500  1
  H  822  1  0.91156900  0.70385500  0.85939700  1
  H  823  1  0.89661200  0.72686900  0.83190000  1
  H  825  1  0.94777200  0.67796600  0.82553400  1
  H  826  1  0.97499600  0.69782000  0.80491700  1
  H  827  1  0.93466100  0.69864100  0.79549800  1
  H  834  1  0.02566200  0.13852400  0.20169500  1
  H  838  1  0.94158700  0.24218400  0.19551300  1
  H  840  1  0.91447500  0.25670300  0.13498000  1
  H  841  1  0.91149600  0.29446500  0.13901900  1
  H  842  1  0.89657500  0.27138200  0.16646200  1
  H  844  1  0.94758000  0.32034100  0.17296900  1
  H  845  1  0.97483900  0.30048900  0.19357800  1
  H  846  1  0.93449600  0.29959500  0.20295500  1
  H  853  1  0.97280500  0.85977800  0.20163100  1
  H  857  1  0.05684100  0.75618000  0.19528000  1
  H  859  1  0.08405300  0.74172700  0.13477500  1
  H  860  1  0.08701900  0.70396200  0.13880300  1
  H  861  1  0.10189700  0.72701400  0.16627600  1
  H  863  1  0.05087100  0.67805300  0.17268200  1
  H  864  1  0.02358300  0.69788600  0.19326500  1
  H  865  1  0.06390900  0.69876000  0.20269900  1
  H  872  1  0.97315800  0.13851600  0.79666800  1
  H  876  1  0.05693000  0.24226600  0.80299000  1
  H  878  1  0.08408600  0.25664700  0.86352800  1
  H  879  1  0.08696100  0.29442200  0.85955900  1
  H  880  1  0.10190400  0.27142500  0.83205500  1
  H  882  1  0.05075900  0.32035000  0.82570900  1
  H  883  1  0.02352600  0.30052600  0.80508900  1
  H  884  1  0.06386000  0.29970100  0.79566500  1
  H  891  1  0.87302700  0.82749800  0.02226600  1
  H  895  1  0.73658000  0.85038000  0.00478200  1
  H  897  1  0.72066200  0.90862100  0.97727700  1
  H  898  1  0.69059200  0.88946500  0.99571600  1
  H  899  1  0.68612000  0.89915100  0.95876200  1
  H  901  1  0.67743900  0.84761200  0.94369000  1
  H  902  1  0.68153900  0.83450000  0.97961900  1
  H  903  1  0.70608800  0.82132800  0.95146300  1
  H  910  1  0.12539800  0.17078100  0.02236800  1
  H  914  1  0.26185200  0.14794300  0.00498000  1
  H  916  1  0.27788200  0.08975600  0.97744300  1
  H  917  1  0.30790300  0.10892000  0.99592800  1
  H  918  1  0.31243000  0.09929600  0.95897000  1
  H  920  1  0.32105300  0.15086900  0.94395200  1
  H  921  1  0.31689700  0.16392000  0.97988900  1
  H  922  1  0.29236200  0.17710700  0.95172100  1
  H  929  1  0.87332700  0.17075200  0.97601800  1
  H  933  1  0.73687200  0.14807900  0.99349000  1
  H  935  1  0.72093600  0.08980500  0.02086700  1
  H  936  1  0.69087100  0.10904600  0.00247400  1
  H  937  1  0.68640100  0.09928500  0.03940700  1
  H  939  1  0.67774100  0.15080600  0.05459300  1
  H  940  1  0.68184100  0.16399000  0.01869300  1
  H  941  1  0.70639700  0.17706300  0.04687500  1
  H  948  1  0.12520400  0.82755700  0.97588800  1
  H  952  1  0.26165500  0.85031600  0.99330500  1
  H  954  1  0.27760800  0.90853800  0.02079100  1
  H  955  1  0.30766100  0.88934000  0.00234600  1
  H  956  1  0.31215200  0.89900000  0.03929800  1
  H  958  1  0.32080500  0.84743900  0.05437500  1
  H  959  1  0.31668900  0.83435300  0.01845000  1
  H  960  1  0.29214200  0.82120700  0.04661300  1
  H  967  1  0.78839200  0.02057900  0.86763800  1
  H  971  1  0.82379500  0.94317600  0.76973700  1
  H  973  1  0.88865300  0.91374500  0.77340400  1
  H  974  1  0.89614900  0.91064900  0.73606600  1
  H  975  1  0.85948900  0.89929800  0.75009100  1
  H  977  1  0.87180800  0.94593200  0.70151200  1
  H  978  1  0.84636200  0.97290300  0.71465400  1
  H  979  1  0.83344500  0.93639600  0.71270100  1
  H  986  1  0.21011400  0.02055200  0.13071400  1
  H  990  1  0.17446000  0.94301900  0.22845200  1
  H  992  1  0.10955100  0.91378900  0.22469100  1
  H  993  1  0.10201000  0.91063400  0.26201800  1
  H  994  1  0.13866100  0.89920500  0.24800900  1
  H  996  1  0.12639300  0.94576800  0.29664800  1
  H  997  1  0.15190500  0.97269300  0.28356800  1
  H  998  1  0.16474600  0.93614500  0.28547400  1
  H  1005  1  0.21012100  0.97767500  0.86757400  1
  H  1009  1  0.17466600  0.05526000  0.76983500  1
  H  1011  1  0.10982700  0.08471900  0.77350900  1
  H  1012  1  0.10234900  0.08788600  0.73617400  1
  H  1013  1  0.13901000  0.09919200  0.75022600  1
  H  1015  1  0.12668400  0.05265000  0.70158900  1
  H  1016  1  0.15210600  0.02564400  0.71471100  1
  H  1017  1  0.16504600  0.06214600  0.71280200  1
  H  1024  1  0.78833600  0.97787100  0.13067700  1
  H  1028  1  0.82400700  0.05520400  0.22855900  1
  H  1030  1  0.88893300  0.08440500  0.22479400  1
  H  1031  1  0.89650300  0.08748600  0.26211900  1
  H  1032  1  0.85984800  0.09896000  0.24814600  1
  H  1034  1  0.87212700  0.05229500  0.29671800  1
  H  1035  1  0.84658700  0.02540900  0.28362000  1
  H  1036  1  0.83376900  0.06196100  0.28558400  1
  H  1043  1  0.52518300  0.36019900  0.29650800  1
  H  1047  1  0.44198000  0.25588600  0.30249300  1
  H  1049  1  0.41574200  0.24069700  0.36319800  1
  H  1050  1  0.41320400  0.20293400  0.35895000  1
  H  1051  1  0.39764900  0.22603500  0.33180900  1
  H  1053  1  0.44920000  0.17763000  0.32445300  1
  H  1054  1  0.47596000  0.19788300  0.30370500  1
  H  1055  1  0.43549900  0.19844400  0.29473700  1
  H  1062  1  0.52509400  0.63810700  0.70174600  1
  H  1066  1  0.44163300  0.74231000  0.69575200  1
  H  1068  1  0.41525000  0.75748800  0.63508700  1
  H  1069  1  0.41263100  0.79524600  0.63934500  1
  H  1070  1  0.39718100  0.77212500  0.66650400  1
  H  1072  1  0.44863100  0.82057400  0.67379100  1
  H  1073  1  0.47547300  0.80033900  0.69449300  1
  H  1074  1  0.43503100  0.79974600  0.70352400  1
  H  1081  1  0.47345000  0.36019700  0.70186600  1
  H  1085  1  0.55692000  0.25591400  0.69589400  1
  H  1087  1  0.58313900  0.24084100  0.63515600  1
  H  1088  1  0.58577300  0.20307600  0.63936800  1
  H  1089  1  0.60129200  0.22615000  0.66651800  1
  H  1091  1  0.54986600  0.17768700  0.67386700  1
  H  1092  1  0.52307600  0.19788500  0.69465100  1
  H  1093  1  0.56354100  0.19846500  0.70359300  1
  H  1100  1  0.47331400  0.63807800  0.29645300  1
  H  1104  1  0.55653800  0.74237000  0.30240100  1
  H  1106  1  0.58276000  0.75754100  0.36310300  1
  H  1107  1  0.58532500  0.79530200  0.35883300  1
  H  1108  1  0.60087100  0.77219200  0.33171100  1
  H  1110  1  0.54936000  0.82063000  0.32430800  1
  H  1111  1  0.52259400  0.80039400  0.30356700  1
  H  1112  1  0.56305800  0.79981000  0.29461000  1
  H  1119  1  0.37371100  0.32651400  0.52337700  1
  H  1123  1  0.23757800  0.35051600  0.50527300  1
  H  1125  1  0.22237200  0.40850700  0.47697200  1
  H  1126  1  0.19203300  0.38987400  0.49556600  1
  H  1127  1  0.18778800  0.39912300  0.45847800  1
  H  1129  1  0.17859000  0.34747700  0.44405400  1
  H  1130  1  0.18243600  0.33479000  0.48016000  1
  H  1131  1  0.20692700  0.32103000  0.45224200  1
  H  1138  1  0.62481200  0.67177400  0.52330000  1
  H  1142  1  0.76093700  0.64770900  0.50518800  1
  H  1144  1  0.77611000  0.58976900  0.47679900  1
  H  1145  1  0.80646100  0.60835100  0.49541800  1
  H  1146  1  0.81069600  0.59917700  0.45831600  1
  H  1148  1  0.81992000  0.65085200  0.44396700  1
  H  1149  1  0.81608500  0.66346300  0.48009300  1
  H  1150  1  0.79159800  0.67729300  0.45219700  1
  H  1157  1  0.37347000  0.67163200  0.47486700  1
  H  1161  1  0.23735300  0.64769900  0.49296200  1
  H  1163  1  0.22213800  0.58974100  0.52130600  1
  H  1164  1  0.19180100  0.60840600  0.50270100  1
  H  1165  1  0.18755900  0.59918800  0.53979600  1
  H  1167  1  0.17837400  0.65085800  0.55418500  1
  H  1168  1  0.18221900  0.66351300  0.51807000  1
  H  1169  1  0.20671700  0.67725900  0.54597500  1
  H  1176  1  0.62498000  0.32667300  0.47494800  1
  H  1180  1  0.76110800  0.35050200  0.49306500  1
  H  1182  1  0.77634400  0.40849700  0.52127100  1
  H  1183  1  0.80667900  0.38978400  0.50272600  1
  H  1184  1  0.81090800  0.39907000  0.53980000  1
  H  1186  1  0.82005800  0.34742100  0.55432000  1
  H  1187  1  0.81622300  0.33469900  0.51823500  1
  H  1188  1  0.79170400  0.32101800  0.54616600  1
  H  1195  1  0.28949400  0.52087800  0.36882700  1
  H  1199  1  0.32190300  0.44178500  0.27180000  1
  H  1201  1  0.38686600  0.41229100  0.27403800  1
  H  1202  1  0.39280800  0.40824100  0.23655800  1
  H  1203  1  0.35672300  0.39735600  0.25214100  1
  H  1205  1  0.36720500  0.44274900  0.20202100  1
  H  1206  1  0.34233000  0.47008200  0.21535300  1
  H  1207  1  0.32930600  0.43356200  0.21474500  1
  H  1214  1  0.70895800  0.52104700  0.62935700  1
  H  1218  1  0.67673000  0.44192100  0.72639000  1
  H  1220  1  0.61183700  0.41236200  0.72421700  1
  H  1221  1  0.60594700  0.40829600  0.76170600  1
  H  1222  1  0.64204300  0.39745100  0.74609000  1
  H  1224  1  0.63149100  0.44282300  0.79620300  1
  H  1225  1  0.65628200  0.47018600  0.78283800  1
  H  1226  1  0.66940200  0.43367700  0.78345200  1
  H  1233  1  0.70900500  0.47738800  0.36886700  1
  H  1237  1  0.67660100  0.55654000  0.27178200  1
  H  1239  1  0.61162400  0.58600500  0.27406400  1
  H  1240  1  0.60565200  0.59007700  0.23658800  1
  H  1241  1  0.64174300  0.60096700  0.25214700  1
  H  1243  1  0.63124100  0.55559700  0.20203700  1
  H  1244  1  0.65613900  0.52826700  0.21535400  1
  H  1245  1  0.66914700  0.56479300  0.21473300  1
  H  1252  1  0.28950800  0.47732000  0.62936000  1
  H  1256  1  0.32172500  0.55642500  0.72640100  1
  H  1258  1  0.38664400  0.58590800  0.72418400  1
  H  1259  1  0.39255300  0.58998800  0.76166700  1
  H  1260  1  0.35646600  0.60086200  0.74605100  1
  H  1262  1  0.36697500  0.55550400  0.79621100  1
  H  1263  1  0.34214900  0.52816000  0.78288400  1
  H  1264  1  0.32907200  0.56468000  0.78345700  1
  C  1  1  0.93583000  0.81765400  0.81913400  1
  C  2  1  0.92240600  0.80808100  0.84542000  1
  C  3  1  0.89124700  0.81474900  0.85257100  1
  C  4  1  0.87248600  0.83290200  0.83479100  1
  C  5  1  0.88537300  0.84020400  0.80733600  1
  C  6  1  0.91648700  0.83341400  0.79994000  1
  C  7  1  0.83978500  0.84346700  0.84361600  1
  C  8  1  0.81912800  0.82372100  0.82512700  1
  C  9  1  0.80744500  0.83222100  0.79757000  1
  C  10  1  0.79147400  0.81284000  0.77929700  1
  C  11  1  0.78629500  0.78381800  0.78767700  1
  C  12  1  0.79856600  0.77471500  0.81460800  1
  C  13  1  0.81534100  0.79401100  0.83237900  1
  C  14  1  0.83393400  0.84209900  0.87637000  1
  C  15  1  0.83442700  0.87582700  0.83819700  1
  C  16  1  0.80371700  0.88780000  0.83854500  1
  C  17  1  0.79830200  0.91776300  0.83559400  1
  C  18  1  0.82359700  0.93714300  0.83245500  1
  C  19  1  0.85427200  0.92587300  0.83393600  1
  C  20  1  0.85946500  0.89604100  0.83698000  1
  C  21  1  0.85597700  0.85464300  0.89573600  1
  C  22  1  0.85199900  0.85394700  0.92588200  1
  C  23  1  0.82505500  0.84148100  0.93851700  1
  C  24  1  0.80191400  0.83051900  0.91955800  1
  C  25  1  0.80608100  0.83128000  0.88926000  1
  C  42  1  0.93606500  0.18060400  0.17916000  1
  C  43  1  0.92262200  0.19020700  0.15289000  1
  C  44  1  0.89146700  0.18355600  0.14574300  1
  C  45  1  0.87275600  0.16534200  0.16348600  1
  C  46  1  0.88565400  0.15801000  0.19093200  1
  C  47  1  0.91675400  0.16481100  0.19833800  1
  C  48  1  0.84004900  0.15483300  0.15466200  1
  C  49  1  0.81939700  0.17461200  0.17313900  1
  C  50  1  0.80778300  0.16616900  0.20073700  1
  C  51  1  0.79183000  0.18557700  0.21901600  1
  C  52  1  0.78662500  0.21459300  0.21061000  1
  C  53  1  0.79884900  0.22365700  0.18365500  1
  C  54  1  0.81560400  0.20432800  0.16588300  1
  C  55  1  0.83421500  0.15621400  0.12191000  1
  C  56  1  0.83464300  0.12249400  0.16009300  1
  C  57  1  0.80391600  0.11059400  0.15974200  1
  C  58  1  0.79844700  0.08064700  0.16269400  1
  C  59  1  0.82370700  0.06119900  0.16582600  1
  C  60  1  0.85440100  0.07238400  0.16431300  1
  C  61  1  0.85964300  0.10220600  0.16127800  1
  C  62  1  0.85626200  0.14364100  0.10255000  1
  C  63  1  0.85229000  0.14433400  0.07240400  1
  C  64  1  0.82534300  0.15682100  0.05976100  1
  C  65  1  0.80219200  0.16780000  0.07871600  1
  C  66  1  0.80635000  0.16703100  0.10901200  1
  C  83  1  0.06242300  0.81775700  0.17891600  1
  C  84  1  0.07588200  0.80816800  0.15265300  1
  C  85  1  0.10705000  0.81480200  0.14553900  1
  C  86  1  0.12575600  0.83299000  0.16330000  1
  C  87  1  0.11282800  0.84031200  0.19073500  1
  C  88  1  0.08173100  0.83349300  0.19812900  1
  C  89  1  0.15846500  0.84351400  0.15449800  1
  C  90  1  0.17911200  0.82372900  0.17298800  1
  C  91  1  0.19071900  0.83216400  0.20058500  1
  C  92  1  0.20667200  0.81275200  0.21886800  1
  C  93  1  0.21189100  0.78374000  0.21047000  1
  C  94  1  0.19966300  0.77468300  0.18351900  1
  C  95  1  0.18290700  0.79401700  0.16574300  1
  C  96  1  0.16432300  0.84215400  0.12174900  1
  C  97  1  0.16385200  0.87585300  0.15993400  1
  C  98  1  0.19457500  0.88776700  0.15959900  1
  C  99  1  0.20002600  0.91771400  0.16257300  1
  C  100  1  0.17475500  0.93714400  0.16572700  1
  C  101  1  0.14406900  0.92594600  0.16419100  1
  C  102  1  0.13884400  0.89613000  0.16111600  1
  C  103  1  0.14228500  0.85473400  0.10237500  1
  C  104  1  0.14626700  0.85404800  0.07223100  1
  C  105  1  0.17320000  0.84153300  0.05960200  1
  C  106  1  0.19634800  0.83055200  0.07856700  1
  C  107  1  0.19218500  0.83132500  0.10886400  1
  C  124  1  0.06265700  0.18067100  0.81928500  1
  C  125  1  0.07608400  0.19022800  0.84557100  1
  C  126  1  0.10726100  0.18359300  0.85269600  1
  C  127  1  0.12600900  0.16543900  0.83491700  1
  C  128  1  0.11311600  0.15815500  0.80746400  1
  C  129  1  0.08200700  0.16495900  0.80006900  1
  C  130  1  0.15870900  0.15485900  0.84374000  1
  C  131  1  0.17936700  0.17462800  0.82526900  1
  C  132  1  0.19105900  0.16614300  0.79771200  1
  C  133  1  0.20701200  0.18553600  0.77942600  1
  C  134  1  0.21220000  0.21455300  0.78780300  1
  C  135  1  0.19992000  0.22364200  0.81472800  1
  C  136  1  0.18316700  0.20433400  0.83251300  1
  C  137  1  0.16455400  0.15618500  0.87649500  1
  C  138  1  0.16405300  0.12250700  0.83829500  1
  C  139  1  0.19475300  0.11051200  0.83865400  1
  C  140  1  0.20015700  0.08054900  0.83569100  1
  C  141  1  0.17485300  0.06118100  0.83254800  1
  C  142  1  0.14418600  0.07246400  0.83404900  1
  C  143  1  0.13901000  0.10229400  0.83708800  1
  C  144  1  0.14251000  0.14362800  0.89585700  1
  C  145  1  0.14647400  0.14431400  0.92600400  1
  C  146  1  0.17340600  0.15678600  0.93864600  1
  C  147  1  0.19655100  0.16776100  0.91969100  1
  C  148  1  0.19239800  0.16700800  0.88939300  1
  C  165  1  0.06723200  0.81928500  0.81568700  1
  C  166  1  0.08649500  0.83573200  0.79699100  1
  C  167  1  0.11773100  0.84204000  0.80442800  1
  C  168  1  0.13035900  0.83417000  0.83180900  1
  C  169  1  0.11224300  0.81423900  0.84823300  1
  C  170  1  0.08130400  0.80722700  0.84062400  1
  C  171  1  0.16233000  0.84556300  0.84185800  1
  C  172  1  0.18459700  0.82696800  0.82374500  1
  C  173  1  0.18779100  0.79686600  0.82945300  1
  C  174  1  0.20518300  0.77840100  0.81129400  1
  C  175  1  0.22035400  0.78908200  0.78625500  1
  C  176  1  0.21692000  0.81886600  0.77996000  1
  C  177  1  0.19901900  0.83709800  0.79791400  1
  C  178  1  0.16698500  0.87823800  0.83756700  1
  C  179  1  0.16643900  0.84336900  0.87476800  1
  C  180  1  0.19371400  0.83258500  0.88872700  1
  C  181  1  0.19621000  0.83136200  0.91918600  1
  C  182  1  0.17143300  0.84087200  0.93713200  1
  C  183  1  0.14505500  0.85336400  0.92353000  1
  C  184  1  0.14296900  0.85499300  0.89327000  1
  C  185  1  0.14173000  0.89797000  0.83398600  1
  C  186  1  0.14647400  0.92791000  0.83116000  1
  C  187  1  0.17674000  0.93996100  0.83335000  1
  C  188  1  0.20202700  0.92102000  0.83879300  1
  C  189  1  0.19714800  0.89091900  0.84085700  1
  C  206  1  0.06744700  0.17912900  0.18261900  1
  C  207  1  0.08674500  0.16269200  0.20131200  1
  C  208  1  0.11799100  0.15639900  0.19387700  1
  C  209  1  0.13058900  0.16423700  0.16647900  1
  C  210  1  0.11243000  0.18414200  0.15004200  1
  C  211  1  0.08149400  0.19117900  0.15767100  1
  C  212  1  0.16254600  0.15278900  0.15640800  1
  C  213  1  0.18483600  0.17135100  0.17450700  1
  C  214  1  0.18801800  0.20145100  0.16880400  1
  C  215  1  0.20542000  0.21989500  0.18695300  1
  C  216  1  0.22062100  0.20919600  0.21197900  1
  C  217  1  0.21721900  0.17941000  0.21825600  1
  C  218  1  0.19929800  0.16120000  0.20031700  1
  C  219  1  0.16716000  0.12010400  0.16070900  1
  C  220  1  0.16664700  0.15497100  0.12349500  1
  C  221  1  0.19391800  0.16572100  0.10953000  1
  C  222  1  0.19641800  0.16691900  0.07906700  1
  C  223  1  0.17163700  0.15743600  0.06112700  1
  C  224  1  0.14525600  0.14498800  0.07473800  1
  C  225  1  0.14316800  0.14338300  0.10500000  1
  C  226  1  0.14187500  0.10043300  0.16429100  1
  C  227  1  0.14657700  0.07048600  0.16716100  1
  C  228  1  0.17682000  0.05835500  0.16493700  1
  C  229  1  0.20213300  0.07723300  0.15947900  1
  C  230  1  0.19730100  0.10734500  0.15741200  1
  C  247  1  0.93126700  0.17904600  0.81582900  1
  C  248  1  0.91200500  0.16260800  0.79713600  1
  C  249  1  0.88078400  0.15627200  0.80459300  1
  C  250  1  0.86814400  0.16414700  0.83196300  1
  C  251  1  0.88625800  0.18408000  0.84837600  1
  C  252  1  0.91719100  0.19111600  0.84075300  1
  C  253  1  0.83617500  0.15274600  0.84201900  1
  C  254  1  0.81391000  0.17135200  0.82390000  1
  C  255  1  0.81072500  0.20145400  0.82959600  1
  C  256  1  0.79331900  0.21992300  0.81144300  1
  C  257  1  0.77815200  0.20925500  0.78640400  1
  C  258  1  0.78159000  0.17947500  0.78011400  1
  C  259  1  0.79946400  0.16122700  0.79808500  1
  C  260  1  0.83152000  0.12007300  0.83773300  1
  C  261  1  0.83206400  0.15492900  0.87492700  1
  C  262  1  0.80479800  0.16572700  0.88888100  1
  C  263  1  0.80230300  0.16694900  0.91934000  1
  C  264  1  0.82707900  0.15743000  0.93728900  1
  C  265  1  0.85344700  0.14492200  0.92369400  1
  C  266  1  0.85553600  0.14330200  0.89343500  1
  C  267  1  0.85677200  0.10033900  0.83415900  1
  C  268  1  0.85201900  0.07040700  0.83127900  1
  C  269  1  0.82174600  0.05836100  0.83344600  1
  C  270  1  0.79646800  0.07729600  0.83892600  1
  C  271  1  0.80135500  0.10739300  0.84102000  1
  C  288  1  0.93101200  0.81920300  0.18247500  1
  C  289  1  0.91172200  0.83563200  0.20116900  1
  C  290  1  0.88049200  0.84196700  0.19371200  1
  C  291  1  0.86787900  0.83413000  0.16632300  1
  C  292  1  0.88604000  0.81424000  0.14988100  1
  C  293  1  0.91697000  0.80717600  0.15752200  1
  C  294  1  0.83591200  0.84557500  0.15626400  1
  C  295  1  0.81365400  0.82698300  0.17438000  1
  C  296  1  0.81046600  0.79688800  0.16868100  1
  C  297  1  0.79305300  0.77844400  0.18683300  1
  C  298  1  0.77786200  0.78913700  0.21185800  1
  C  299  1  0.78127300  0.81892000  0.21812700  1
  C  300  1  0.79915300  0.83714800  0.20016100  1
  C  301  1  0.83128400  0.87826000  0.16054400  1
  C  302  1  0.83178900  0.84339600  0.12335500  1
  C  303  1  0.80451500  0.83263400  0.10941000  1
  C  304  1  0.80201400  0.83140300  0.07895200  1
  C  305  1  0.82678500  0.84088500  0.06099300  1
  C  306  1  0.85315400  0.85337000  0.07458100  1
  C  307  1  0.85525100  0.85499500  0.10483900  1
  C  308  1  0.85656600  0.89792600  0.16415600  1
  C  309  1  0.85186100  0.92786800  0.16703800  1
  C  310  1  0.82160800  0.93999400  0.16486600  1
  C  311  1  0.79629700  0.92112000  0.15939500  1
  C  312  1  0.80113700  0.89101300  0.15728000  1
  C  329  1  0.43608200  0.31741200  0.31908400  1
  C  330  1  0.42284500  0.30752500  0.34533300  1
  C  331  1  0.39173800  0.31410600  0.35274700  1
  C  332  1  0.37284000  0.33247200  0.33530300  1
  C  333  1  0.38550100  0.34002700  0.30783100  1
  C  334  1  0.41656600  0.33333333  0.30016600  1
  C  335  1  0.34026200  0.34306300  0.34449700  1
  C  336  1  0.31918900  0.32413400  0.32554000  1
  C  337  1  0.30687700  0.33388800  0.29865200  1
  C  338  1  0.28977700  0.31560500  0.28017400  1
  C  339  1  0.28423800  0.28630500  0.28738900  1
  C  340  1  0.29803500  0.27578100  0.31318300  1
  C  341  1  0.31539700  0.29414700  0.33149000  1
  C  342  1  0.33468300  0.34094300  0.37724300  1
  C  343  1  0.33500900  0.37558700  0.33993600  1
  C  344  1  0.30435600  0.38764200  0.34124000  1
  C  345  1  0.29890800  0.41759600  0.33840500  1
  C  346  1  0.32414100  0.43689000  0.33449600  1
  C  347  1  0.35483400  0.42557900  0.33524700  1
  C  348  1  0.36006200  0.39573200  0.33814500  1
  C  349  1  0.35675800  0.35342100  0.39663000  1
  C  350  1  0.35290500  0.35253800  0.42677300  1
  C  351  1  0.32605800  0.33990600  0.43939600  1
  C  352  1  0.30300500  0.32873800  0.42046500  1
  C  353  1  0.30708600  0.32961500  0.39015400  1
  C  370  1  0.43584100  0.68080900  0.67909000  1
  C  371  1  0.42255700  0.69069800  0.65285800  1
  C  372  1  0.39144100  0.68414100  0.64548200  1
  C  373  1  0.37261300  0.66572400  0.66291300  1
  C  374  1  0.38530400  0.65817400  0.69038100  1
  C  375  1  0.41637200  0.66487100  0.69801500  1
  C  376  1  0.34004700  0.65513300  0.65373400  1
  C  377  1  0.31894800  0.67406100  0.67268000  1
  C  378  1  0.30669500  0.66433700  0.69960000  1
  C  379  1  0.28959000  0.68263000  0.71808500  1
  C  380  1  0.28401800  0.71192800  0.71086400  1
  C  381  1  0.29776500  0.72243500  0.68504700  1
  C  382  1  0.31512700  0.70405300  0.66673600  1
  C  383  1  0.33446300  0.65724900  0.62099200  1
  C  384  1  0.33482900  0.62261600  0.65831400  1
  C  385  1  0.30418900  0.61056200  0.65699900  1
  C  386  1  0.29877200  0.58060900  0.65982000  1
  C  387  1  0.32402400  0.56130600  0.66371300  1
  C  388  1  0.35470700  0.57260600  0.66295600  1
  C  389  1  0.35989800  0.60245400  0.66007300  1
  C  390  1  0.35655000  0.64476400  0.60160300  1
  C  391  1  0.35268200  0.64562600  0.57146000  1
  C  392  1  0.32582000  0.65825900  0.55883900  1
  C  393  1  0.30275400  0.66943600  0.57777000  1
  C  394  1  0.30683700  0.66855600  0.60808100  1
  C  411  1  0.56264600  0.31748500  0.67931800  1
  C  412  1  0.57587400  0.30762500  0.65305600  1
  C  413  1  0.60697200  0.31419800  0.64562700  1
  C  414  1  0.62583700  0.33259400  0.66303600  1
  C  415  1  0.61318300  0.34014600  0.69050900  1
  C  416  1  0.58214800  0.33333333  0.69821900  1
  C  417  1  0.65839600  0.34318300  0.65382200  1
  C  418  1  0.67951300  0.32426600  0.67277300  1
  C  419  1  0.69180500  0.33400500  0.69966600  1
  C  420  1  0.70892100  0.31571800  0.71816000  1
  C  421  1  0.71448400  0.28641400  0.71097100  1
  C  422  1  0.70069200  0.27589100  0.68518700  1
  C  423  1  0.68331600  0.29426700  0.66686800  1
  C  424  1  0.66396800  0.34104500  0.62107900  1
  C  425  1  0.66360300  0.37570400  0.65836100  1
  C  426  1  0.69423500  0.38777100  0.65701500  1
  C  427  1  0.69963600  0.41773100  0.65978800  1
  C  428  1  0.67437700  0.43701900  0.66370200  1
  C  429  1  0.64370300  0.42570600  0.66296900  1
  C  430  1  0.63852400  0.39585600  0.66011300  1
  C  431  1  0.64187900  0.35352200  0.60167900  1
  C  432  1  0.64574700  0.35265100  0.57153600  1
  C  433  1  0.67260900  0.34001300  0.55892700  1
  C  434  1  0.69567700  0.32885000  0.57786700  1
  C  435  1  0.69159400  0.32973800  0.60817800  1
  C  452  1  0.56241000  0.68084400  0.31901700  1
  C  453  1  0.57564500  0.69073000  0.34526000  1
  C  454  1  0.60676800  0.68418400  0.35266000  1
  C  455  1  0.62565700  0.66580500  0.33523200  1
  C  456  1  0.61299100  0.65824600  0.30776700  1
  C  457  1  0.58193300  0.66495800  0.30008900  1
  C  458  1  0.65823700  0.65522000  0.34442600  1
  C  459  1  0.67929800  0.67417100  0.32547300  1
  C  460  1  0.69162000  0.66441900  0.29859100  1
  C  461  1  0.70868900  0.68271300  0.28008800  1
  C  462  1  0.71422600  0.71201300  0.28728400  1
  C  463  1  0.70044400  0.72253000  0.31308000  1
  C  464  1  0.68308800  0.70416000  0.33139900  1
  C  465  1  0.66382100  0.65732800  0.37717100  1
  C  466  1  0.66349500  0.62270300  0.33986700  1
  C  467  1  0.69414800  0.61064300  0.34118800  1
  C  468  1  0.69960300  0.58069000  0.33837600  1
  C  469  1  0.67437200  0.56139300  0.33448800  1
  C  470  1  0.64367700  0.57269500  0.33524900  1
  C  471  1  0.63845200  0.60254500  0.33811300  1
  C  472  1  0.64175300  0.64485500  0.39657500  1
  C  473  1  0.64561600  0.64574100  0.42671700  1
  C  474  1  0.67245200  0.65839600  0.43932100  1
  C  475  1  0.69549700  0.66956700  0.42037700  1
  C  476  1  0.69141600  0.66867300  0.39006800  1
  C  493  1  0.56752300  0.31960200  0.31491500  1
  C  494  1  0.58644900  0.33671100  0.29651800  1
  C  495  1  0.61769500  0.34307500  0.30385100  1
  C  496  1  0.63069000  0.33450300  0.33086700  1
  C  497  1  0.61301200  0.31387200  0.34681500  1
  C  498  1  0.58203100  0.30687600  0.33931500  1
  C  499  1  0.66250900  0.34598800  0.34114600  1
  C  500  1  0.68488900  0.32738900  0.32322400  1
  C  501  1  0.68949900  0.29769100  0.33005300  1
  C  502  1  0.70785600  0.27934700  0.31263200  1
  C  503  1  0.72186100  0.28958100  0.28684600  1
  C  504  1  0.71603800  0.31861900  0.27886500  1
  C  505  1  0.69786800  0.33692600  0.29652500  1
  C  506  1  0.66722500  0.37861800  0.33685400  1
  C  507  1  0.66642600  0.34392300  0.37408600  1
  C  508  1  0.69415800  0.33431100  0.38814000  1
  C  509  1  0.69649200  0.33288700  0.41859300  1
  C  510  1  0.67115300  0.34118300  0.43646500  1
  C  511  1  0.64436500  0.35284100  0.42278800  1
  C  512  1  0.64240300  0.35463200  0.39252200  1
  C  513  1  0.64188800  0.39841500  0.33424600  1
  C  514  1  0.64659200  0.42837300  0.33159600  1
  C  515  1  0.67694300  0.44030800  0.33318000  1
  C  516  1  0.70238200  0.42129700  0.33763700  1
  C  517  1  0.69752400  0.39117900  0.33939000  1
  C  534  1  0.56730800  0.67878000  0.68332200  1
  C  535  1  0.58626700  0.66168200  0.70172100  1
  C  536  1  0.61754000  0.65537600  0.69441600  1
  C  537  1  0.63052000  0.66395700  0.66740300  1
  C  538  1  0.61279700  0.68456800  0.65144800  1
  C  539  1  0.58180000  0.69154900  0.65894600  1
  C  540  1  0.66234800  0.65245900  0.65710900  1
  C  541  1  0.68471300  0.67105000  0.67502400  1
  C  542  1  0.68928100  0.70074900  0.66820300  1
  C  543  1  0.70760300  0.71909200  0.68563100  1
  C  544  1  0.72164100  0.70885200  0.71140600  1
  C  545  1  0.71585800  0.67981200  0.71938100  1
  C  546  1  0.69771600  0.66150500  0.70171900  1
  C  547  1  0.66707700  0.61982400  0.66139700  1
  C  548  1  0.66625800  0.65452700  0.62416600  1
  C  549  1  0.69398000  0.66412500  0.61011200  1
  C  550  1  0.69632300  0.66552700  0.57965800  1
  C  551  1  0.67099200  0.65723700  0.56178500  1
  C  552  1  0.64421100  0.64560500  0.57546500  1
  C  553  1  0.64224000  0.64383800  0.60573100  1
  C  554  1  0.64174800  0.60004700  0.66397800  1
  C  555  1  0.64646100  0.57008500  0.66662800  1
  C  556  1  0.67681600  0.55812200  0.66504800  1
  C  557  1  0.70225100  0.57711100  0.66059600  1
  C  558  1  0.69738400  0.60723800  0.65886000  1
  C  575  1  0.43097100  0.67870100  0.31482500  1
  C  576  1  0.41205500  0.66159100  0.29643500  1
  C  577  1  0.38081900  0.65521300  0.30378100  1
  C  578  1  0.36780200  0.66381300  0.33077100  1
  C  579  1  0.38546800  0.68446100  0.34669700  1
  C  580  1  0.41645100  0.69146300  0.33919300  1
  C  581  1  0.33598700  0.65231400  0.34106400  1
  C  582  1  0.31360600  0.67091200  0.32313500  1
  C  583  1  0.30899800  0.70060800  0.32994700  1
  C  584  1  0.29064600  0.71895600  0.31251600  1
  C  585  1  0.27664100  0.70872600  0.28673700  1
  C  586  1  0.28245900  0.67968800  0.27877000  1
  C  587  1  0.30061000  0.66137200  0.29644800  1
  C  588  1  0.33129100  0.61968000  0.33679300  1
  C  589  1  0.33206600  0.65437800  0.37400300  1
  C  590  1  0.30432500  0.66397200  0.38804300  1
  C  591  1  0.30197700  0.66539000  0.41849400  1
  C  592  1  0.32731600  0.65710200  0.43637900  1
  C  593  1  0.35411500  0.64546400  0.42271300  1
  C  594  1  0.35609600  0.64369200  0.39244800  1
  C  595  1  0.35663900  0.59989600  0.33421800  1
  C  596  1  0.35195400  0.56993200  0.33162000  1
  C  597  1  0.32160300  0.55798600  0.33315100  1
  C  598  1  0.29615200  0.57698400  0.33758600  1
  C  599  1  0.30099600  0.60710700  0.33932400  1
  C  616  1  0.43121700  0.31957700  0.68348800  1
  C  617  1  0.41224400  0.33667500  0.70186100  1
  C  618  1  0.38099900  0.34302800  0.69448700  1
  C  619  1  0.36803100  0.33442300  0.66748100  1
  C  620  1  0.38578000  0.31382000  0.65155300  1
  C  621  1  0.41675800  0.30681200  0.65910000  1
  C  622  1  0.33619300  0.34589300  0.65717300  1
  C  623  1  0.31385900  0.32727700  0.67511100  1
  C  624  1  0.30929100  0.29758000  0.66831000  1
  C  625  1  0.29097100  0.27924100  0.68575800  1
  C  626  1  0.27691000  0.28949600  0.71150900  1
  C  627  1  0.28267400  0.31854400  0.71945000  1
  C  628  1  0.30081100  0.33684900  0.70177000  1
  C  629  1  0.33142200  0.37852700  0.66141400  1
  C  630  1  0.33228100  0.34380600  0.62423400  1
  C  631  1  0.30455900  0.33419100  0.61019700  1
  C  632  1  0.30221100  0.33277200  0.57974600  1
  C  633  1  0.32753800  0.34106200  0.56185700  1
  C  634  1  0.35431400  0.35271500  0.57552000  1
  C  635  1  0.35629000  0.35450000  0.60578500  1
  C  636  1  0.35674000  0.39831500  0.66402800  1
  C  637  1  0.35200100  0.42827400  0.66666667  1
  C  638  1  0.32163400  0.44021500  0.66507600  1
  C  639  1  0.29621300  0.42121100  0.66063400  1
  C  640  1  0.30110600  0.39108900  0.65889100  1
  C  657  1  0.73924600  0.72759700  0.72981000  1
  C  659  1  0.74853800  0.74356500  0.77858100  1
  C  660  1  0.77035200  0.76434900  0.76888300  1
  C  662  1  0.76180800  0.74786300  0.71992000  1
  C  665  1  0.78996400  0.76471800  0.67883600  1
  C  668  1  0.82764500  0.75007100  0.64353100  1
  C  672  1  0.78385100  0.78358300  0.63096100  1
  C  676  1  0.73950900  0.27084100  0.26845300  1
  C  678  1  0.74884100  0.25487100  0.21968400  1
  C  679  1  0.77067600  0.23408500  0.22939600  1
  C  681  1  0.76212400  0.25060200  0.27834600  1
  C  684  1  0.79031700  0.23379400  0.31944100  1
  C  687  1  0.82795000  0.24849500  0.35474500  1
  C  691  1  0.78425200  0.21493000  0.36731700  1
  C  695  1  0.25899800  0.72747000  0.26833300  1
  C  697  1  0.24969600  0.74347900  0.21956300  1
  C  698  1  0.22783700  0.76424400  0.22926100  1
  C  700  1  0.23638000  0.74770900  0.27821700  1
  C  703  1  0.20818700  0.76450700  0.31930600  1
  C  706  1  0.17053400  0.74979200  0.35459800  1
  C  710  1  0.21423900  0.78333600  0.36718300  1
  C  714  1  0.25927900  0.27077100  0.72991900  1
  C  716  1  0.24994000  0.25482300  0.77870200  1
  C  717  1  0.22814100  0.23403000  0.76900400  1
  C  719  1  0.23670500  0.25051800  0.72003500  1
  C  722  1  0.20855700  0.23367800  0.67895300  1
  C  725  1  0.17090100  0.24834400  0.64362400  1
  C  729  1  0.21467700  0.21480400  0.63109500  1
  C  733  1  0.26685000  0.73068300  0.72974200  1
  C  735  1  0.26359800  0.77803500  0.75119500  1
  C  736  1  0.23682400  0.77004700  0.76725400  1
  C  738  1  0.23966200  0.72256500  0.74548700  1
  C  741  1  0.20501500  0.68385900  0.75622400  1
  C  744  1  0.16160200  0.65627200  0.73886200  1
  C  748  1  0.20496300  0.63323900  0.76685000  1
  C  752  1  0.26709100  0.26756000  0.26850100  1
  C  754  1  0.26387000  0.22021300  0.24703500  1
  C  755  1  0.23709400  0.22821800  0.23097200  1
  C  757  1  0.23988900  0.27569000  0.25276300  1
  C  760  1  0.20522100  0.31441900  0.24200200  1
  C  763  1  0.16180100  0.34206100  0.25933800  1
  C  767  1  0.20516200  0.36503000  0.23134400  1
  C  771  1  0.73164000  0.26765900  0.72987000  1
  C  773  1  0.73490100  0.22030200  0.75134100  1
  C  774  1  0.76166300  0.22829500  0.76741000  1
  C  776  1  0.75882600  0.27577900  0.74561600  1
  C  779  1  0.79348500  0.31447500  0.75633300  1
  C  782  1  0.83693100  0.34202800  0.73898100  1
  C  786  1  0.79355300  0.36509800  0.76690000  1
  C  790  1  0.73138000  0.73076300  0.26839500  1
  C  792  1  0.73461100  0.77812000  0.24692200  1
  C  793  1  0.76138200  0.77011300  0.23085800  1
  C  795  1  0.75857000  0.72263000  0.25265100  1
  C  798  1  0.79323400  0.68389700  0.24191700  1
  C  801  1  0.83664500  0.65622600  0.25923400  1
  C  805  1  0.79324100  0.63328600  0.23128900  1
  C  809  1  0.96851700  0.81451200  0.81371200  1
  C  811  1  0.01568100  0.84042700  0.80226100  1
  C  812  1  0.03427200  0.81690100  0.81153400  1
  C  814  1  0.98702300  0.79000500  0.82119100  1
  C  817  1  0.95391300  0.74935900  0.81990300  1
  C  820  1  0.91553300  0.72402800  0.84762300  1
  C  824  1  0.95118500  0.69812600  0.81357800  1
  C  828  1  0.96873100  0.18383000  0.18463600  1
  C  830  1  0.01596400  0.15796400  0.19611400  1
  C  831  1  0.03448100  0.18149300  0.18676200  1
  C  833  1  0.98717100  0.20834800  0.17713100  1
  C  836  1  0.95393000  0.24894800  0.17847600  1
  C  839  1  0.91550600  0.27427400  0.15076400  1
  C  843  1  0.95103900  0.30016500  0.18489100  1
  C  847  1  0.02973500  0.81458600  0.18431800  1
  C  849  1  0.98250900  0.84040000  0.19585300  1
  C  850  1  0.96397800  0.81684700  0.18660600  1
  C  852  1  0.01130800  0.79005000  0.17685600  1
  C  855  1  0.04452700  0.74944100  0.17822100  1
  C  858  1  0.08299200  0.72414000  0.15054900  1
  C  862  1  0.04739700  0.69821600  0.18461300  1
  C  866  1  0.02996500  0.18381000  0.81388500  1
  C  868  1  0.98280600  0.15795000  0.80229300  1
  C  869  1  0.96423000  0.18143600  0.81168300  1
  C  871  1  0.01147400  0.20832900  0.82133500  1
  C  874  1  0.04459200  0.24896500  0.82005800  1
  C  877  1  0.08298800  0.27425800  0.84778100  1
  C  881  1  0.04733900  0.30020300  0.81374800  1
  C  885  1  0.82273800  0.83979500  0.96934200  1
  C  887  1  0.85186200  0.83246700  0.01321900  1
  C  888  1  0.82531000  0.83887000  0.03023900  1
  C  890  1  0.79553000  0.84514700  0.98619400  1
  C  893  1  0.74113600  0.85516100  0.98415900  1
  C  896  1  0.70285700  0.89178500  0.97506200  1
  C  900  1  0.69431200  0.84052300  0.95998500  1
  C  904  1  0.17570500  0.15846200  0.96947100  1
  C  906  1  0.14656200  0.16579300  0.01333200  1
  C  907  1  0.17311100  0.15940800  0.03036500  1
  C  909  1  0.20290800  0.15312700  0.98633900  1
  C  912  1  0.25732400  0.14318100  0.98435300  1
  C  915  1  0.29566300  0.10661700  0.97526000  1
  C  919  1  0.30415400  0.15791400  0.96023800  1
  C  923  1  0.82303100  0.15851700  0.02893800  1
  C  925  1  0.85215900  0.16581500  0.98506400  1
  C  926  1  0.82560900  0.15944200  0.96804400  1
  C  928  1  0.79582400  0.15319700  0.01208700  1
  C  931  1  0.74142800  0.14324900  0.01410200  1
  C  934  1  0.70313800  0.10666200  0.02312300  1
  C  938  1  0.69461200  0.15790300  0.03831100  1
  C  942  1  0.17551100  0.83982900  0.02878100  1
  C  944  1  0.14637100  0.83251200  0.98492200  1
  C  945  1  0.17291200  0.83889200  0.96789100  1
  C  947  1  0.20271100  0.84515200  0.01191500  1
  C  950  1  0.25710400  0.85511700  0.01392200  1
  C  953  1  0.29540300  0.89167100  0.02300300  1
  C  957  1  0.30392700  0.84038600  0.03808500  1
  C  961  1  0.81902800  0.96739100  0.82908300  1
  C  963  1  0.80036300  0.01119100  0.85093500  1
  C  964  1  0.81794300  0.02791800  0.83118800  1
  C  966  1  0.83485300  0.98412600  0.80780400  1
  C  969  1  0.84431800  0.95336400  0.76830000  1
  C  972  1  0.87798600  0.91555500  0.75197400  1
  C  976  1  0.85347600  0.95034000  0.71741100  1
  C  980  1  0.17936700  0.96737100  0.16918200  1
  C  982  1  0.19822300  0.01116500  0.14746400  1
  C  983  1  0.18055400  0.02789300  0.16715500  1
  C  985  1  0.16351500  0.98409900  0.19044600  1
  C  988  1  0.15396100  0.95326700  0.22989300  1
  C  991  1  0.12020100  0.91552000  0.24613500  1
  C  995  1  0.14474800  0.95015700  0.28077000  1
  C  999  1  0.17940000  0.03093400  0.82915300  1
  C  1001  1  0.19812200  0.98710000  0.85090300  1
  C  1002  1  0.18053100  0.97041100  0.83114000  1
  C  1004  1  0.16355700  0.01425100  0.80785800  1
  C  1007  1  0.15413900  0.04508400  0.76837900  1
  C  1010  1  0.12050300  0.08294100  0.75208100  1
  C  1014  1  0.14500600  0.04820500  0.71748800  1
  C  1018  1  0.81907100  0.03097000  0.16923800  1
  C  1020  1  0.80021300  0.98722000  0.14745000  1
  C  1021  1  0.81786400  0.97045000  0.16712800  1
  C  1023  1  0.83488700  0.01419000  0.19049900  1
  C  1026  1  0.84450300  0.04494000  0.22997200  1
  C  1029  1  0.87829900  0.08263800  0.24623900  1
  C  1033  1  0.85375600  0.04794600  0.28084500  1
  C  1037  1  0.46875100  0.31440400  0.31345200  1
  C  1039  1  0.51572400  0.34065300  0.30203100  1
  C  1040  1  0.53451500  0.31714500  0.31102400  1
  C  1042  1  0.48745500  0.28995500  0.32070000  1
  C  1045  1  0.45458200  0.24911500  0.31936800  1
  C  1048  1  0.41680700  0.22323300  0.34729500  1
  C  1052  1  0.45226000  0.19791600  0.31263000  1
  C  1056  1  0.46852600  0.68377500  0.68464200  1
  C  1058  1  0.51555400  0.65759600  0.69610300  1
  C  1059  1  0.53428100  0.68114600  0.68716400  1
  C  1061  1  0.48714800  0.70828000  0.67747900  1
  C  1064  1  0.45418900  0.74909200  0.67885800  1
  C  1067  1  0.41630400  0.77494800  0.65099000  1
  C  1071  1  0.45175900  0.80028800  0.68560500  1
  C  1075  1  0.52998900  0.31443900  0.68496900  1
  C  1077  1  0.48297100  0.34065100  0.69641900  1
  C  1078  1  0.46422600  0.31713700  0.68742800  1
  C  1080  1  0.51134400  0.28996600  0.67777000  1
  C  1083  1  0.54431500  0.24916100  0.67902400  1
  C  1086  1  0.58213000  0.22335500  0.65104300  1
  C  1090  1  0.54676600  0.19795300  0.68571100  1
  C  1094  1  0.52974100  0.68386600  0.31338700  1
  C  1096  1  0.48277500  0.65762000  0.30197200  1
  C  1097  1  0.46398900  0.68112300  0.31096200  1
  C  1099  1  0.51104400  0.70831600  0.32062300  1
  C  1102  1  0.54392600  0.74914700  0.31926500  1
  C  1105  1  0.58171100  0.77500500  0.34719000  1
  C  1109  1  0.54628900  0.80034500  0.31249800  1
  C  1113  1  0.32367000  0.33850500  0.47021200  1
  C  1115  1  0.35264000  0.33162900  0.51423200  1
  C  1116  1  0.32616400  0.33867200  0.53110900  1
  C  1118  1  0.29650600  0.34444200  0.48690800  1
  C  1121  1  0.24224000  0.35495600  0.48459600  1
  C  1124  1  0.20439200  0.39181300  0.47492000  1
  C  1128  1  0.19533400  0.34044100  0.46048500  1
  C  1132  1  0.67485200  0.65981900  0.47013400  1
  C  1134  1  0.64588700  0.66666667  0.51415600  1
  C  1135  1  0.67235900  0.65960900  0.53103300  1
  C  1137  1  0.70201000  0.65384700  0.48683400  1
  C  1140  1  0.75627100  0.64331500  0.48450500  1
  C  1143  1  0.79409900  0.60646100  0.47477100  1
  C  1147  1  0.80318300  0.65785900  0.46041100  1
  C  1151  1  0.32342900  0.65966800  0.52802500  1
  C  1153  1  0.35240100  0.66652200  0.48400800  1
  C  1154  1  0.32593700  0.65948400  0.46712600  1
  C  1156  1  0.29627900  0.65372200  0.51132100  1
  C  1159  1  0.24201700  0.64326000  0.51364200  1
  C  1162  1  0.20416300  0.60646300  0.52334700  1
  C  1166  1  0.19511600  0.65785900  0.53774800  1
  C  1170  1  0.67500700  0.33860900  0.52811400  1
  C  1172  1  0.64605100  0.33175500  0.48409200  1
  C  1173  1  0.67252000  0.33880800  0.46721700  1
  C  1175  1  0.70216900  0.34453800  0.51141700  1
  C  1178  1  0.75643800  0.35497300  0.51373300  1
  C  1181  1  0.79431000  0.39177100  0.52336200  1
  C  1185  1  0.80331900  0.34039900  0.53789300  1
  C  1189  1  0.31943100  0.46705600  0.33070700  1
  C  1191  1  0.30097500  0.51118700  0.35200300  1
  C  1192  1  0.31787800  0.52754200  0.33146300  1
  C  1194  1  0.33447500  0.48339700  0.30865100  1
  C  1197  1  0.34239800  0.45186300  0.26949400  1
  C  1200  1  0.37532400  0.41359700  0.25296300  1
  C  1204  1  0.34952400  0.44757900  0.21842200  1
  C  1208  1  0.67903600  0.46719400  0.66743400  1
  C  1210  1  0.69742100  0.51132700  0.64612900  1
  C  1211  1  0.68055800  0.52767200  0.66670900  1
  C  1213  1  0.66402400  0.48351600  0.68952700  1
  C  1216  1  0.65620900  0.45197700  0.72870600  1
  C  1219  1  0.62339800  0.41367400  0.74528000  1
  C  1223  1  0.64914400  0.44767500  0.77978500  1
  C  1227  1  0.67908500  0.53122500  0.33072300  1
  C  1229  1  0.69759700  0.48710100  0.35200600  1
  C  1230  1  0.68070000  0.47075000  0.33146800  1
  C  1232  1  0.66409400  0.51490200  0.30863800  1
  C  1235  1  0.65610900  0.54645700  0.26949400  1
  C  1238  1  0.62315000  0.58471700  0.25298400  1
  C  1242  1  0.64893800  0.55076500  0.21842800  1
  C  1246  1  0.31934400  0.53114100  0.66750200  1
  C  1248  1  0.30096100  0.48701300  0.64619500  1
  C  1249  1  0.31785700  0.47065900  0.66675500  1
  C  1251  1  0.33438600  0.51480200  0.68957100  1
  C  1254  1  0.34222700  0.54634100  0.72873000  1
  C  1257  1  0.37509000  0.58461800  0.74525300  1
  C  1261  1  0.34931300  0.55066000  0.77980200  1
  N  658  1  0.73390800  0.72649800  0.75887900  1
  N  661  1  0.77602000  0.76513500  0.73990100  1
  N  664  1  0.77063600  0.74835800  0.69238100  1
  N  666  1  0.79495500  0.75944300  0.64969400  1
  N  677  1  0.73416100  0.27192000  0.23938400  1
  N  680  1  0.77635600  0.23331900  0.25837500  1
  N  683  1  0.77094500  0.25012700  0.30588900  1
  N  685  1  0.79528800  0.23908000  0.34858200  1
  N  696  1  0.26435200  0.72640200  0.23926800  1
  N  699  1  0.22215000  0.76499900  0.25824000  1
  N  702  1  0.22755300  0.74817300  0.30575800  1
  N  704  1  0.20320300  0.75920300  0.34844500  1
  N  715  1  0.26460500  0.27186500  0.75898900  1
  N  718  1  0.22248200  0.23324800  0.74002300  1
  N  721  1  0.22789000  0.25002700  0.69249400  1
  N  723  1  0.20358200  0.23895300  0.64980300  1
  N  734  1  0.27734300  0.75827100  0.73355400  1
  N  737  1  0.22621200  0.74259100  0.76321600  1
  N  740  1  0.22618600  0.69700700  0.74157400  1
  N  742  1  0.19538500  0.65686300  0.74677300  1
  N  753  1  0.27759400  0.23996300  0.26469000  1
  N  756  1  0.22645800  0.25567900  0.23502400  1
  N  759  1  0.22639700  0.30126000  0.25666200  1
  N  761  1  0.19558400  0.34143100  0.25143400  1
  N  772  1  0.72115600  0.24006800  0.73369300  1
  N  775  1  0.77227800  0.25574900  0.76335100  1
  N  778  1  0.77232100  0.30132800  0.74168200  1
  N  780  1  0.80313900  0.34146200  0.74686000  1
  N  791  1  0.72087700  0.75836200  0.26457200  1
  N  794  1  0.77201100  0.74265000  0.23491400  1
  N  797  1  0.77206600  0.69706200  0.25657000  1
  N  799  1  0.80285500  0.65687900  0.25135600  1
  N  810  1  0.98412200  0.83850200  0.80451000  1
  N  813  1  0.01867600  0.79283800  0.82055700  1
  N  816  1  0.97651300  0.76454400  0.83011100  1
  N  818  1  0.94672800  0.72335100  0.83322200  1
  N  829  1  0.98440400  0.15984500  0.19380300  1
  N  832  1  0.01883000  0.20554900  0.17776000  1
  N  835  1  0.97658700  0.23381500  0.16826100  1
  N  837  1  0.94668200  0.27496900  0.16519800  1
  N  848  1  0.01407000  0.83853500  0.19356600  1
  N  851  1  0.97964700  0.79282300  0.17755300  1
  N  854  1  0.02189200  0.76459400  0.16797900  1
  N  856  1  0.05179100  0.72343300  0.16493800  1
  N  867  1  0.01436100  0.15984700  0.80463300  1
  N  870  1  0.97982100  0.20549500  0.82070900  1
  N  873  1  0.02199100  0.23377900  0.83026500  1
  N  875  1  0.05178900  0.27495800  0.83338300  1
  N  886  1  0.84948300  0.83345100  0.98405100  1
  N  889  1  0.79833500  0.84477400  0.01567300  1
  N  892  1  0.76887800  0.85299400  0.97376100  1
  N  894  1  0.71736100  0.86397400  0.96579000  1
  N  905  1  0.14895500  0.16480600  0.98416500  1
  N  908  1  0.20009800  0.15352200  0.01581800  1
  N  911  1  0.22959000  0.14532800  0.97393000  1
  N  913  1  0.28113100  0.13442400  0.96599800  1
  N  924  1  0.84977900  0.16482700  0.01423100  1
  N  927  1  0.79863500  0.15356300  0.98260700  1
  N  930  1  0.76917200  0.14535800  0.02450300  1
  N  932  1  0.71765400  0.13443200  0.03245400  1
  N  943  1  0.14876100  0.83350600  0.01408900  1
  N  946  1  0.19989500  0.84476900  0.98243800  1
  N  949  1  0.22936500  0.85297400  0.02433300  1
  N  951  1  0.28088800  0.86387900  0.03228400  1
  N  962  1  0.80235500  0.98186600  0.84962200  1
  N  965  1  0.83421500  0.01334200  0.81049300  1
  N  968  1  0.85158300  0.97376500  0.78594000  1
  N  970  1  0.86565800  0.94536200  0.74721700  1
  N  981  1  0.19611100  0.98184500  0.14869500  1
  N  984  1  0.16422000  0.01332000  0.18780600  1
  N  987  1  0.14675400  0.97373300  0.21228400  1
  N  989  1  0.13258300  0.94528100  0.25094600  1
  N  1000  1  0.19612100  0.01642700  0.84964500  1
  N  1003  1  0.16423100  0.98502800  0.81048400  1
  N  1006  1  0.14684800  0.02465900  0.78599500  1
  N  1008  1  0.13281300  0.05313700  0.74729700  1
  N  1019  1  0.80234000  0.01653700  0.14872000  1
  N  1022  1  0.83419400  0.98497600  0.18780400  1
  N  1025  1  0.85168000  0.02450300  0.21233300  1
  N  1027  1  0.86590000  0.05287500  0.25102000  1
  N  1038  1  0.48419100  0.33855600  0.30443300  1
  N  1041  1  0.51908400  0.29294100  0.31990700  1
  N  1044  1  0.47719100  0.26435800  0.32946400  1
  N  1046  1  0.44780900  0.22293800  0.33253300  1
  N  1057  1  0.48401300  0.65965400  0.69371500  1
  N  1060  1  0.51878700  0.70534300  0.67829600  1
  N  1063  1  0.47681600  0.73386800  0.66872300  1
  N  1065  1  0.44733200  0.77526700  0.66570600  1
  N  1076  1  0.51450700  0.33858200  0.69397700  1
  N  1079  1  0.47971000  0.29294700  0.67854600  1
  N  1082  1  0.52165700  0.26439600  0.66896100  1
  N  1084  1  0.55114000  0.22300800  0.66582800  1
  N  1095  1  0.51430800  0.65971400  0.30437500  1
  N  1098  1  0.47941300  0.70533400  0.31982700  1
  N  1101  1  0.52131300  0.73391300  0.32936900  1
  N  1103  1  0.55071300  0.77532200  0.33241800  1
  N  1114  1  0.35032200  0.33212800  0.48504700  1
  N  1117  1  0.29928200  0.34458200  0.51638700  1
  N  1120  1  0.26998200  0.35236900  0.47429200  1
  N  1122  1  0.21861900  0.36375100  0.46605000  1
  N  1133  1  0.64820000  0.66618300  0.48496900  1
  N  1136  1  0.69924000  0.65370200  0.51631300  1
  N  1139  1  0.72852800  0.64593600  0.47420400  1
  N  1141  1  0.77988500  0.63454800  0.46594300  1
  N  1152  1  0.35007700  0.66602800  0.51319300  1
  N  1155  1  0.29905800  0.65358400  0.48184400  1
  N  1158  1  0.26976000  0.64582900  0.52394500  1
  N  1160  1  0.21839700  0.63451300  0.53219600  1
  N  1171  1  0.64836400  0.33225600  0.51327700  1
  N  1174  1  0.69939700  0.34469100  0.48193700  1
  N  1177  1  0.72869000  0.35243900  0.52403100  1
  N  1179  1  0.78005400  0.36374500  0.53227500  1
  N  1190  1  0.30321300  0.48186100  0.35132200  1
  N  1193  1  0.33369500  0.51266800  0.31068800  1
  N  1196  1  0.35039700  0.47258400  0.28648400  1
  N  1198  1  0.36288500  0.44331700  0.24790700  1
  N  1209  1  0.69524200  0.48199900  0.64681800  1
  N  1212  1  0.66478300  0.51278800  0.68750200  1
  N  1215  1  0.64813900  0.47269000  0.71171000  1
  N  1217  1  0.63576400  0.44340500  0.75031200  1
  N  1228  1  0.69530900  0.51642700  0.35134300  1
  N  1231  1  0.66487600  0.48563100  0.31069000  1
  N  1234  1  0.64813700  0.52571900  0.28648800  1
  N  1236  1  0.63559800  0.55500600  0.24792100  1
  N  1247  1  0.30316400  0.51633800  0.64687200  1
  N  1250  1  0.33363900  0.48553200  0.68754100  1
  N  1253  1  0.35027300  0.52561700  0.71174900  1
  N  1255  1  0.36268900  0.55490200  0.75032300  1
