# generated using pymatgen
data_H19(C4N)4
_symmetry_space_group_name_H-M   'P 1'
_cell_length_a   22.61790000
_cell_length_b   61.48190000
_cell_length_c   61.48190000
_cell_angle_alpha   90.00000000
_cell_angle_beta   90.00000000
_cell_angle_gamma   90.00000000
_symmetry_Int_Tables_number   1
_chemical_formula_structural   H19(C4N)4
_chemical_formula_sum   'H608 C512 N128'
_cell_volume   85496.20545408
_cell_formula_units_Z   32
loop_
 _symmetry_equiv_pos_site_id
 _symmetry_equiv_pos_as_xyz
  1  'x, y, z'
loop_
 _atom_site_type_symbol
 _atom_site_label
 _atom_site_symmetry_multiplicity
 _atom_site_fract_x
 _atom_site_fract_y
 _atom_site_fract_z
 _atom_site_occupancy
  C  1  1  0.29163600  0.08890200  0.00237900  1
  C  2  1  0.33650200  0.07331100  0.00556100  1
  C  3  1  0.39500400  0.07630500  0.99823400  1
  C  4  1  0.41090000  0.09704400  0.98933200  1
  C  5  1  0.36526800  0.11246300  0.98382300  1
  C  6  1  0.30531900  0.10815800  0.99037300  1
  C  9  1  0.23604600  0.08558900  0.01360800  1
  C  10  1  0.19813000  0.06716500  0.01077600  1
  C  11  1  0.14624700  0.06487200  0.02410200  1
  C  12  1  0.13561700  0.08028800  0.04133100  1
  C  13  1  0.17170000  0.09929600  0.04321600  1
  C  14  1  0.22174000  0.10110200  0.02971400  1
  C  27  1  0.15684300  0.11723800  0.05899100  1
  C  30  1  0.09930200  0.04763300  0.02042000  1
  C  33  1  0.43944700  0.05821900  0.00094500  1
  C  36  1  0.37870700  0.13293600  0.97088100  1
  C  39  1  0.79165100  0.41575200  0.00228900  1
  C  40  1  0.83650500  0.43135100  0.99912400  1
  C  41  1  0.89499800  0.42835200  0.00645600  1
  C  42  1  0.91088000  0.40761800  0.01536500  1
  C  43  1  0.86525200  0.39218700  0.02085000  1
  C  44  1  0.80530800  0.39649400  0.01429300  1
  C  47  1  0.73606700  0.41907000  0.99105800  1
  C  48  1  0.69812800  0.43748500  0.99390400  1
  C  49  1  0.64624400  0.43977800  0.98057800  1
  C  50  1  0.63561100  0.42436400  0.96334900  1
  C  51  1  0.67171000  0.40536200  0.96145400  1
  C  52  1  0.72177300  0.40356100  0.97494600  1
  C  65  1  0.65684400  0.38741700  0.94568500  1
  C  68  1  0.59928600  0.45701100  0.98426600  1
  C  71  1  0.93945000  0.44643600  0.00375300  1
  C  74  1  0.87867500  0.37170500  0.03377800  1
  C  77  1  0.54231400  0.25221100  0.83886000  1
  C  78  1  0.58725600  0.24904600  0.82329500  1
  C  79  1  0.64559400  0.25656700  0.82624200  1
  C  80  1  0.66131000  0.26566400  0.84691800  1
  C  81  1  0.61558700  0.27104400  0.86235500  1
  C  82  1  0.55575800  0.26432800  0.85806400  1
  C  85  1  0.48693200  0.24083700  0.83557600  1
  C  86  1  0.44891800  0.24358200  0.81716600  1
  C  87  1  0.39713100  0.23019800  0.81494400  1
  C  88  1  0.38670100  0.21299600  0.83040400  1
  C  89  1  0.42281900  0.21122300  0.84941300  1
  C  90  1  0.47276200  0.22478200  0.85116100  1
  C  103  1  0.40802000  0.19551900  0.86742000  1
  C  106  1  0.35008300  0.23379900  0.79773100  1
  C  109  1  0.69003400  0.25390900  0.80814100  1
  C  112  1  0.62870000  0.28396300  0.88287300  1
  C  115  1  0.04230300  0.25243200  0.16579400  1
  C  116  1  0.08721700  0.25558900  0.18137400  1
  C  117  1  0.14561400  0.24814000  0.17840900  1
  C  118  1  0.16138300  0.23912900  0.15770200  1
  C  119  1  0.11567900  0.23366200  0.14229400  1
  C  120  1  0.05582600  0.24034700  0.14657400  1
  C  123  1  0.98690400  0.26379600  0.16907100  1
  C  124  1  0.94892200  0.26106600  0.18749100  1
  C  125  1  0.89717400  0.27446900  0.18972900  1
  C  126  1  0.88674800  0.29167100  0.17427100  1
  C  127  1  0.92281700  0.29342500  0.15524700  1
  C  128  1  0.97272400  0.27985000  0.15348500  1
  C  141  1  0.90801900  0.30912800  0.13724100  1
  C  144  1  0.85013600  0.27087200  0.20694700  1
  C  147  1  0.19008700  0.25083300  0.19649200  1
  C  150  1  0.12893700  0.22065000  0.12184600  1
  C  153  1  0.71555600  0.91561400  0.00238200  1
  C  154  1  0.67016400  0.93102200  0.99926500  1
  C  155  1  0.61192400  0.92786200  0.00678500  1
  C  156  1  0.59730000  0.90744600  0.01669900  1
  C  157  1  0.64354700  0.89215900  0.02190800  1
  C  158  1  0.70284100  0.89637000  0.01454300  1
  C  161  1  0.77041100  0.91916800  0.99076000  1
  C  162  1  0.80718300  0.93795300  0.99320300  1
  C  163  1  0.85654000  0.94115500  0.97882000  1
  C  164  1  0.86515000  0.92630500  0.96098400  1
  C  165  1  0.83256100  0.90640700  0.96014500  1
  C  166  1  0.78474200  0.90374800  0.97457000  1
  C  179  1  0.84776800  0.88870900  0.94415100  1
  C  182  1  0.90110600  0.95940000  0.98161300  1
  C  185  1  0.56619200  0.94530800  0.00303100  1
  C  188  1  0.63123000  0.87181900  0.03521900  1
  C  191  1  0.21555800  0.58904200  0.00226100  1
  C  192  1  0.17019100  0.57362300  0.00536100  1
  C  193  1  0.11195400  0.57678600  0.99783700  1
  C  194  1  0.09734100  0.59720000  0.98792400  1
  C  195  1  0.14357500  0.61249800  0.98273000  1
  C  196  1  0.20286000  0.60829000  0.99010300  1
  C  199  1  0.27040400  0.58549100  0.01389000  1
  C  200  1  0.30723300  0.56672500  0.01142900  1
  C  201  1  0.35659700  0.56353200  0.02581300  1
  C  202  1  0.36517900  0.57837900  0.04365300  1
  C  203  1  0.33252400  0.59826100  0.04450900  1
  C  204  1  0.28467700  0.60090600  0.03009400  1
  C  217  1  0.34772300  0.61596400  0.06049600  1
  C  220  1  0.40125200  0.54532000  0.02301100  1
  C  223  1  0.06620800  0.55934500  0.00158600  1
  C  226  1  0.13125400  0.63284000  0.96942700  1
  C  229  1  0.46916600  0.75176500  0.16569800  1
  C  230  1  0.42407100  0.75494600  0.18120300  1
  C  231  1  0.36562600  0.74760200  0.17811100  1
  C  232  1  0.35004500  0.73862600  0.15737100  1
  C  233  1  0.39588100  0.73317900  0.14200800  1
  C  234  1  0.45574900  0.73977900  0.14640500  1
  C  237  1  0.52467000  0.76300500  0.16917000  1
  C  238  1  0.56215400  0.76014100  0.18771100  1
  C  239  1  0.61373400  0.77357300  0.19026400  1
  C  240  1  0.62437400  0.79095300  0.17503400  1
  C  241  1  0.58912600  0.79274100  0.15581300  1
  C  242  1  0.53937000  0.77913200  0.15372400  1
  C  255  1  0.60445200  0.80859300  0.13799600  1
  C  258  1  0.66030800  0.76988200  0.20762900  1
  C  261  1  0.32096100  0.75032400  0.19612800  1
  C  264  1  0.38278500  0.72027700  0.12147600  1
  C  267  1  0.96918800  0.75291300  0.83896600  1
  C  268  1  0.92412200  0.74974100  0.82344400  1
  C  269  1  0.86561400  0.75701300  0.82655400  1
  C  270  1  0.84999000  0.76590200  0.84732400  1
  C  271  1  0.89581200  0.77144000  0.86265700  1
  C  272  1  0.95569400  0.76486300  0.85827400  1
  C  275  1  0.02470600  0.74168000  0.83549800  1
  C  276  1  0.06216200  0.74453200  0.81695000  1
  C  277  1  0.11369600  0.73108000  0.81437300  1
  C  278  1  0.12432500  0.71369300  0.82959900  1
  C  279  1  0.08913200  0.71192500  0.84883700  1
  C  280  1  0.03941900  0.72555400  0.85094200  1
  C  293  1  0.10445500  0.69606900  0.86665000  1
  C  296  1  0.16025700  0.73476800  0.79700600  1
  C  299  1  0.82091400  0.75425600  0.80855700  1
  C  302  1  0.88256600  0.78443600  0.88311700  1
  C  305  1  0.79151400  0.58887800  0.50225000  1
  C  306  1  0.83640600  0.57328400  0.50540400  1
  C  307  1  0.89488400  0.57627100  0.49805100  1
  C  308  1  0.91072000  0.59700400  0.48911600  1
  C  309  1  0.86506200  0.61241600  0.48361600  1
  C  310  1  0.80515400  0.60813000  0.49023200  1
  C  313  1  0.73594300  0.58551600  0.51348500  1
  C  314  1  0.69834000  0.56699500  0.51071100  1
  C  315  1  0.64682800  0.56451600  0.52419000  1
  C  316  1  0.63635800  0.57981000  0.54153000  1
  C  317  1  0.67169300  0.59901600  0.54322000  1
  C  318  1  0.72140400  0.60102100  0.52957600  1
  C  331  1  0.65651000  0.61689700  0.55901700  1
  C  334  1  0.60011700  0.54718600  0.52058300  1
  C  337  1  0.93936400  0.55819400  0.50077700  1
  C  340  1  0.87847200  0.63286300  0.47062200  1
  C  343  1  0.29152900  0.91577400  0.50241100  1
  C  344  1  0.33640500  0.93137700  0.49927700  1
  C  345  1  0.39487600  0.92838400  0.50663500  1
  C  346  1  0.41069900  0.90765600  0.51557300  1
  C  347  1  0.36504700  0.89223000  0.52105100  1
  C  348  1  0.30514700  0.89651600  0.51442500  1
  C  351  1  0.23595800  0.91914100  0.49117600  1
  C  352  1  0.19833700  0.93765400  0.49396700  1
  C  353  1  0.14682200  0.94013600  0.48048800  1
  C  354  1  0.13635200  0.92484800  0.46314500  1
  C  355  1  0.17170300  0.90564600  0.46144000  1
  C  356  1  0.22143400  0.90364200  0.47507500  1
  C  369  1  0.15650700  0.88776600  0.44564700  1
  C  372  1  0.10009800  0.95745800  0.48410400  1
  C  375  1  0.43936800  0.94645800  0.50391800  1
  C  378  1  0.37844800  0.87177600  0.53403200  1
  C  381  1  0.04496000  0.75194200  0.33898400  1
  C  382  1  0.09022100  0.74885300  0.32352500  1
  C  383  1  0.14833300  0.75656100  0.32653800  1
  C  384  1  0.16306900  0.76662900  0.34687800  1
  C  385  1  0.11697800  0.77162200  0.36231200  1
  C  386  1  0.05771400  0.76416000  0.35818400  1
  C  389  1  0.99023200  0.74021000  0.33553000  1
  C  390  1  0.95308500  0.74265000  0.31684600  1
  C  391  1  0.90372600  0.72823700  0.31377200  1
  C  392  1  0.89541200  0.71041400  0.32865800  1
  C  393  1  0.92837400  0.70959600  0.34847200  1
  C  394  1  0.97622200  0.72403100  0.35100300  1
  C  407  1  0.91338400  0.69365500  0.36624000  1
  C  410  1  0.85868800  0.73100600  0.29568400  1
  C  413  1  0.19379700  0.75292400  0.30896600  1
  C  416  1  0.12919000  0.78476900  0.38276600  1
  C  419  1  0.54494200  0.75270500  0.66567600  1
  C  420  1  0.59018200  0.75578500  0.68114700  1
  C  421  1  0.64833600  0.74812400  0.67811800  1
  C  422  1  0.66311200  0.73812300  0.65775300  1
  C  423  1  0.61702400  0.73307000  0.64234200  1
  C  424  1  0.55773900  0.74050400  0.64646900  1
  C  427  1  0.49020000  0.76443000  0.66912700  1
  C  428  1  0.45309800  0.76201300  0.68782500  1
  C  429  1  0.40378100  0.77644200  0.69091400  1
  C  430  1  0.39546900  0.79426300  0.67602500  1
  C  431  1  0.42835300  0.79505200  0.65619000  1
  C  432  1  0.47615400  0.78059700  0.65364600  1
  C  445  1  0.41337100  0.81099200  0.63842100  1
  C  448  1  0.35883500  0.77369600  0.70903700  1
  C  451  1  0.69382200  0.75178100  0.69567800  1
  C  454  1  0.62933300  0.71985600  0.62193800  1
  C  457  1  0.21576700  0.41563000  0.50223900  1
  C  458  1  0.17007200  0.43088000  0.49905800  1
  C  459  1  0.11219500  0.42777500  0.50695400  1
  C  460  1  0.09800900  0.40750500  0.51729100  1
  C  461  1  0.14447900  0.39213300  0.52208400  1
  C  462  1  0.20366600  0.39649100  0.51463100  1
  C  465  1  0.27049600  0.41928800  0.49058500  1
  C  466  1  0.30702200  0.43812700  0.49305100  1
  C  467  1  0.35631800  0.44141800  0.47866500  1
  C  468  1  0.36494400  0.42665100  0.46077000  1
  C  469  1  0.33280300  0.40666000  0.45997300  1
  C  470  1  0.28511700  0.40386000  0.47443400  1
  C  483  1  0.34825000  0.38902800  0.44394700  1
  C  486  1  0.40076200  0.45968200  0.48150800  1
  C  489  1  0.06657600  0.44533900  0.50346900  1
  C  492  1  0.13313800  0.37141800  0.53492800  1
  C  495  1  0.71576400  0.08902200  0.50240200  1
  C  496  1  0.67008400  0.07376600  0.50557300  1
  C  497  1  0.61221200  0.07687700  0.49767300  1
  C  498  1  0.59803600  0.09714400  0.48732900  1
  C  499  1  0.64450600  0.11252300  0.48255200  1
  C  500  1  0.70368600  0.10816400  0.49001300  1
  C  503  1  0.77047800  0.08536700  0.51406500  1
  C  504  1  0.80706800  0.06654500  0.51158300  1
  C  505  1  0.85637000  0.06326700  0.52597100  1
  C  506  1  0.86496400  0.07803300  0.54386800  1
  C  507  1  0.83274700  0.09800700  0.54468100  1
  C  508  1  0.78503000  0.10078500  0.53022900  1
  C  521  1  0.84817400  0.11565000  0.56069500  1
  C  524  1  0.90091000  0.04503900  0.52312000  1
  C  527  1  0.56658600  0.05931400  0.50115300  1
  C  530  1  0.63317500  0.13325200  0.46973000  1
  C  533  1  0.96640600  0.25246500  0.66574900  1
  C  534  1  0.92045200  0.25586600  0.68083300  1
  C  535  1  0.86267000  0.24789400  0.67770200  1
  C  536  1  0.84882200  0.23719800  0.65758100  1
  C  537  1  0.89541000  0.23257700  0.64219200  1
  C  538  1  0.95460600  0.23997000  0.64666400  1
  C  541  1  0.02112900  0.26407500  0.66946900  1
  C  542  1  0.05767000  0.26146600  0.68828400  1
  C  543  1  0.10721400  0.27573700  0.69157400  1
  C  544  1  0.11605300  0.29364900  0.67684500  1
  C  545  1  0.08382200  0.29457600  0.65687600  1
  C  546  1  0.03593600  0.28021100  0.65406100  1
  C  559  1  0.09937200  0.31062500  0.63927800  1
  C  562  1  0.15170600  0.27275700  0.70979900  1
  C  565  1  0.81707200  0.25127200  0.69529900  1
  C  568  1  0.88431600  0.22026200  0.62115400  1
  C  571  1  0.46642600  0.25228600  0.33893700  1
  C  572  1  0.42063600  0.24899700  0.32375200  1
  C  573  1  0.36269400  0.25679900  0.32692200  1
  C  574  1  0.34854100  0.26715700  0.34718700  1
  C  575  1  0.39505900  0.27195800  0.36254100  1
  C  576  1  0.45432800  0.26463700  0.35809700  1
  C  579  1  0.52120000  0.24068400  0.33522900  1
  C  580  1  0.55770800  0.24325900  0.31639900  1
  C  581  1  0.60715600  0.22894900  0.31307600  1
  C  582  1  0.61595000  0.21102500  0.32779700  1
  C  583  1  0.58379800  0.21012900  0.34778500  1
  C  584  1  0.53599600  0.22453000  0.35062400  1
  C  597  1  0.59931700  0.19406400  0.36537600  1
  C  600  1  0.65157200  0.23189400  0.29481900  1
  C  603  1  0.31705300  0.25329400  0.30937100  1
  C  606  1  0.38375700  0.28461700  0.38336800  1
  C  609  1  0.04898200  0.01831900  0.00071300  1
  C  610  1  0.06466800  0.99644500  0.00401800  1
  C  611  1  0.02146500  0.97982500  0.00556500  1
  C  612  1  0.96031600  0.98528700  0.00331400  1
  C  613  1  0.94401700  0.00747500  0.00017100  1
  C  615  1  0.98856600  0.02358100  0.99891700  1
  C  617  1  0.04139900  0.95721700  0.01027200  1
  C  621  1  0.88185000  0.01508400  0.99793600  1
  C  629  1  0.54899800  0.48633800  0.00396500  1
  C  630  1  0.56468000  0.50820700  0.00061800  1
  C  631  1  0.52147600  0.52482100  0.99905200  1
  C  632  1  0.46033400  0.51936600  0.00134700  1
  C  633  1  0.44403700  0.49718400  0.00453300  1
  C  635  1  0.48858600  0.48107800  0.00579300  1
  C  637  1  0.54139400  0.54741700  0.99426700  1
  C  641  1  0.38187400  0.48958200  0.00681000  1
  C  649  1  0.29953200  0.25343700  0.76844300  1
  C  650  1  0.31501900  0.25001300  0.74656800  1
  C  651  1  0.27166900  0.24845400  0.73000400  1
  C  652  1  0.21058900  0.25080700  0.73552400  1
  C  653  1  0.19448300  0.25402800  0.75772100  1
  C  655  1  0.23917200  0.25529600  0.77377100  1
  C  657  1  0.29135800  0.24364400  0.70738900  1
  C  661  1  0.13239300  0.25634700  0.76538600  1
  C  669  1  0.79953000  0.25119900  0.23620100  1
  C  670  1  0.81506600  0.25455100  0.25808300  1
  C  671  1  0.77174600  0.25611600  0.27465500  1
  C  672  1  0.71064400  0.25382900  0.26913800  1
  C  673  1  0.69448900  0.25067500  0.24693800  1
  C  675  1  0.73915300  0.24940200  0.23087800  1
  C  677  1  0.79149000  0.26085900  0.29727800  1
  C  681  1  0.63237400  0.24842900  0.23927700  1
  C  689  1  0.96040600  0.48570700  0.00156300  1
  C  690  1  0.95376600  0.50022500  0.01905100  1
  C  691  1  0.99432200  0.51739100  0.02273900  1
  C  692  1  0.04260800  0.52036300  0.00803900  1
  C  693  1  0.05026300  0.50550800  0.99045800  1
  C  695  1  0.00900600  0.48845600  0.98749300  1
  C  697  1  0.98588200  0.53134500  0.04229500  1
  C  701  1  0.09967600  0.50692500  0.97451200  1
  C  709  1  0.46038200  0.01894300  0.00308500  1
  C  710  1  0.45380000  0.00444300  0.98558000  1
  C  711  1  0.49437400  0.98728300  0.98188900  1
  C  712  1  0.54261400  0.98429500  0.99660700  1
  C  713  1  0.55019800  0.99912700  0.01421100  1
  C  715  1  0.50892400  0.01617500  0.01717800  1
  C  717  1  0.48602200  0.97335800  0.96230800  1
  C  721  1  0.59955600  0.99769400  0.03017900  1
  C  729  1  0.71103200  0.25157200  0.76887000  1
  C  730  1  0.70413800  0.26899600  0.75429400  1
  C  731  1  0.74465000  0.27271300  0.73711800  1
  C  732  1  0.79316800  0.25810900  0.73418900  1
  C  733  1  0.80104800  0.24058100  0.74909600  1
  C  735  1  0.75982800  0.23758500  0.76615700  1
  C  737  1  0.73599600  0.29221600  0.72310700  1
  C  741  1  0.85065600  0.22471300  0.74771800  1
  C  749  1  0.21105900  0.25308100  0.23577000  1
  C  750  1  0.20427600  0.23563500  0.25033100  1
  C  751  1  0.24480400  0.23194200  0.26750600  1
  C  752  1  0.29321400  0.24659100  0.27045000  1
  C  753  1  0.30097300  0.26414400  0.25556800  1
  C  755  1  0.25974000  0.26711800  0.23850800  1
  C  757  1  0.23626400  0.21241400  0.28149100  1
  C  761  1  0.35046500  0.28005800  0.25696700  1
  C  769  1  0.71084800  0.74989400  0.23664500  1
  C  770  1  0.69527600  0.75334400  0.25850700  1
  C  771  1  0.73855600  0.75493300  0.27509400  1
  C  772  1  0.79965400  0.75254000  0.26961400  1
  C  773  1  0.81584000  0.74923200  0.24743900  1
  C  775  1  0.77122500  0.74798000  0.23136100  1
  C  777  1  0.71876400  0.75986500  0.29767100  1
  C  781  1  0.87794600  0.74683100  0.23981200  1
  C  789  1  0.21087200  0.75479500  0.76803100  1
  C  790  1  0.19525500  0.75141800  0.74616100  1
  C  791  1  0.23851700  0.74982600  0.72956800  1
  C  792  1  0.29963400  0.75215000  0.73504600  1
  C  793  1  0.31586000  0.75539200  0.75722800  1
  C  795  1  0.27126300  0.75664400  0.77331200  1
  C  797  1  0.21868000  0.74496300  0.70698100  1
  C  801  1  0.37798700  0.75771900  0.76485300  1
  C  809  1  0.29958600  0.75261700  0.23538000  1
  C  810  1  0.30612300  0.73515000  0.24992900  1
  C  811  1  0.26550200  0.73150700  0.26708500  1
  C  812  1  0.21727000  0.74623900  0.27002800  1
  C  813  1  0.20971000  0.76379300  0.25513400  1
  C  815  1  0.25100900  0.76670700  0.23808500  1
  C  817  1  0.27379200  0.71195300  0.28105500  1
  C  821  1  0.16036900  0.77977300  0.25651500  1
  C  829  1  0.79955600  0.75206100  0.76929200  1
  C  830  1  0.80601800  0.76954500  0.75475900  1
  C  831  1  0.76540200  0.77317300  0.73759900  1
  C  832  1  0.71725400  0.75840700  0.73463600  1
  C  833  1  0.70977800  0.74083100  0.74951000  1
  C  835  1  0.75107700  0.73793100  0.76656200  1
  C  837  1  0.77359400  0.79274900  0.72365200  1
  C  841  1  0.66052500  0.72481800  0.74810800  1
  C  849  1  0.54912200  0.51823700  0.50065800  1
  C  850  1  0.56464000  0.49634900  0.50397100  1
  C  851  1  0.52129400  0.47978900  0.50556200  1
  C  852  1  0.46018800  0.48532700  0.50335200  1
  C  853  1  0.44406000  0.50753200  0.50021200  1
  C  855  1  0.48874500  0.52357900  0.49892100  1
  C  857  1  0.54102000  0.45715400  0.51026300  1
  C  861  1  0.38194900  0.51521500  0.49801800  1
  C  869  1  0.04913800  0.98641700  0.50402300  1
  C  870  1  0.06465100  0.00830100  0.50066600  1
  C  871  1  0.02130100  0.02485800  0.49905600  1
  C  872  1  0.96020400  0.01932400  0.50131500  1
  C  873  1  0.94407900  0.99712500  0.50450000  1
  C  875  1  0.98876700  0.98107900  0.50579500  1
  C  877  1  0.04101100  0.04747700  0.49427600  1
  C  881  1  0.88197600  0.98944900  0.50674000  1
  C  889  1  0.46044000  0.98573300  0.50160100  1
  C  890  1  0.45375200  0.00033100  0.51902000  1
  C  891  1  0.49431000  0.01751100  0.52265300  1
  C  892  1  0.54266000  0.02042000  0.50796800  1
  C  893  1  0.55033400  0.00549500  0.49044700  1
  C  895  1  0.50907000  0.98843300  0.48753200  1
  C  897  1  0.48585800  0.03154200  0.54215300  1
  C  901  1  0.59976600  0.00685000  0.47450400  1
  C  909  1  0.96041600  0.51891500  0.50304700  1
  C  910  1  0.95378600  0.50433400  0.48561100  1
  C  911  1  0.99436200  0.48716000  0.48197600  1
  C  912  1  0.04266800  0.48423900  0.49668000  1
  C  913  1  0.05027000  0.49914200  0.51422300  1
  C  915  1  0.00899100  0.51619900  0.51713600  1
  C  917  1  0.98599700  0.47315700  0.46245200  1
  C  921  1  0.09965100  0.49777100  0.53018500  1
  C  929  1  0.42078000  0.18039100  0.90377000  1
  C  930  1  0.44489000  0.15938300  0.90549400  1
  C  931  1  0.42156300  0.14379300  0.92014300  1
  C  932  1  0.37312700  0.14961800  0.93390000  1
  C  933  1  0.34844300  0.17088600  0.93227100  1
  C  935  1  0.37259300  0.18586100  0.91723400  1
  C  937  1  0.44696400  0.12144000  0.92011200  1
  C  941  1  0.29787700  0.17868800  0.94561500  1
  C  949  1  0.92073000  0.32422700  0.10087400  1
  C  950  1  0.94489700  0.34522700  0.09914100  1
  C  951  1  0.92155700  0.36082500  0.08450400  1
  C  952  1  0.87309800  0.35501200  0.07075500  1
  C  953  1  0.84838500  0.33374900  0.07238300  1
  C  955  1  0.87251600  0.31876900  0.08741800  1
  C  957  1  0.94696000  0.38317800  0.08454600  1
  C  961  1  0.79779400  0.32595800  0.05904400  1
  C  969  1  0.66984000  0.35113900  0.93036500  1
  C  970  1  0.69404700  0.34947000  0.90936700  1
  C  971  1  0.67095400  0.33479500  0.89375800  1
  C  972  1  0.62267900  0.32095100  0.89955000  1
  C  973  1  0.59789300  0.32252400  0.92080600  1
  C  975  1  0.62179900  0.33759200  0.93580300  1
  C  977  1  0.69645200  0.33486600  0.87141900  1
  C  981  1  0.54749500  0.30907800  0.92858300  1
  C  989  1  0.16983400  0.15351400  0.07431900  1
  C  990  1  0.19406300  0.15517700  0.09531400  1
  C  991  1  0.17094800  0.16983500  0.11093900  1
  C  992  1  0.12267300  0.18368700  0.10515600  1
  C  993  1  0.09787700  0.18211700  0.08390000  1
  C  995  1  0.12177800  0.16705700  0.06889500  1
  C  997  1  0.19639600  0.16971700  0.13328500  1
  C  1001  1  0.04745300  0.19555500  0.07613400  1
  C  1009  1  0.59353600  0.82361300  0.10154000  1
  C  1010  1  0.57346800  0.84526900  0.10140900  1
  C  1011  1  0.59696900  0.86093200  0.08688500  1
  C  1012  1  0.64165000  0.85461300  0.07171100  1
  C  1013  1  0.66250600  0.83273500  0.07179000  1
  C  1015  1  0.63820600  0.81766000  0.08670100  1
  C  1017  1  0.57550800  0.88378400  0.08836400  1
  C  1021  1  0.70888900  0.82437500  0.05682200  1
  C  1029  1  0.09361600  0.68108000  0.90312500  1
  C  1030  1  0.07351300  0.65943000  0.90325300  1
  C  1031  1  0.09701200  0.64375900  0.91776800  1
  C  1032  1  0.14169200  0.65007000  0.93294600  1
  C  1033  1  0.16256900  0.67194300  0.93287300  1
  C  1035  1  0.13829200  0.68702500  0.91796600  1
  C  1037  1  0.07555100  0.62090700  0.91627500  1
  C  1041  1  0.20896100  0.68029300  0.94784500  1
  C  1049  1  0.34100000  0.65325300  0.07387800  1
  C  1050  1  0.31714200  0.65483800  0.09494600  1
  C  1051  1  0.34039900  0.66946200  0.11057000  1
  C  1052  1  0.38865600  0.68330400  0.10475900  1
  C  1053  1  0.41325600  0.68177000  0.08347200  1
  C  1055  1  0.38910800  0.66677700  0.06844700  1
  C  1057  1  0.31499700  0.66937300  0.13292200  1
  C  1061  1  0.46365400  0.69521500  0.07569200  1
  C  1069  1  0.84111600  0.85141500  0.93077200  1
  C  1070  1  0.81731000  0.84986700  0.90969200  1
  C  1071  1  0.84057000  0.83525700  0.89405400  1
  C  1072  1  0.88875100  0.82137700  0.89986500  1
  C  1073  1  0.91330200  0.82287800  0.92116200  1
  C  1075  1  0.88916600  0.83786100  0.93619900  1
  C  1077  1  0.81527400  0.83541900  0.87168600  1
  C  1081  1  0.96365200  0.80940900  0.92894400  1
  C  1089  1  0.92035000  0.68037300  0.40354800  1
  C  1090  1  0.94396200  0.65926600  0.40512600  1
  C  1091  1  0.92061100  0.64368600  0.41977700  1
  C  1092  1  0.87250300  0.64957800  0.43365600  1
  C  1093  1  0.84814600  0.67090500  0.43212700  1
  C  1095  1  0.87238400  0.68588500  0.41710800  1
  C  1097  1  0.94572800  0.62129000  0.41966000  1
  C  1101  1  0.79789000  0.67877100  0.44559500  1
  C  1109  1  0.42022800  0.82422500  0.60108900  1
  C  1110  1  0.44387400  0.84532500  0.59951800  1
  C  1111  1  0.42054100  0.86091700  0.58487500  1
  C  1112  1  0.37244300  0.85503600  0.57098600  1
  C  1113  1  0.34806900  0.83371100  0.57250000  1
  C  1115  1  0.37227900  0.81872300  0.58751800  1
  C  1117  1  0.44565800  0.88331200  0.58501100  1
  C  1121  1  0.29782100  0.82585500  0.55902300  1
  C  1129  1  0.16753400  0.85126100  0.43077600  1
  C  1130  1  0.18777500  0.85099500  0.40914500  1
  C  1131  1  0.16424000  0.83642900  0.39353100  1
  C  1132  1  0.11935500  0.82135100  0.39987900  1
  C  1133  1  0.09834500  0.82155600  0.42173400  1
  C  1135  1  0.12267900  0.83650700  0.43676000  1
  C  1137  1  0.18587300  0.83775600  0.37069100  1
  C  1141  1  0.05174500  0.80669000  0.43011200  1
  C  1149  1  0.66756400  0.65339700  0.57389900  1
  C  1150  1  0.68791400  0.65368500  0.59551500  1
  C  1151  1  0.66436200  0.66823800  0.61114300  1
  C  1152  1  0.61939600  0.68329200  0.60481400  1
  C  1153  1  0.59828600  0.68306300  0.58297200  1
  C  1155  1  0.62260800  0.66811700  0.56793800  1
  C  1157  1  0.68604400  0.66690400  0.63397500  1
  C  1161  1  0.55158000  0.69789500  0.57461300  1
  C  1169  1  0.09398600  0.32383400  0.60189800  1
  C  1170  1  0.07207600  0.34524200  0.60113300  1
  C  1171  1  0.09509500  0.36087200  0.58647400  1
  C  1172  1  0.14132500  0.35478900  0.57185500  1
  C  1173  1  0.16408200  0.33318800  0.57256400  1
  C  1175  1  0.13999000  0.31811200  0.58751600  1
  C  1177  1  0.07140400  0.38345800  0.58718600  1
  C  1181  1  0.21230100  0.32512700  0.55822800  1
  C  1189  1  0.59409100  0.18088600  0.40277400  1
  C  1190  1  0.57213900  0.15948300  0.40353400  1
  C  1191  1  0.59513400  0.14384000  0.41818700  1
  C  1192  1  0.64136300  0.14990800  0.43281200  1
  C  1193  1  0.66415200  0.17150400  0.43211100  1
  C  1195  1  0.64009000  0.18659200  0.41716400  1
  C  1197  1  0.57142300  0.12125800  0.41745800  1
  C  1201  1  0.71238200  0.17954900  0.44645300  1
  C  1209  1  0.84288900  0.15307800  0.57374100  1
  C  1210  1  0.82053300  0.15404800  0.59507600  1
  C  1211  1  0.84362300  0.16871500  0.61068100  1
  C  1212  1  0.89030000  0.18314200  0.60462900  1
  C  1213  1  0.91358100  0.18220700  0.58311300  1
  C  1215  1  0.88942300  0.16724600  0.56806200  1
  C  1217  1  0.81960200  0.16820400  0.63321700  1
  C  1221  1  0.96247800  0.19628400  0.57514000  1
  C  1229  1  0.34314700  0.35160600  0.43087300  1
  C  1230  1  0.32090800  0.35067600  0.40951700  1
  C  1231  1  0.34410300  0.33605000  0.39389200  1
  C  1232  1  0.39081500  0.32162500  0.39993600  1
  C  1233  1  0.41390100  0.32250000  0.42148200  1
  C  1235  1  0.38964600  0.33742300  0.43655100  1
  C  1237  1  0.32011800  0.33660300  0.37134500  1
  C  1241  1  0.46266200  0.30837700  0.42948100  1
  H  7  1  0.32624400  0.05955900  0.01409800  1
  H  16  1  0.24981500  0.11394700  0.03201300  1
  H  19  1  0.21898500  0.11856600  0.98839000  1
  H  20  1  0.26629700  0.13593300  0.97849200  1
  H  21  1  0.19931900  0.03702200  0.99687600  1
  H  22  1  0.24540600  0.05392000  0.98549200  1
  H  23  1  0.06941300  0.06350700  0.05720500  1
  H  24  1  0.08362000  0.08686500  0.06819700  1
  H  25  1  0.48385500  0.11648100  0.98536500  1
  H  26  1  0.50056800  0.09171600  0.99123200  1
  H  28  1  0.11084100  0.12179700  0.05578400  1
  H  29  1  0.15950500  0.11027900  0.07533200  1
  H  31  1  0.05643300  0.05581800  0.02171800  1
  H  32  1  0.10340500  0.03619100  0.03397100  1
  H  34  1  0.46327000  0.05708300  0.98548500  1
  H  35  1  0.47087600  0.06302200  0.01359300  1
  H  37  1  0.42536900  0.13537000  0.96788800  1
  H  38  1  0.36546600  0.14692400  0.98069200  1
  H  45  1  0.82625600  0.44510000  0.99058000  1
  H  54  1  0.74985200  0.39071700  0.97264600  1
  H  57  1  0.71897000  0.38608600  0.01626000  1
  H  58  1  0.76626400  0.36871800  0.02616700  1
  H  59  1  0.69932000  0.46762400  0.00781200  1
  H  60  1  0.74540400  0.45072300  0.01919100  1
  H  61  1  0.56925200  0.44111700  0.94749700  1
  H  62  1  0.58357700  0.41777700  0.93649700  1
  H  63  1  0.98384800  0.38821400  0.01938800  1
  H  64  1  0.00067600  0.41296200  0.01358200  1
  H  66  1  0.61085000  0.38285400  0.94889900  1
  H  67  1  0.65948400  0.39437300  0.92934000  1
  H  69  1  0.55642400  0.44881700  0.98298900  1
  H  70  1  0.60333600  0.46844400  0.97070600  1
  H  72  1  0.96318300  0.44759500  0.01923200  1
  H  73  1  0.97096000  0.44161500  0.99113900  1
  H  75  1  0.92533200  0.36925500  0.03676100  1
  H  76  1  0.86540200  0.35772500  0.02396100  1
  H  83  1  0.57717500  0.24040100  0.80959100  1
  H  92  1  0.50083800  0.22257800  0.86402400  1
  H  95  1  0.46934000  0.26615600  0.86841400  1
  H  96  1  0.51636000  0.27627800  0.88574600  1
  H  97  1  0.45019200  0.25715900  0.78694100  1
  H  98  1  0.49603600  0.26879600  0.80378500  1
  H  99  1  0.32049800  0.19700900  0.81369800  1
  H  100  1  0.33497300  0.18608200  0.83706000  1
  H  101  1  0.73462100  0.27050400  0.86610900  1
  H  102  1  0.75109200  0.26417500  0.84148500  1
  H  104  1  0.36196100  0.19869600  0.87192500  1
  H  105  1  0.41086000  0.17914900  0.86053800  1
  H  107  1  0.30725700  0.23248800  0.80594600  1
  H  108  1  0.35420100  0.22022700  0.78631300  1
  H  110  1  0.71339900  0.26945500  0.80688800  1
  H  111  1  0.72185000  0.24141900  0.81301000  1
  H  113  1  0.67529200  0.28696100  0.88544500  1
  H  114  1  0.61529300  0.27412300  0.89681900  1
  H  121  1  0.07709300  0.26421100  0.19508700  1
  H  130  1  0.00079200  0.28205500  0.14062100  1
  H  133  1  0.96946600  0.23851600  0.13616000  1
  H  134  1  0.01665300  0.22851000  0.11881300  1
  H  135  1  0.95014500  0.24746000  0.21770300  1
  H  136  1  0.99598400  0.23580600  0.20088700  1
  H  137  1  0.82081200  0.30771200  0.19103700  1
  H  138  1  0.83519400  0.31862400  0.16764800  1
  H  139  1  0.23429900  0.23492800  0.13829300  1
  H  140  1  0.25107300  0.24086600  0.16303500  1
  H  142  1  0.86193200  0.30597800  0.13275700  1
  H  143  1  0.91095200  0.32550100  0.14411300  1
  H  145  1  0.80729800  0.27223100  0.19875000  1
  H  146  1  0.85435600  0.28441600  0.21839300  1
  H  148  1  0.21370100  0.23533400  0.19768400  1
  H  149  1  0.22169100  0.26340400  0.19164700  1
  H  151  1  0.17554900  0.21754200  0.11943500  1
  H  152  1  0.11590400  0.23047300  0.10783900  1
  H  159  1  0.67976200  0.94470900  0.99051800  1
  H  168  1  0.75784800  0.89049300  0.97269000  1
  H  171  1  0.78921000  0.88584500  0.01545100  1
  H  172  1  0.74256200  0.86841800  0.02568000  1
  H  173  1  0.80880800  0.96731300  0.00884100  1
  H  174  1  0.76274500  0.95006900  0.01974900  1
  H  175  1  0.91890000  0.94570800  0.94230700  1
  H  176  1  0.90863200  0.92179500  0.93182100  1
  H  177  1  0.52492400  0.88803400  0.02199500  1
  H  178  1  0.50739400  0.91293400  0.01712100  1
  H  180  1  0.89544500  0.88589500  0.94559100  1
  H  181  1  0.83861800  0.89504700  0.92787800  1
  H  183  1  0.94389300  0.95353500  0.97587600  1
  H  184  1  0.88721200  0.97252100  0.97076100  1
  H  186  1  0.54529300  0.94827600  0.01880900  1
  H  187  1  0.53301600  0.93861000  0.99205200  1
  H  189  1  0.58507600  0.86992600  0.03946200  1
  H  190  1  0.64153100  0.85776300  0.02503900  1
  H  197  1  0.17978200  0.55993900  0.01411700  1
  H  206  1  0.25776100  0.61415300  0.03197100  1
  H  209  1  0.28922500  0.61882300  0.98921700  1
  H  210  1  0.24257800  0.63624600  0.97898100  1
  H  211  1  0.30886600  0.53736300  0.99579600  1
  H  212  1  0.26280000  0.55460200  0.98488500  1
  H  213  1  0.41940100  0.55904100  0.06228800  1
  H  214  1  0.40877800  0.58291800  0.07278600  1
  H  215  1  0.02498000  0.61659800  0.98263400  1
  H  216  1  0.00733800  0.59171100  0.98743200  1
  H  218  1  0.39538500  0.61880000  0.05903300  1
  H  219  1  0.33865100  0.60962000  0.07677300  1
  H  221  1  0.44405000  0.55125700  0.02866400  1
  H  222  1  0.38757800  0.53222300  0.03393000  1
  H  224  1  0.04536100  0.55636400  0.98580100  1
  H  225  1  0.03299600  0.56605500  0.01254300  1
  H  227  1  0.08510000  0.63473200  0.96518200  1
  H  228  1  0.14153800  0.64689500  0.97961400  1
  H  235  1  0.43412000  0.76350100  0.19496500  1
  H  244  1  0.51170700  0.78141400  0.14075400  1
  H  247  1  0.54221200  0.73788900  0.13612900  1
  H  248  1  0.49519200  0.72794500  0.11868200  1
  H  249  1  0.56027700  0.74625900  0.21780400  1
  H  250  1  0.51481800  0.73477900  0.20070100  1
  H  251  1  0.68915200  0.80707000  0.19233800  1
  H  252  1  0.67531400  0.81820700  0.16901600  1
  H  253  1  0.27701400  0.73421000  0.13795900  1
  H  254  1  0.26021000  0.74033000  0.16261100  1
  H  256  1  0.65095700  0.80576100  0.13388300  1
  H  257  1  0.60030000  0.82491800  0.14489400  1
  H  259  1  0.70336400  0.77149900  0.19963100  1
  H  260  1  0.65542300  0.78324400  0.21924800  1
  H  262  1  0.29730700  0.73483000  0.19730200  1
  H  263  1  0.28943000  0.76290000  0.19122900  1
  H  265  1  0.33618000  0.71727500  0.11892300  1
  H  266  1  0.39619800  0.73013200  0.10754200  1
  H  273  1  0.93421000  0.74121000  0.80967100  1
  H  282  1  0.01176000  0.72326700  0.86391300  1
  H  285  1  0.04209400  0.76674500  0.86862300  1
  H  286  1  0.99490400  0.77657000  0.88608400  1
  H  287  1  0.06034200  0.75845100  0.78687100  1
  H  288  1  0.01489000  0.76994600  0.80395200  1
  H  289  1  0.18880500  0.69752400  0.81222600  1
  H  290  1  0.17505100  0.68639400  0.83557500  1
  H  291  1  0.77740000  0.76968000  0.86695800  1
  H  292  1  0.76025800  0.76393900  0.84219300  1
  H  294  1  0.15099500  0.69886600  0.87073300  1
  H  295  1  0.10018000  0.67974300  0.85976200  1
  H  297  1  0.20332500  0.73309600  0.80498200  1
  H  298  1  0.15525700  0.72143700  0.78535500  1
  H  300  1  0.79701000  0.76970200  0.80744600  1
  H  301  1  0.78959800  0.74159900  0.81343200  1
  H  303  1  0.83593900  0.78756900  0.88549000  1
  H  304  1  0.89553800  0.77459100  0.89711600  1
  H  311  1  0.82619200  0.55953200  0.51394800  1
  H  320  1  0.74916400  0.61397100  0.53181400  1
  H  323  1  0.71883700  0.61856900  0.48833100  1
  H  324  1  0.76614000  0.63592900  0.47840600  1
  H  325  1  0.69964000  0.53689500  0.49669900  1
  H  326  1  0.74530700  0.55392600  0.48525800  1
  H  327  1  0.57185000  0.56254800  0.55779500  1
  H  328  1  0.58565000  0.58593200  0.56882300  1
  H  329  1  0.98360000  0.61646900  0.48516700  1
  H  330  1  0.00039700  0.59169300  0.49096900  1
  H  332  1  0.61000800  0.62102200  0.55619200  1
  H  333  1  0.66069300  0.61005500  0.57536500  1
  H  335  1  0.55711800  0.55520600  0.52228700  1
  H  336  1  0.60513500  0.53555300  0.53392800  1
  H  338  1  0.96310800  0.55702100  0.48530400  1
  H  339  1  0.97085600  0.56303700  0.51338900  1
  H  341  1  0.92511600  0.63521600  0.46751300  1
  H  342  1  0.86554000  0.64687200  0.48045700  1
  H  349  1  0.32620000  0.94512700  0.49072800  1
  H  358  1  0.24919600  0.89069300  0.47283400  1
  H  361  1  0.21883300  0.88607100  0.51630300  1
  H  362  1  0.26612500  0.86871100  0.52623100  1
  H  363  1  0.19963800  0.96774500  0.50799500  1
  H  364  1  0.24529900  0.95070800  0.51942800  1
  H  365  1  0.07167800  0.94208400  0.44690200  1
  H  366  1  0.08561800  0.91872300  0.43586200  1
  H  367  1  0.48358800  0.88821600  0.51956000  1
  H  368  1  0.50050600  0.91298100  0.51383400  1
  H  370  1  0.11000500  0.88364200  0.44847200  1
  H  371  1  0.16069400  0.89460500  0.42929700  1
  H  373  1  0.05710500  0.94942800  0.48242200  1
  H  374  1  0.10506200  0.96908200  0.47074800  1
  H  376  1  0.46302400  0.94765300  0.51940800  1
  H  377  1  0.47093400  0.94159800  0.49133800  1
  H  379  1  0.42508700  0.86941700  0.53714000  1
  H  380  1  0.36552000  0.85777300  0.52418500  1
  H  387  1  0.08059000  0.74003900  0.30988200  1
  H  396  1  0.00330600  0.72219700  0.36421000  1
  H  399  1  0.97136200  0.76498500  0.36874100  1
  H  400  1  0.01785200  0.77544800  0.38606700  1
  H  401  1  0.95122800  0.75811400  0.28743300  1
  H  402  1  0.99734200  0.76915300  0.30458100  1
  H  403  1  0.84066600  0.69179400  0.30949800  1
  H  404  1  0.85187300  0.68129000  0.33333333  1
  H  405  1  0.23612100  0.77306200  0.36576800  1
  H  406  1  0.25286100  0.76758700  0.34098200  1
  H  408  1  0.86575200  0.69513000  0.36914300  1
  H  409  1  0.92237000  0.67736200  0.35991900  1
  H  411  1  0.81595200  0.72550600  0.30182600  1
  H  412  1  0.87184200  0.71993700  0.28264100  1
  H  414  1  0.21406300  0.76878600  0.30584900  1
  H  415  1  0.22751300  0.74214700  0.31562800  1
  H  417  1  0.17537400  0.78877400  0.38495700  1
  H  418  1  0.11817500  0.77456600  0.39673200  1
  H  425  1  0.58052600  0.76458300  0.69479700  1
  H  434  1  0.50322200  0.78242900  0.64043400  1
  H  437  1  0.47141800  0.73966200  0.63587800  1
  H  438  1  0.51802300  0.72926900  0.61854500  1
  H  439  1  0.45115600  0.74650300  0.71722100  1
  H  440  1  0.49726500  0.73546500  0.70007900  1
  H  441  1  0.34125900  0.81295000  0.69526500  1
  H  442  1  0.35228300  0.82343300  0.67138300  1
  H  443  1  0.73591600  0.73221700  0.63867800  1
  H  444  1  0.75287600  0.73732600  0.66356300  1
  H  446  1  0.36571100  0.80956400  0.63555800  1
  H  447  1  0.42252300  0.82728100  0.64471700  1
  H  449  1  0.31611600  0.77929500  0.70297000  1
  H  450  1  0.37224400  0.78469100  0.72210700  1
  H  452  1  0.71425400  0.73594000  0.69875200  1
  H  453  1  0.72741000  0.76261800  0.68902900  1
  H  455  1  0.67552200  0.71578300  0.61986100  1
  H  456  1  0.61856000  0.73003500  0.60792900  1
  H  463  1  0.17935300  0.44451500  0.49018300  1
  H  472  1  0.25850300  0.39052300  0.47259100  1
  H  475  1  0.29049100  0.38647800  0.51561700  1
  H  476  1  0.24498700  0.36915400  0.52659400  1
  H  477  1  0.30843100  0.46746600  0.50873200  1
  H  478  1  0.26239900  0.45017200  0.51958700  1
  H  479  1  0.41793700  0.44627500  0.44204400  1
  H  480  1  0.40769700  0.42241100  0.43143300  1
  H  481  1  0.02518300  0.38922000  0.52589000  1
  H  482  1  0.00828000  0.41352700  0.51873500  1
  H  484  1  0.39613500  0.38655600  0.44508200  1
  H  485  1  0.33799800  0.39524500  0.42771600  1
  H  487  1  0.44353100  0.45391600  0.47563900  1
  H  488  1  0.38660500  0.47287900  0.47079900  1
  H  490  1  0.04690000  0.44853200  0.51941300  1
  H  491  1  0.03245700  0.43863500  0.49288700  1
  H  493  1  0.08699600  0.36826600  0.53812100  1
  H  494  1  0.14693100  0.35768800  0.52484900  1
  H  501  1  0.67935500  0.06013500  0.51445400  1
  H  510  1  0.75838600  0.11411500  0.53207100  1
  H  513  1  0.79051200  0.11817800  0.48905000  1
  H  514  1  0.74503000  0.13550000  0.47805800  1
  H  515  1  0.80849000  0.03720500  0.49590900  1
  H  516  1  0.76244600  0.05449200  0.48505200  1
  H  517  1  0.91844900  0.05848100  0.56255600  1
  H  518  1  0.90783400  0.08231200  0.57317500  1
  H  519  1  0.52522000  0.11538100  0.47862400  1
  H  520  1  0.50827000  0.09110300  0.48582400  1
  H  522  1  0.89604400  0.11815000  0.55953700  1
  H  523  1  0.83800000  0.10943500  0.57693300  1
  H  525  1  0.94369000  0.05087800  0.52890400  1
  H  526  1  0.88697800  0.03186700  0.53390200  1
  H  528  1  0.54696000  0.05610700  0.48520100  1
  H  529  1  0.53243200  0.06602600  0.51171300  1
  H  531  1  0.58704800  0.13642500  0.46655500  1
  H  532  1  0.64701400  0.14697200  0.47982100  1
  H  539  1  0.92958600  0.26482900  0.69442200  1
  H  548  1  0.00934100  0.28210300  0.64072400  1
  H  551  1  0.04167300  0.23882000  0.63697000  1
  H  552  1  0.99679000  0.22739500  0.61974800  1
  H  553  1  0.05868300  0.24583700  0.71762000  1
  H  554  1  0.01233500  0.23511500  0.70034800  1
  H  555  1  0.16988200  0.31217300  0.69642300  1
  H  556  1  0.15936000  0.32287600  0.67262300  1
  H  557  1  0.77671600  0.22556600  0.64046800  1
  H  558  1  0.75910200  0.23537500  0.66373200  1
  H  560  1  0.14721800  0.30940500  0.63674500  1
  H  561  1  0.08940100  0.32685400  0.64555400  1
  H  563  1  0.19458000  0.27844000  0.70395700  1
  H  564  1  0.13797700  0.28356600  0.72297700  1
  H  566  1  0.79788200  0.23526600  0.69858600  1
  H  567  1  0.78259200  0.26168700  0.68857800  1
  H  569  1  0.83824400  0.21799600  0.61725500  1
  H  570  1  0.90045600  0.23032000  0.60774200  1
  H  577  1  0.42991400  0.24012800  0.31011300  1
  H  586  1  0.50939700  0.22262500  0.36395800  1
  H  589  1  0.54125400  0.26577100  0.36797800  1
  H  590  1  0.49587600  0.27676400  0.38532800  1
  H  591  1  0.55882000  0.25893000  0.28708000  1
  H  592  1  0.51264400  0.26970500  0.30437400  1
  H  593  1  0.66921700  0.19243200  0.30813300  1
  H  594  1  0.65884000  0.18174000  0.33196900  1
  H  595  1  0.27575400  0.27636900  0.36524600  1
  H  596  1  0.25875900  0.26854400  0.34117000  1
  H  598  1  0.64719000  0.19522000  0.36786300  1
  H  599  1  0.58914200  0.17784600  0.35911400  1
  H  601  1  0.69441400  0.22611400  0.30059600  1
  H  602  1  0.63759600  0.22115100  0.28162000  1
  H  604  1  0.29728200  0.26922700  0.30619400  1
  H  605  1  0.28301300  0.24268100  0.31608000  1
  H  607  1  0.33762900  0.28745500  0.38679700  1
  H  608  1  0.39848900  0.27456500  0.39699500  1
  H  614  1  0.10855000  0.99275800  0.00576300  1
  H  616  1  0.97708200  0.03952600  0.99660400  1
  H  618  1  0.08939800  0.95587800  0.01166200  1
  H  619  1  0.02746300  0.94620700  0.99737500  1
  H  620  1  0.02250300  0.95174700  0.02565900  1
  H  622  1  0.84943700  0.00212100  0.99947800  1
  H  623  1  0.87576200  0.02263800  0.98201900  1
  H  624  1  0.87218400  0.02711700  0.01050600  1
  H  626  1  0.92170300  0.95727200  0.01483300  1
  H  628  1  0.08833600  0.04436000  0.98692000  1
  H  634  1  0.60855300  0.51188600  0.99882600  1
  H  636  1  0.47710800  0.46513700  0.00813200  1
  H  638  1  0.58938600  0.54874500  0.99283600  1
  H  639  1  0.52754600  0.55846400  0.00714300  1
  H  640  1  0.52241300  0.55284600  0.97888000  1
  H  642  1  0.34946200  0.50254800  0.00527300  1
  H  643  1  0.37584700  0.48204400  0.02273800  1
  H  644  1  0.37215100  0.47753700  0.99425900  1
  H  646  1  0.42165100  0.54734000  0.98976600  1
  H  648  1  0.58838600  0.46030800  0.01776600  1
  H  654  1  0.35885600  0.24821100  0.74283700  1
  H  656  1  0.22784100  0.25768100  0.78971900  1
  H  658  1  0.33933600  0.24219700  0.70599700  1
  H  659  1  0.27741600  0.25651500  0.69634800  1
  H  660  1  0.27228300  0.22825700  0.70200200  1
  H  662  1  0.09986800  0.25473200  0.75246900  1
  H  663  1  0.12643400  0.27231600  0.77284200  1
  H  664  1  0.12277300  0.24386200  0.77751000  1
  H  666  1  0.17168600  0.23949700  0.70747800  1
  H  668  1  0.33908400  0.26729200  0.79440600  1
  H  674  1  0.85891600  0.25632400  0.26180600  1
  H  676  1  0.72778600  0.24706800  0.21492500  1
  H  678  1  0.83948000  0.26224300  0.29867000  1
  H  679  1  0.77742400  0.24798500  0.30829400  1
  H  680  1  0.77255600  0.27625900  0.30269400  1
  H  682  1  0.59987600  0.25004900  0.25220300  1
  H  683  1  0.62630000  0.23248200  0.23178900  1
  H  684  1  0.62282900  0.26094800  0.22717900  1
  H  686  1  0.67188800  0.26512000  0.29722300  1
  H  688  1  0.83898100  0.23737900  0.21019700  1
  H  694  1  0.91880200  0.49797900  0.02938600  1
  H  696  1  0.01388600  0.47788600  0.97474900  1
  H  698  1  0.94930500  0.52588500  0.05252500  1
  H  699  1  0.97626600  0.54800400  0.03747400  1
  H  700  1  0.02564800  0.53113400  0.05233100  1
  H  702  1  0.13031700  0.52020700  0.97776600  1
  H  703  1  0.08179800  0.50929600  0.95818500  1
  H  704  1  0.12502000  0.49181200  0.97475100  1
  H  706  1  0.09988400  0.53868200  0.02589300  1
  H  708  1  0.90200600  0.46962900  0.98320200  1
  H  714  1  0.41888800  0.00670800  0.97522400  1
  H  716  1  0.51376200  0.02673200  0.02993500  1
  H  718  1  0.44946400  0.97882500  0.95207100  1
  H  719  1  0.47641800  0.95669000  0.96709800  1
  H  720  1  0.52581800  0.97359600  0.95229000  1
  H  722  1  0.63021700  0.98441800  0.02692200  1
  H  723  1  0.58162300  0.99530100  0.04649400  1
  H  724  1  0.62489400  0.01281000  0.02997100  1
  H  726  1  0.59994000  0.96599500  0.97875800  1
  H  728  1  0.40189700  0.03499200  0.02143400  1
  H  734  1  0.66904400  0.27927700  0.75651200  1
  H  736  1  0.76488900  0.22488300  0.77676500  1
  H  738  1  0.69888400  0.30227800  0.72838700  1
  H  739  1  0.72716000  0.28734300  0.70640500  1
  H  740  1  0.77541600  0.30243100  0.72350300  1
  H  742  1  0.88128400  0.22800500  0.73444100  1
  H  743  1  0.83297800  0.20835600  0.74536300  1
  H  744  1  0.87596500  0.22501300  0.76283800  1
  H  746  1  0.84955000  0.27610400  0.71561100  1
  H  748  1  0.65296400  0.23314500  0.78504900  1
  H  754  1  0.16926700  0.22532000  0.24809400  1
  H  756  1  0.26471100  0.27983700  0.22791300  1
  H  758  1  0.19934100  0.20228900  0.27615300  1
  H  759  1  0.22717400  0.21726200  0.29818200  1
  H  760  1  0.27581900  0.20226800  0.28115100  1
  H  762  1  0.38109900  0.27678900  0.27024900  1
  H  763  1  0.33267300  0.29639800  0.25932800  1
  H  764  1  0.37579900  0.27979100  0.24185200  1
  H  766  1  0.34994300  0.22864900  0.28892900  1
  H  768  1  0.15278900  0.27146400  0.21965000  1
  H  774  1  0.65143000  0.75520800  0.26220100  1
  H  776  1  0.78261800  0.74559400  0.21541800  1
  H  778  1  0.67079100  0.76138200  0.29901300  1
  H  779  1  0.73248100  0.74702200  0.30878000  1
  H  780  1  0.73794400  0.77524800  0.30301600  1
  H  782  1  0.91042800  0.74833900  0.25275700  1
  H  783  1  0.88374600  0.73087400  0.23231100  1
  H  784  1  0.88778700  0.75933600  0.22773200  1
  H  786  1  0.83860800  0.76428700  0.29746300  1
  H  788  1  0.67168800  0.73635200  0.21042100  1
  H  794  1  0.15140200  0.74958000  0.74247100  1
  H  796  1  0.28268700  0.75897800  0.78926200  1
  H  798  1  0.17069500  0.74351000  0.70563400  1
  H  799  1  0.23252700  0.75780900  0.69589800  1
  H  800  1  0.23771700  0.72956600  0.70160700  1
  H  802  1  0.41044800  0.75621000  0.75190400  1
  H  803  1  0.38389400  0.77365600  0.77238900  1
  H  804  1  0.38774900  0.74518100  0.77690500  1
  H  806  1  0.33845100  0.74044600  0.70715000  1
  H  808  1  0.17180600  0.76829600  0.79429400  1
  H  814  1  0.34106100  0.72479700  0.24771500  1
  H  816  1  0.24621000  0.77943800  0.22749300  1
  H  818  1  0.31045200  0.70172900  0.27566000  1
  H  819  1  0.28317200  0.71676900  0.29773300  1
  H  820  1  0.23403600  0.70191200  0.28076900  1
  H  822  1  0.12967600  0.77654900  0.26978800  1
  H  823  1  0.17831700  0.79609000  0.25887600  1
  H  824  1  0.13506400  0.77953400  0.24139300  1
  H  826  1  0.16020000  0.72844200  0.28849200  1
  H  828  1  0.35806600  0.77096400  0.21932000  1
  H  834  1  0.84088400  0.77992700  0.75699400  1
  H  836  1  0.74633800  0.72518600  0.77714000  1
  H  838  1  0.81017600  0.80300100  0.72907000  1
  H  839  1  0.78305200  0.78795700  0.70697400  1
  H  840  1  0.73377200  0.80275400  0.72393400  1
  H  842  1  0.62982800  0.72803100  0.73483100  1
  H  843  1  0.67856000  0.70851600  0.74573500  1
  H  844  1  0.63520000  0.72502500  0.76322600  1
  H  846  1  0.66005200  0.77618200  0.71621100  1
  H  848  1  0.85822200  0.73375000  0.78529500  1
  H  854  1  0.60849600  0.49261000  0.50569900  1
  H  856  1  0.47739600  0.53954100  0.49663100  1
  H  858  1  0.58902000  0.45574100  0.51157800  1
  H  859  1  0.52678800  0.44615400  0.49740000  1
  H  860  1  0.52223000  0.45173500  0.52568700  1
  H  862  1  0.34942600  0.50229900  0.49965000  1
  H  863  1  0.37580800  0.52271700  0.48207900  1
  H  864  1  0.37249600  0.52730700  0.51055200  1
  H  866  1  0.42149100  0.45725500  0.51469600  1
  H  868  1  0.58824000  0.54444700  0.48707500  1
  H  874  1  0.10849700  0.01203200  0.49888800  1
  H  876  1  0.97742600  0.96512000  0.50811200  1
  H  878  1  0.08900300  0.04888300  0.49291600  1
  H  879  1  0.02686400  0.05851700  0.50711700  1
  H  880  1  0.02213200  0.05285400  0.47885200  1
  H  882  1  0.84945000  0.00236700  0.50511500  1
  H  883  1  0.87589800  0.98196600  0.52269100  1
  H  884  1  0.87245800  0.97734500  0.49422400  1
  H  886  1  0.92143300  0.04735500  0.48990700  1
  H  888  1  0.08829100  0.96021900  0.51761300  1
  H  894  1  0.41876900  0.99812800  0.52935400  1
  H  896  1  0.51397300  0.97781300  0.47483100  1
  H  898  1  0.44893000  0.02624500  0.55229800  1
  H  899  1  0.47682600  0.04822800  0.53727400  1
  H  900  1  0.52542800  0.03120100  0.55229000  1
  H  902  1  0.63043000  0.02013400  0.47772800  1
  H  903  1  0.58191200  0.00917900  0.45816800  1
  H  904  1  0.62508400  0.99173100  0.47479000  1
  H  906  1  0.59942800  0.03893200  0.52585400  1
  H  908  1  0.40203900  0.96960300  0.48328200  1
  H  914  1  0.91885100  0.50655400  0.47525500  1
  H  916  1  0.01385200  0.52680600  0.52985000  1
  H  918  1  0.94908800  0.47846000  0.45230100  1
  H  919  1  0.97698200  0.45646100  0.46730200  1
  H  920  1  0.02559700  0.47352500  0.45233200  1
  H  922  1  0.13033300  0.48449400  0.52696000  1
  H  923  1  0.08174400  0.49542200  0.54651100  1
  H  924  1  0.12496100  0.51289300  0.52992800  1
  H  926  1  0.09948700  0.46574400  0.47879800  1
  H  928  1  0.90193600  0.53501800  0.52135200  1
  H  934  1  0.47905800  0.15530300  0.89536800  1
  H  936  1  0.35471300  0.20110800  0.91588900  1
  H  938  1  0.48367800  0.11967600  0.90871200  1
  H  939  1  0.41305700  0.10972100  0.91541400  1
  H  940  1  0.46349100  0.11725200  0.93621900  1
  H  942  1  0.27995500  0.16630900  0.95633700  1
  H  943  1  0.26208300  0.18409300  0.93499400  1
  H  944  1  0.31203100  0.19238200  0.95566400  1
  H  946  1  0.34114600  0.11967900  0.94230200  1
  H  948  1  0.44576400  0.21035600  0.89459900  1
  H  954  1  0.97903600  0.34930800  0.10928000  1
  H  956  1  0.85461000  0.30352500  0.08876800  1
  H  958  1  0.98369400  0.38493300  0.09593900  1
  H  959  1  0.91306200  0.39489400  0.08925900  1
  H  960  1  0.96346200  0.38737600  0.06843800  1
  H  962  1  0.77989000  0.33833900  0.04832300  1
  H  963  1  0.76199800  0.32056300  0.06967000  1
  H  964  1  0.81191800  0.31225900  0.04899500  1
  H  966  1  0.84113600  0.38495600  0.06236400  1
  H  968  1  0.94562200  0.29425400  0.11005600  1
  H  974  1  0.72813500  0.35964400  0.90531600  1
  H  976  1  0.60388400  0.33888400  0.95104900  1
  H  978  1  0.73306700  0.34631300  0.86968200  1
  H  979  1  0.66255000  0.33952400  0.85968300  1
  H  980  1  0.71314200  0.31878000  0.86724100  1
  H  982  1  0.52975000  0.29833700  0.91618900  1
  H  983  1  0.51154600  0.31962800  0.93398700  1
  H  984  1  0.56176200  0.29904300  0.94226900  1
  H  986  1  0.59095200  0.31250200  0.86958500  1
  H  988  1  0.69490000  0.36020000  0.96034800  1
  H  994  1  0.22810600  0.14498300  0.09936700  1
  H  996  1  0.10385000  0.16576900  0.05365000  1
  H  998  1  0.23295500  0.15824400  0.13501800  1
  H  999  1  0.16244700  0.16506200  0.14500500  1
  H  1000  1  0.21315800  0.18578500  0.13749800  1
  H  1002  1  0.02967900  0.20627700  0.08853800  1
  H  1003  1  0.01152500  0.18499900  0.07071800  1
  H  1004  1  0.06169800  0.20560700  0.06245700  1
  H  1006  1  0.09099000  0.19215400  0.13512100  1
  H  1008  1  0.19487200  0.14446100  0.04433100  1
  H  1014  1  0.54183800  0.84967600  0.11247100  1
  H  1016  1  0.65337600  0.80196500  0.08690500  1
  H  1018  1  0.54100400  0.88587600  0.10061300  1
  H  1019  1  0.61206800  0.89449900  0.09276400  1
  H  1020  1  0.55729000  0.88901300  0.07280900  1
  H  1022  1  0.72755200  0.83685100  0.04637700  1
  H  1023  1  0.74517400  0.81738900  0.06622300  1
  H  1024  1  0.69017600  0.81172400  0.04642200  1
  H  1026  1  0.67480400  0.88436500  0.06294600  1
  H  1028  1  0.56983800  0.79334400  0.11061400  1
  H  1034  1  0.04191400  0.65502600  0.89217800  1
  H  1036  1  0.15347900  0.70271800  0.91776500  1
  H  1038  1  0.04105100  0.61882300  0.90402400  1
  H  1039  1  0.11211300  0.61019400  0.91186900  1
  H  1040  1  0.05733100  0.61566800  0.93182600  1
  H  1042  1  0.22760200  0.66781300  0.95828900  1
  H  1043  1  0.24525900  0.68727400  0.93844600  1
  H  1044  1  0.19026100  0.69294600  0.95824700  1
  H  1046  1  0.17483900  0.62031100  0.94169500  1
  H  1048  1  0.07005300  0.71136200  0.89403900  1
  H  1054  1  0.28293100  0.64472200  0.09899900  1
  H  1056  1  0.40696900  0.66551500  0.05319000  1
  H  1058  1  0.27836200  0.65793400  0.13466800  1
  H  1059  1  0.34893600  0.66469200  0.14463500  1
  H  1060  1  0.29835600  0.68546000  0.13712800  1
  H  1062  1  0.48158200  0.70589100  0.08811200  1
  H  1063  1  0.49949800  0.68466400  0.07019500  1
  H  1064  1  0.44931400  0.70532000  0.06206700  1
  H  1066  1  0.42051900  0.69171600  0.13472000  1
  H  1068  1  0.32098800  0.64350200  0.04346100  1
  H  1074  1  0.78318000  0.86001900  0.90563400  1
  H  1076  1  0.90700000  0.83909800  0.95146200  1
  H  1078  1  0.77874100  0.84690000  0.86993800  1
  H  1079  1  0.84930400  0.84008500  0.86000500  1
  H  1080  1  0.79851300  0.81936000  0.86743100  1
  H  1082  1  0.98160600  0.79875200  0.91651400  1
  H  1083  1  0.99949300  0.81994400  0.93447500  1
  H  1084  1  0.94925000  0.79928300  0.94254600  1
  H  1086  1  0.92060200  0.81294500  0.86990800  1
  H  1088  1  0.82120800  0.86116400  0.96120200  1
  H  1094  1  0.97804600  0.65515100  0.39497500  1
  H  1096  1  0.85467200  0.70116400  0.41584400  1
  H  1098  1  0.98223900  0.61947800  0.40818000  1
  H  1099  1  0.91160000  0.60963500  0.41502100  1
  H  1100  1  0.96245800  0.61705300  0.43572800  1
  H  1102  1  0.77986800  0.66638700  0.45628700  1
  H  1103  1  0.76206600  0.68431500  0.43505800  1
  H  1104  1  0.81242200  0.69238100  0.45568200  1
  H  1106  1  0.84034400  0.61967400  0.44211600  1
  H  1108  1  0.94047100  0.71074800  0.39369200  1
  H  1114  1  0.47791800  0.84943900  0.60968900  1
  H  1116  1  0.35454500  0.80344500  0.58877300  1
  H  1118  1  0.48216400  0.88511400  0.59649600  1
  H  1119  1  0.41152800  0.89496300  0.58965800  1
  H  1120  1  0.46239900  0.88756200  0.56894800  1
  H  1122  1  0.27982500  0.83824700  0.54833200  1
  H  1123  1  0.26198100  0.82031300  0.56955300  1
  H  1124  1  0.31235300  0.81224600  0.54893400  1
  H  1126  1  0.34030100  0.88494900  0.56254300  1
  H  1128  1  0.44014600  0.79383600  0.61097200  1
  H  1134  1  0.21952500  0.86200000  0.40471300  1
  H  1136  1  0.10739100  0.83681100  0.45243700  1
  H  1138  1  0.22057200  0.84992400  0.36857400  1
  H  1139  1  0.14945200  0.84217700  0.35992100  1
  H  1140  1  0.20388600  0.82213700  0.36556000  1
  H  1142  1  0.03309300  0.79620400  0.41766600  1
  H  1143  1  0.01548800  0.81617100  0.43700800  1
  H  1144  1  0.07025000  0.79632900  0.44283600  1
  H  1146  1  0.08606900  0.81258300  0.37015100  1
  H  1148  1  0.19122700  0.86045500  0.46100400  1
  H  1154  1  0.71969000  0.64268700  0.59993800  1
  H  1156  1  0.60724400  0.66779400  0.55227000  1
  H  1158  1  0.72075600  0.65473600  0.63607800  1
  H  1159  1  0.64964800  0.66247600  0.64475400  1
  H  1160  1  0.70406600  0.68252000  0.63911200  1
  H  1162  1  0.53294900  0.70837900  0.58706400  1
  H  1163  1  0.51533000  0.68838700  0.56774900  1
  H  1164  1  0.56997500  0.70825700  0.56186800  1
  H  1166  1  0.58617200  0.69205900  0.63454600  1
  H  1168  1  0.69126400  0.64421100  0.54367100  1
  H  1174  1  0.03920300  0.34948000  0.61176100  1
  H  1176  1  0.15648700  0.30261100  0.58814200  1
  H  1178  1  0.03575700  0.38537700  0.59901200  1
  H  1179  1  0.10656200  0.39474400  0.59170600  1
  H  1180  1  0.05397800  0.38806900  0.57131800  1
  H  1182  1  0.23062700  0.33763100  0.54772900  1
  H  1183  1  0.24846600  0.31876500  0.56812200  1
  H  1184  1  0.19552200  0.31206400  0.54789300  1
  H  1186  1  0.17329500  0.38469900  0.56308500  1
  H  1188  1  0.07532000  0.29325600  0.61174800  1
  H  1194  1  0.53928600  0.15525100  0.39289500  1
  H  1196  1  0.65661200  0.20208900  0.41654700  1
  H  1198  1  0.53577400  0.11935000  0.40563000  1
  H  1199  1  0.60657200  0.10997100  0.41293100  1
  H  1200  1  0.55399400  0.11663900  0.43332400  1
  H  1202  1  0.73067700  0.16703800  0.45694900  1
  H  1203  1  0.74856200  0.18590400  0.43656300  1
  H  1204  1  0.69562100  0.19261300  0.45679000  1
  H  1206  1  0.67330900  0.11998800  0.44156100  1
  H  1208  1  0.57562300  0.21148000  0.39290900  1
  H  1214  1  0.78735200  0.14354300  0.59929700  1
  H  1216  1  0.90628200  0.16644300  0.55262300  1
  H  1218  1  0.78344800  0.15658500  0.63510900  1
  H  1219  1  0.85441400  0.16354400  0.64459300  1
  H  1220  1  0.80278000  0.18418600  0.63771500  1
  H  1222  1  0.98078000  0.20680400  0.58764000  1
  H  1223  1  0.99850900  0.18619300  0.56898900  1
  H  1224  1  0.94638900  0.20659100  0.56194100  1
  H  1226  1  0.92249000  0.19171700  0.63457400  1
  H  1228  1  0.82429200  0.14313500  0.54319900  1
  H  1234  1  0.28774100  0.36118800  0.40530000  1
  H  1236  1  0.40639300  0.33818100  0.45201000  1
  H  1238  1  0.28408300  0.34827300  0.36945500  1
  H  1239  1  0.35499300  0.34123700  0.35998700  1
  H  1240  1  0.30313100  0.32064900  0.36681400  1
  H  1242  1  0.48103600  0.29788500  0.41697700  1
  H  1243  1  0.49867400  0.31843200  0.43570600  1
  H  1244  1  0.44641200  0.29804100  0.44263300  1
  H  1246  1  0.42283300  0.31296200  0.37000300  1
  H  1248  1  0.32455200  0.36152100  0.46143200  1
  N  8  1  0.46982600  0.10176900  0.98686300  1
  N  15  1  0.09114400  0.07703500  0.05622100  1
  N  17  1  0.26011700  0.12216500  0.98559100  1
  N  18  1  0.21322100  0.05182400  0.99571100  1
  N  46  1  0.96980800  0.40292800  0.01786100  1
  N  53  1  0.59113000  0.42762000  0.94846500  1
  N  55  1  0.76010100  0.38248500  0.01906200  1
  N  56  1  0.71322000  0.45282100  0.00897300  1
  N  84  1  0.72019400  0.26844700  0.85152100  1
  N  91  1  0.34237000  0.19804200  0.82719000  1
  N  93  1  0.51041000  0.26906300  0.87202800  1
  N  94  1  0.46369800  0.25863600  0.80176600  1
  N  122  1  0.22027500  0.23652300  0.15299400  1
  N  129  1  0.84246000  0.30664300  0.17750100  1
  N  131  1  0.01056100  0.23561100  0.13258200  1
  N  132  1  0.96375200  0.24601400  0.20288100  1
  N  160  1  0.53880300  0.90276500  0.02038500  1
  N  167  1  0.90343600  0.93114600  0.94434500  1
  N  169  1  0.74833600  0.88232000  0.01878000  1
  N  170  1  0.79332600  0.95271500  0.00899300  1
  N  198  1  0.03884100  0.60185200  0.98422200  1
  N  205  1  0.40349800  0.57353800  0.06028100  1
  N  207  1  0.24835500  0.62234400  0.98588100  1
  N  208  1  0.29339900  0.55196300  0.99563600  1
  N  236  1  0.29118400  0.73604600  0.15261500  1
  N  243  1  0.66804400  0.80606700  0.17867900  1
  N  245  1  0.50114700  0.73504700  0.13246600  1
  N  246  1  0.54703100  0.74495100  0.20293000  1
  N  274  1  0.79113400  0.76830600  0.85219100  1
  N  281  1  0.16793800  0.69856000  0.82593300  1
  N  283  1  0.00100300  0.76958900  0.87224700  1
  N  284  1  0.04699300  0.75972300  0.80174400  1
  N  312  1  0.96963000  0.60174200  0.48662500  1
  N  319  1  0.59278200  0.57624000  0.55669900  1
  N  321  1  0.75996200  0.62215200  0.48549100  1
  N  322  1  0.71340200  0.55172000  0.49557400  1
  N  350  1  0.46961000  0.90295100  0.51808800  1
  N  357  1  0.09277600  0.92842600  0.44797900  1
  N  359  1  0.25995200  0.88248900  0.51915000  1
  N  360  1  0.21339500  0.95291800  0.50911300  1
  N  388  1  0.22155800  0.77071200  0.35124000  1
  N  395  1  0.85696600  0.69379000  0.32393600  1
  N  397  1  0.01221100  0.76836900  0.37224800  1
  N  398  1  0.96655200  0.75845400  0.30204800  1
  N  426  1  0.72161800  0.73416100  0.65330100  1
  N  433  1  0.35709500  0.81091000  0.68076600  1
  N  435  1  0.51228400  0.73628200  0.63239100  1
  N  436  1  0.46660400  0.74621200  0.70262000  1
  N  464  1  0.03972900  0.40334000  0.52200700  1
  N  471  1  0.40279000  0.43166200  0.44404800  1
  N  473  1  0.24980200  0.38274400  0.51901000  1
  N  474  1  0.29301100  0.45285700  0.50885400  1
  N  502  1  0.53976200  0.10128800  0.48258900  1
  N  509  1  0.90284800  0.07302900  0.56058000  1
  N  511  1  0.74982800  0.12191300  0.48564700  1
  N  512  1  0.79307900  0.05181500  0.49577900  1
  N  540  1  0.79083600  0.23177900  0.65371900  1
  N  547  1  0.15420000  0.31026900  0.68187900  1
  N  549  1  0.00108000  0.23542200  0.63311000  1
  N  550  1  0.04346100  0.24565800  0.70298400  1
  N  578  1  0.29027300  0.27193400  0.35131700  1
  N  585  1  0.65400400  0.19437600  0.32273700  1
  N  587  1  0.50057400  0.26911800  0.37176500  1
  N  588  1  0.54354000  0.25908000  0.30170800  1
  N  625  1  0.91483600  0.96903300  0.00329400  1
  N  627  1  0.09421600  0.03443800  0.00018900  1
  N  645  1  0.41484800  0.53561500  0.00135000  1
  N  647  1  0.59423400  0.47022000  0.00448700  1
  N  665  1  0.16502300  0.25098300  0.71930900  1
  N  667  1  0.34489800  0.25400300  0.78450400  1
  N  685  1  0.66510100  0.25367300  0.28536400  1
  N  687  1  0.84487000  0.25064000  0.22012800  1
  N  705  1  0.08440200  0.53767700  0.01025700  1
  N  707  1  0.91795200  0.46885000  0.99881800  1
  N  725  1  0.58441400  0.96698400  0.99438900  1
  N  727  1  0.41791600  0.03579800  0.00582900  1
  N  745  1  0.83486400  0.26038400  0.71683900  1
  N  747  1  0.66862900  0.24880300  0.78575000  1
  N  765  1  0.33496800  0.24434000  0.28778100  1
  N  767  1  0.16863200  0.25583100  0.21890000  1
  N  785  1  0.84522800  0.75260400  0.28582400  1
  N  787  1  0.66561000  0.74947000  0.22052700  1
  N  805  1  0.34518700  0.75208200  0.71882600  1
  N  807  1  0.16565200  0.75520800  0.78415600  1
  N  825  1  0.17551900  0.74408900  0.28737100  1
  N  827  1  0.34217600  0.75534000  0.21856200  1
  N  845  1  0.67549100  0.76054800  0.71729600  1
  N  847  1  0.84216400  0.74934900  0.78610500  1
  N  865  1  0.41460500  0.46912000  0.50326500  1
  N  867  1  0.59444600  0.53431800  0.50016700  1
  N  885  1  0.91461600  0.03552800  0.50138300  1
  N  887  1  0.09446700  0.97034000  0.50451100  1
  N  905  1  0.58446400  0.03774400  0.51016700  1
  N  907  1  0.41796000  0.96886900  0.49890300  1
  N  925  1  0.08448100  0.46691800  0.49448100  1
  N  927  1  0.91792700  0.53577600  0.50574300  1
  N  945  1  0.34872800  0.13457500  0.94926700  1
  N  947  1  0.44347100  0.19508200  0.88788800  1
  N  965  1  0.84870300  0.37006200  0.05539400  1
  N  967  1  0.94340700  0.30953500  0.11675700  1
  N  985  1  0.59855600  0.30555000  0.88448300  1
  N  987  1  0.69244200  0.36698600  0.94510900  1
  N  1005  1  0.09859000  0.19910300  0.12022000  1
  N  1007  1  0.19243100  0.13767100  0.05956800  1
  N  1025  1  0.66482700  0.86963200  0.05605100  1
  N  1027  1  0.57050600  0.80870500  0.11718500  1
  N  1045  1  0.16486400  0.63503900  0.94859800  1
  N  1047  1  0.07060200  0.69599500  0.88748100  1
  N  1065  1  0.41288100  0.69868200  0.11983000  1
  N  1067  1  0.31787700  0.63756500  0.05904000  1
  N  1085  1  0.91291800  0.80597900  0.88479400  1
  N  1087  1  0.81800600  0.86709300  0.94562300  1
  N  1105  1  0.84818600  0.63455600  0.44906700  1
  N  1107  1  0.94345100  0.69515000  0.38779700  1
  N  1125  1  0.34814400  0.87006900  0.55558300  1
  N  1127  1  0.44329900  0.80943800  0.61684000  1
  N  1145  1  0.09602000  0.80570100  0.38489400  1
  N  1147  1  0.19052900  0.86697100  0.44562100  1
  N  1165  1  0.59606700  0.69894600  0.61980400  1
  N  1167  1  0.69054600  0.63768700  0.55905100  1
  N  1185  1  0.16460700  0.36982100  0.55626100  1
  N  1187  1  0.07077000  0.30886800  0.61747000  1
  N  1205  1  0.66462800  0.13486100  0.44839400  1
  N  1207  1  0.57089000  0.19586700  0.38721000  1
  N  1225  1  0.91399600  0.19857400  0.61969500  1
  N  1227  1  0.81967000  0.13746300  0.55882800  1
  N  1245  1  0.41441000  0.30611800  0.38489200  1
  N  1247  1  0.31985700  0.36719300  0.44580800  1
