# generated using pymatgen
data_H3(C2N)2
_symmetry_space_group_name_H-M   'P 1'
_cell_length_a   33.88920000
_cell_length_b   65.00890000
_cell_length_c   65.00890000
_cell_angle_alpha   120.00000000
_cell_angle_beta   90.00000000
_cell_angle_gamma   90.00000000
_symmetry_Int_Tables_number   1
_chemical_formula_structural   H3(C2N)2
_chemical_formula_sum   'H432 C576 N288'
_cell_volume   124033.09579278
_cell_formula_units_Z   144
loop_
 _symmetry_equiv_pos_site_id
 _symmetry_equiv_pos_as_xyz
  1  'x, y, z'
loop_
 _atom_site_type_symbol
 _atom_site_label
 _atom_site_symmetry_multiplicity
 _atom_site_fract_x
 _atom_site_fract_y
 _atom_site_fract_z
 _atom_site_occupancy
  H  7  1  0.96511300  0.69795400  0.06786400  1
  H  16  1  0.02873000  0.68732300  0.11213800  1
  H  19  1  0.95978500  0.66416100  0.11669000  1
  H  20  1  0.93392200  0.68284400  0.13988100  1
  H  21  1  0.95306100  0.63373600  0.02909900  1
  H  22  1  0.93054000  0.65491200  0.05269400  1
  H  23  1  0.09139900  0.61385600  0.03421400  1
  H  24  1  0.11554500  0.62907500  0.05935700  1
  H  25  1  0.88731600  0.75797100  0.14743500  1
  H  26  1  0.89124900  0.76182900  0.12437500  1
  H  37  1  0.96503600  0.47584900  0.29708900  1
  H  46  1  0.02883900  0.53067900  0.30769800  1
  H  49  1  0.96031600  0.55849400  0.33093100  1
  H  50  1  0.93481900  0.56308500  0.31220700  1
  H  51  1  0.95299500  0.50138700  0.36137200  1
  H  52  1  0.93053500  0.50371800  0.34012700  1
  H  53  1  0.09125200  0.52650400  0.38137900  1
  H  54  1  0.11543000  0.53641800  0.36616300  1
  H  55  1  0.88777200  0.49557100  0.23703100  1
  H  56  1  0.89165300  0.46862000  0.23309800  1
  H  67  1  0.96490600  0.92720700  0.51915500  1
  H  76  1  0.02879200  0.88296800  0.46437600  1
  H  79  1  0.96032200  0.87839200  0.43651700  1
  H  80  1  0.93484600  0.85503400  0.43180800  1
  H  81  1  0.95305500  0.96591800  0.49346400  1
  H  82  1  0.93053800  0.94234100  0.49110600  1
  H  83  1  0.09150800  0.96085300  0.46874700  1
  H  84  1  0.11566000  0.93572000  0.45888200  1
  H  85  1  0.88758100  0.84746100  0.49943600  1
  H  86  1  0.89131900  0.87053000  0.52635800  1
  H  97  1  0.46501300  0.36936600  0.85487600  1
  H  106  1  0.52890100  0.37996400  0.81073800  1
  H  109  1  0.46086400  0.40322800  0.80600300  1
  H  110  1  0.43555000  0.38454900  0.78262500  1
  H  111  1  0.45303600  0.43377400  0.89365100  1
  H  112  1  0.43055700  0.41250700  0.87010000  1
  H  113  1  0.59131000  0.45368500  0.88856900  1
  H  114  1  0.61553600  0.43841300  0.86346400  1
  H  115  1  0.38752500  0.30948500  0.77514000  1
  H  116  1  0.39149400  0.30549100  0.79811600  1
  H  127  1  0.46499300  0.59147600  0.62565300  1
  H  136  1  0.52867600  0.53658600  0.61502900  1
  H  139  1  0.45977300  0.50885200  0.59188000  1
  H  140  1  0.43393300  0.50434000  0.61057100  1
  H  141  1  0.45300300  0.56604300  0.56144700  1
  H  142  1  0.43047400  0.56360500  0.58261000  1
  H  143  1  0.59136900  0.54109500  0.54159500  1
  H  144  1  0.61551500  0.53117300  0.55681300  1
  H  145  1  0.38718000  0.57189800  0.68564900  1
  H  146  1  0.39107500  0.59881400  0.68950100  1
  H  157  1  0.46510200  0.14011700  0.40350700  1
  H  166  1  0.52882100  0.18437900  0.45838900  1
  H  169  1  0.46013600  0.18896800  0.48613100  1
  H  170  1  0.43449600  0.21223400  0.49069700  1
  H  171  1  0.45299800  0.10139800  0.42904100  1
  H  172  1  0.43053600  0.12497700  0.43138200  1
  H  173  1  0.59125100  0.10650300  0.45416200  1
  H  174  1  0.61542700  0.13163700  0.46408800  1
  H  175  1  0.38772900  0.21983200  0.42311700  1
  H  176  1  0.39161500  0.19678700  0.39618500  1
  H  187  1  0.14306400  0.59162300  0.85377900  1
  H  196  1  0.08183600  0.53409600  0.80902300  1
  H  199  1  0.14978300  0.50879600  0.80592900  1
  H  200  1  0.17541100  0.50401500  0.78256300  1
  H  201  1  0.15207000  0.57007000  0.89450000  1
  H  202  1  0.17627900  0.56525000  0.87050700  1
  H  203  1  0.01005200  0.55034500  0.88915000  1
  H  204  1  0.98886100  0.53711400  0.86293500  1
  H  205  1  0.22302200  0.57120300  0.77472900  1
  H  206  1  0.21874900  0.59825400  0.79754200  1
  H  217  1  0.14283400  0.14131300  0.62703300  1
  H  226  1  0.08170600  0.18598000  0.61421000  1
  H  229  1  0.14945900  0.18926000  0.59207300  1
  H  230  1  0.17502200  0.21260500  0.61069100  1
  H  231  1  0.15220000  0.10057300  0.56476500  1
  H  232  1  0.17634300  0.12455300  0.58400900  1
  H  233  1  0.01031700  0.10582400  0.55004000  1
  H  234  1  0.98901100  0.13200200  0.56308900  1
  H  235  1  0.22287400  0.22033700  0.68565000  1
  H  236  1  0.21830100  0.19760800  0.69000400  1
  H  247  1  0.14279600  0.36816000  0.40343600  1
  H  256  1  0.08183600  0.38094300  0.46100900  1
  H  259  1  0.15012000  0.40313500  0.48624400  1
  H  260  1  0.17601300  0.38451500  0.49087100  1
  H  261  1  0.15186400  0.43027000  0.42476400  1
  H  262  1  0.17614000  0.41115600  0.42963300  1
  H  263  1  0.00991900  0.44477300  0.44475400  1
  H  264  1  0.98878000  0.43175800  0.45797000  1
  H  265  1  0.22308100  0.30954600  0.42375600  1
  H  266  1  0.21857800  0.30525600  0.39669400  1
  H  277  1  0.64278900  0.47559400  0.06892200  1
  H  286  1  0.58180000  0.53319800  0.11369500  1
  H  289  1  0.64993600  0.55840600  0.11679600  1
  H  290  1  0.67558700  0.56304900  0.14011400  1
  H  291  1  0.65208700  0.49699300  0.02818900  1
  H  292  1  0.67626300  0.50176700  0.05217100  1
  H  293  1  0.51026600  0.51724600  0.03360400  1
  H  294  1  0.48906500  0.53047600  0.05981400  1
  H  295  1  0.72257700  0.49588600  0.14800400  1
  H  296  1  0.71809000  0.46881700  0.12523700  1
  H  307  1  0.64291600  0.92610300  0.29583000  1
  H  316  1  0.58177000  0.88130000  0.30855400  1
  H  319  1  0.64973000  0.87826400  0.33081300  1
  H  320  1  0.67535700  0.85490400  0.31223200  1
  H  321  1  0.65185100  0.96681900  0.35811800  1
  H  322  1  0.67610400  0.94284300  0.33895200  1
  H  323  1  0.50982100  0.96138200  0.37240100  1
  H  324  1  0.48867000  0.93515200  0.35937900  1
  H  325  1  0.72286300  0.84706000  0.23717500  1
  H  326  1  0.71854800  0.86987000  0.23293300  1
  H  337  1  0.64295800  0.69934600  0.51940700  1
  H  346  1  0.58175500  0.68650100  0.46191500  1
  H  349  1  0.64944900  0.66435600  0.43648900  1
  H  350  1  0.67501200  0.68296700  0.43175200  1
  H  351  1  0.65222900  0.63709100  0.49792100  1
  H  352  1  0.67638700  0.65632000  0.49316800  1
  H  353  1  0.51035800  0.62236000  0.47793300  1
  H  354  1  0.48905300  0.63538900  0.46478200  1
  H  355  1  0.72302300  0.75790400  0.49893200  1
  H  356  1  0.71849500  0.76226600  0.52602100  1
  H  367  1  0.16762700  0.37085300  0.85317500  1
  H  376  1  0.08934200  0.38915100  0.81072600  1
  H  379  1  0.14882700  0.39994400  0.79998200  1
  H  380  1  0.16486500  0.37831500  0.77440500  1
  H  381  1  0.16619600  0.42768200  0.89434400  1
  H  382  1  0.18885200  0.41031700  0.86917800  1
  H  383  1  0.03730500  0.45873600  0.89446900  1
  H  384  1  0.01590900  0.45114900  0.86894400  1
  H  385  1  0.23919800  0.31389600  0.77039900  1
  H  386  1  0.24698500  0.31269400  0.79473100  1
  H  397  1  0.16722800  0.58848200  0.62438300  1
  H  406  1  0.08964000  0.52745800  0.60584900  1
  H  409  1  0.14923800  0.50608200  0.59512100  1
  H  410  1  0.16544900  0.50213900  0.61672100  1
  H  411  1  0.16614000  0.57289200  0.56756800  1
  H  412  1  0.18884300  0.56510000  0.58492800  1
  H  413  1  0.03727900  0.54180900  0.53643800  1
  H  414  1  0.01598300  0.52380800  0.54397900  1
  H  415  1  0.24004500  0.56256000  0.68090700  1
  H  416  1  0.24733100  0.58821600  0.68229500  1
  H  427  1  0.16774800  0.14191500  0.40690200  1
  H  436  1  0.08930100  0.18437000  0.46751700  1
  H  439  1  0.14864100  0.19516200  0.48918000  1
  H  440  1  0.16454000  0.22076800  0.49317800  1
  H  441  1  0.16624300  0.10082600  0.42280700  1
  H  442  1  0.18882800  0.12602300  0.43054700  1
  H  443  1  0.03749700  0.10068700  0.45370200  1
  H  444  1  0.01601500  0.12621200  0.47155000  1
  H  445  1  0.23962600  0.22463100  0.43287300  1
  H  446  1  0.24733400  0.20033200  0.40730600  1
  H  457  1  0.66742000  0.69653900  0.06959100  1
  H  466  1  0.58923500  0.67839300  0.11211400  1
  H  469  1  0.64841900  0.66753600  0.12295100  1
  H  470  1  0.66455700  0.68915300  0.14847100  1
  H  471  1  0.66608000  0.63957300  0.02852600  1
  H  472  1  0.68877700  0.65705400  0.05366200  1
  H  473  1  0.53719500  0.60864300  0.02843100  1
  H  474  1  0.51569900  0.61634800  0.05395900  1
  H  475  1  0.73967600  0.75325300  0.15218500  1
  H  476  1  0.74719400  0.75456100  0.12789200  1
  H  487  1  0.66761700  0.47910700  0.29860100  1
  H  496  1  0.58928000  0.53978800  0.31681300  1
  H  499  1  0.64874700  0.56137500  0.32763600  1
  H  500  1  0.66480200  0.56531300  0.30600300  1
  H  501  1  0.66619200  0.49482800  0.35545900  1
  H  502  1  0.68883600  0.50259200  0.33806200  1
  H  503  1  0.53734300  0.52579900  0.38652800  1
  H  504  1  0.51591700  0.54370200  0.37890500  1
  H  505  1  0.73918800  0.50488800  0.24161200  1
  H  506  1  0.74697100  0.47936000  0.24042400  1
  H  517  1  0.66727800  0.92545100  0.51621300  1
  H  526  1  0.58953600  0.88301600  0.45520000  1
  H  529  1  0.64917800  0.87235000  0.43384000  1
  H  530  1  0.66528900  0.84678700  0.42989000  1
  H  531  1  0.66616500  0.96668500  0.50064700  1
  H  532  1  0.68883100  0.94151900  0.49284300  1
  H  533  1  0.53736100  0.96680700  0.46955300  1
  H  534  1  0.51604400  0.94127700  0.45153700  1
  H  535  1  0.73934000  0.84280600  0.49038900  1
  H  536  1  0.74690900  0.86711900  0.51597400  1
  H  547  1  0.94189400  0.47824900  0.07082900  1
  H  556  1  0.01949400  0.54016000  0.11377000  1
  H  559  1  0.95999100  0.56085600  0.12261900  1
  H  560  1  0.94318300  0.56546800  0.14828500  1
  H  561  1  0.94999700  0.49126500  0.02830000  1
  H  562  1  0.92506300  0.50080600  0.05308800  1
  H  563  1  0.08882300  0.51429500  0.03128100  1
  H  564  1  0.10589000  0.53466100  0.05722100  1
  H  565  1  0.86784300  0.50602000  0.15322100  1
  H  566  1  0.85992400  0.48035200  0.12905900  1
  H  577  1  0.94236700  0.92431300  0.29639400  1
  H  586  1  0.01937600  0.88130500  0.31544000  1
  H  589  1  0.96003000  0.87240300  0.32724700  1
  H  590  1  0.94292000  0.84684600  0.30618500  1
  H  591  1  0.94997300  0.96681600  0.35196800  1
  H  592  1  0.92495600  0.94209000  0.33662900  1
  H  593  1  0.08885300  0.96375200  0.37194700  1
  H  594  1  0.10596700  0.93779600  0.36630900  1
  H  595  1  0.86703700  0.84228700  0.24218100  1
  H  596  1  0.85969300  0.86636900  0.24045100  1
  H  607  1  0.94215700  0.69851300  0.51684700  1
  H  616  1  0.01931100  0.67955900  0.45484000  1
  H  619  1  0.95973400  0.66772400  0.43419300  1
  H  620  1  0.94262400  0.68880400  0.42968500  1
  H  621  1  0.95001800  0.64305100  0.50392000  1
  H  622  1  0.92499000  0.65829100  0.49443900  1
  H  623  1  0.08884400  0.62297000  0.48065500  1
  H  624  1  0.10589900  0.62855700  0.46029500  1
  H  625  1  0.86713000  0.75289500  0.48913100  1
  H  626  1  0.85963200  0.75452800  0.51489000  1
  H  637  1  0.44252500  0.58927900  0.85204400  1
  H  646  1  0.51919300  0.52710100  0.80899600  1
  H  649  1  0.45952500  0.50654800  0.80025300  1
  H  650  1  0.44229800  0.50203500  0.77468600  1
  H  651  1  0.45005900  0.57636300  0.89461500  1
  H  652  1  0.42502100  0.56692200  0.86990200  1
  H  653  1  0.58880800  0.55286500  0.89139300  1
  H  654  1  0.60579200  0.53249100  0.86543800  1
  H  655  1  0.36675200  0.56150500  0.77015200  1
  H  656  1  0.35955500  0.58734000  0.79423400  1
  H  667  1  0.44187900  0.14312300  0.62622100  1
  H  676  1  0.51952600  0.18609900  0.60732900  1
  H  679  1  0.46003200  0.19494800  0.59545000  1
  H  680  1  0.44324200  0.22061300  0.61651600  1
  H  681  1  0.45006200  0.10060800  0.57066300  1
  H  682  1  0.42511000  0.12538700  0.58592300  1
  H  683  1  0.58885200  0.10363300  0.55060400  1
  H  684  1  0.60591000  0.12958000  0.55620300  1
  H  685  1  0.36795000  0.22553800  0.68091600  1
  H  686  1  0.35999200  0.20136700  0.68239900  1
  H  697  1  0.44224800  0.36874300  0.40578200  1
  H  706  1  0.51945200  0.38772400  0.46777800  1
  H  709  1  0.46009700  0.39951900  0.48850300  1
  H  710  1  0.44305000  0.37843900  0.49298700  1
  H  711  1  0.44996700  0.42430900  0.41886900  1
  H  712  1  0.42496200  0.40897100  0.42826200  1
  H  713  1  0.58885800  0.44426500  0.44186400  1
  H  714  1  0.60599600  0.43861300  0.46216800  1
  H  715  1  0.36750700  0.31425100  0.43346800  1
  H  716  1  0.35993000  0.31264200  0.40772700  1
  H  727  1  0.96187800  0.74262200  0.21734100  1
  H  728  1  0.90565700  0.80768000  0.21233800  1
  H  730  1  0.94299100  0.71664700  0.17448000  1
  H  732  1  0.97222100  0.82668100  0.25045800  1
  H  739  1  0.95757600  0.58186000  0.25293000  1
  H  740  1  0.91021400  0.50947800  0.18663500  1
  H  742  1  0.93773200  0.56485500  0.27880500  1
  H  744  1  0.97344800  0.53061900  0.16856100  1
  H  751  1  0.96071600  0.77748300  0.41405000  1
  H  752  1  0.90657300  0.78292000  0.48476800  1
  H  754  1  0.94091700  0.82021800  0.43066900  1
  H  756  1  0.97227500  0.74458500  0.46535200  1
  H  763  1  0.45723800  0.32520800  0.70471000  1
  H  764  1  0.41043000  0.25892200  0.71099800  1
  H  766  1  0.43705200  0.35115700  0.74753300  1
  H  768  1  0.47340200  0.24077900  0.67184100  1
  H  775  1  0.46272300  0.48702100  0.67057500  1
  H  776  1  0.40438900  0.55653300  0.73521700  1
  H  778  1  0.44362900  0.50370400  0.64445300  1
  H  780  1  0.47156400  0.53817600  0.75454600  1
  H  787  1  0.45887600  0.29008800  0.50914700  1
  H  788  1  0.40873000  0.28441900  0.43748800  1
  H  790  1  0.43904600  0.24725400  0.49223500  1
  H  792  1  0.47317800  0.32353300  0.45832500  1
  H  799  1  0.14715400  0.48689100  0.70492500  1
  H  800  1  0.20381800  0.55722300  0.71076600  1
  H  802  1  0.16791900  0.50283200  0.74751500  1
  H  804  1  0.13706600  0.53941600  0.67336300  1
  H  811  1  0.15094300  0.29074300  0.67062800  1
  H  812  1  0.19910300  0.28396800  0.73638500  1
  H  814  1  0.17107600  0.24789000  0.64432800  1
  H  816  1  0.13547500  0.32261300  0.75501200  1
  H  823  1  0.14737000  0.32414500  0.50828900  1
  H  824  1  0.20288900  0.25946700  0.43763400  1
  H  826  1  0.16734700  0.35065500  0.49204300  1
  H  828  1  0.13681200  0.23994800  0.45537300  1
  H  835  1  0.65095400  0.58148800  0.21839600  1
  H  836  1  0.69908200  0.50899100  0.21171700  1
  H  838  1  0.67109600  0.56487300  0.17552500  1
  H  840  1  0.63542100  0.52911500  0.25039700  1
  H  847  1  0.64795300  0.77713800  0.25191600  1
  H  848  1  0.70250700  0.78315700  0.18705000  1
  H  850  1  0.66851700  0.81979300  0.27843100  1
  H  852  1  0.63646300  0.74545700  0.16770300  1
  H  859  1  0.65080400  0.74294300  0.41360800  1
  H  860  1  0.69955400  0.80862500  0.48599700  1
  H  862  1  0.67101400  0.71661500  0.43011000  1
  H  864  1  0.63560100  0.82724600  0.46593500  1
  H  871  1  0.81018900  0.68623900  0.05902100  1
  H  872  1  0.83517600  0.76692300  0.07914000  1
  H  874  1  0.73630700  0.69591800  0.05475200  1
  H  876  1  0.90838200  0.75289000  0.06989200  1
  H  883  1  0.81037400  0.47838200  0.30882000  1
  H  884  1  0.83528800  0.41851900  0.22785000  1
  H  886  1  0.73612400  0.46475800  0.29897900  1
  H  888  1  0.90851200  0.42299700  0.24199600  1
  H  895  1  0.80966600  0.93580500  0.51634600  1
  H  896  1  0.83525800  0.91591400  0.57701600  1
  H  898  1  0.73599700  0.94026400  0.53052500  1
  H  900  1  0.90834900  0.92504100  0.57199300  1
  H  907  1  0.31036500  0.38109400  0.86415100  1
  H  908  1  0.33533200  0.30009900  0.84293800  1
  H  910  1  0.23612100  0.37122300  0.86790900  1
  H  912  1  0.40855900  0.31423300  0.85256600  1
  H  919  1  0.30977500  0.58854300  0.61415600  1
  H  920  1  0.33515500  0.64942200  0.69465800  1
  H  922  1  0.23610300  0.60270100  0.62374400  1
  H  924  1  0.40827000  0.64437300  0.68060900  1
  H  931  1  0.31059500  0.13079700  0.40609000  1
  H  932  1  0.33522600  0.15190000  0.34619900  1
  H  934  1  0.23635700  0.12699500  0.39243000  1
  H  936  1  0.40852000  0.14223800  0.35061200  1
  H  943  1  0.29889000  0.58843700  0.86276200  1
  H  944  1  0.27374300  0.64952500  0.84340600  1
  H  946  1  0.37259700  0.60234900  0.86719600  1
  H  948  1  0.20056100  0.64421200  0.85177400  1
  H  955  1  0.29784200  0.13165200  0.61450300  1
  H  956  1  0.27353400  0.15246200  0.69544300  1
  H  958  1  0.37208100  0.12811000  0.62421300  1
  H  960  1  0.20016200  0.14338000  0.68174100  1
  H  967  1  0.29833800  0.38044800  0.40661000  1
  H  968  1  0.27355400  0.29987100  0.34572400  1
  H  970  1  0.37221400  0.37090000  0.39293800  1
  H  972  1  0.20029800  0.31354200  0.35078300  1
  H  979  1  0.79783400  0.47853700  0.05936400  1
  H  980  1  0.77352500  0.41833500  0.08007600  1
  H  982  1  0.87206800  0.46529600  0.05582300  1
  H  984  1  0.70016700  0.42292900  0.07093500  1
  H  991  1  0.79852100  0.93533000  0.30813500  1
  H  992  1  0.77362000  0.91549300  0.22752700  1
  H  994  1  0.87239200  0.93942800  0.29853000  1
  H  996  1  0.70036800  0.92412600  0.24124000  1
  H  1003  1  0.79817000  0.68688900  0.51658200  1
  H  1004  1  0.77363500  0.76777600  0.57678200  1
  H  1006  1  0.87244500  0.69653000  0.52988800  1
  H  1008  1  0.70031800  0.75406700  0.57201200  1
  H  1015  1  0.05915600  0.55314600  0.95109700  1
  H  1016  1  0.05294700  0.63518000  0.97212900  1
  H  1018  1  0.07684900  0.54374800  0.90960500  1
  H  1020  1  0.04540500  0.64446300  0.01409200  1
  H  1027  1  0.05932700  0.50397300  0.44192900  1
  H  1028  1  0.05260800  0.44293300  0.35992400  1
  H  1030  1  0.07700200  0.47185800  0.45132900  1
  H  1032  1  0.04534600  0.47564600  0.35064400  1
  H  1039  1  0.05951600  0.04393500  0.49105700  1
  H  1040  1  0.05290900  0.02298600  0.55211100  1
  H  1042  1  0.07735000  0.08543800  0.52315300  1
  H  1044  1  0.04545200  0.98103100  0.51945300  1
  H  1051  1  0.55963900  0.51420500  0.97160800  1
  H  1052  1  0.55264000  0.43222400  0.95070800  1
  H  1054  1  0.57741500  0.52360300  0.01309900  1
  H  1056  1  0.54533100  0.42292700  0.90871200  1
  H  1063  1  0.55947700  0.56340800  0.48088600  1
  H  1064  1  0.55284300  0.62447300  0.56288200  1
  H  1066  1  0.57739100  0.59548800  0.47147500  1
  H  1068  1  0.54528900  0.59180700  0.57218900  1
  H  1075  1  0.55911100  0.02338700  0.43161400  1
  H  1076  1  0.55275500  0.04441600  0.37061200  1
  H  1078  1  0.57671200  0.98187600  0.39949700  1
  H  1080  1  0.54540700  0.08639600  0.40332900  1
  H  1087  1  0.04969300  0.50672500  0.97216000  1
  H  1088  1  0.05185300  0.42402900  0.94885600  1
  H  1090  1  0.01945600  0.51475100  0.01027500  1
  H  1092  1  0.06120100  0.41786000  0.90664900  1
  H  1099  1  0.04949500  0.57133800  0.48839500  1
  H  1100  1  0.05203900  0.63090700  0.57102800  1
  H  1102  1  0.01954400  0.60145200  0.48026500  1
  H  1104  1  0.06106500  0.59482400  0.57724700  1
  H  1111  1  0.04987000  0.02280200  0.42374400  1
  H  1112  1  0.05152800  0.04636500  0.36454400  1
  H  1114  1  0.01952100  0.98470500  0.39362600  1
  H  1116  1  0.06092000  0.08848200  0.40064000  1
  H  1123  1  0.54934700  0.56061200  0.95076600  1
  H  1124  1  0.55225300  0.64324600  0.97385400  1
  H  1126  1  0.51950800  0.55254000  0.91253200  1
  H  1128  1  0.56118800  0.64946200  0.01613600  1
  H  1135  1  0.54976900  0.49604000  0.43452000  1
  H  1136  1  0.55174300  0.43668900  0.35181000  1
  H  1138  1  0.51954700  0.46593100  0.44256200  1
  H  1140  1  0.56117600  0.47271200  0.34565100  1
  H  1147  1  0.54953000  0.04433900  0.49911300  1
  H  1148  1  0.55204100  0.02125800  0.55866900  1
  H  1150  1  0.51951400  0.08254300  0.52920500  1
  H  1152  1  0.56107300  0.97896100  0.52257500  1
  H  1159  1  0.14969200  0.61493900  0.09284100  1
  H  1160  1  0.02652600  0.62039700  0.13193000  1
  H  1162  1  0.13635100  0.66449500  0.11667800  1
  H  1164  1  0.04090200  0.57942200  0.12521300  1
  H  1171  1  0.15032900  0.58443800  0.37989800  1
  H  1172  1  0.02586200  0.61721800  0.37505100  1
  H  1174  1  0.13632200  0.55823700  0.33069500  1
  H  1176  1  0.04115300  0.65196000  0.41556900  1
  H  1183  1  0.14960000  0.90224600  0.41119100  1
  H  1184  1  0.02632200  0.86325300  0.37767300  1
  H  1186  1  0.13632500  0.87837300  0.43688000  1
  H  1188  1  0.04063400  0.86996600  0.34340500  1
  H  1195  1  0.65032900  0.45217900  0.82913000  1
  H  1196  1  0.52571700  0.44728800  0.79162900  1
  H  1198  1  0.63638900  0.40299600  0.80619100  1
  H  1200  1  0.54091300  0.48779800  0.79736800  1
  H  1207  1  0.64958200  0.48351700  0.54261000  1
  H  1208  1  0.52638700  0.44991200  0.54806600  1
  H  1210  1  0.63628600  0.50920300  0.59217300  1
  H  1212  1  0.54073600  0.41566300  0.50708200  1
  H  1219  1  0.65019300  0.16567000  0.51197100  1
  H  1220  1  0.52612400  0.20372400  0.54505100  1
  H  1222  1  0.63632400  0.18892300  0.48593000  1
  H  1224  1  0.54124400  0.19769400  0.57969300  1
  H  1231  1  0.96095600  0.48499600  0.83047100  1
  H  1232  1  0.08055200  0.44844900  0.78809900  1
  H  1234  1  0.97359400  0.50877700  0.80389200  1
  H  1236  1  0.06527300  0.41470200  0.79614900  1
  H  1243  1  0.96047500  0.16488900  0.54364800  1
  H  1244  1  0.08080600  0.20657100  0.54925900  1
  H  1246  1  0.97344000  0.19094300  0.59380200  1
  H  1248  1  0.06512500  0.19895300  0.50755700  1
  H  1255  1  0.96167800  0.45162200  0.50960600  1
  H  1256  1  0.07978800  0.44522400  0.54700600  1
  H  1258  1  0.97356700  0.40094600  0.48626000  1
  H  1260  1  0.06517300  0.48738600  0.58038800  1
  H  1267  1  0.46040700  0.58283700  0.09285700  1
  H  1268  1  0.58113600  0.61872100  0.13410200  1
  H  1270  1  0.47363500  0.55868600  0.11880400  1
  H  1272  1  0.56520700  0.65283300  0.12667000  1
  H  1279  1  0.46173200  0.90345500  0.37933100  1
  H  1280  1  0.57981100  0.85962700  0.37291500  1
  H  1282  1  0.47355300  0.87604700  0.32864200  1
  H  1284  1  0.56528100  0.86845500  0.41508800  1
  H  1291  1  0.46033300  0.61601300  0.41226500  1
  H  1292  1  0.58121200  0.62143900  0.37655100  1
  H  1294  1  0.47350600  0.66606300  0.43652300  1
  H  1296  1  0.56534300  0.57991800  0.34238300  1
  C  1  1  0.96089300  0.68780400  0.09404000  1
  C  2  1  0.95282100  0.70218800  0.08393500  1
  C  3  1  0.92963300  0.72283000  0.09565700  1
  C  4  1  0.91728500  0.73113400  0.11942300  1
  C  5  1  0.92671600  0.71749200  0.13045900  1
  C  6  1  0.94596000  0.69498900  0.11725500  1
  C  9  1  0.99059000  0.66968200  0.08250000  1
  C  10  1  0.98897400  0.65115800  0.05819800  1
  C  11  1  0.02341600  0.63717700  0.04735600  1
  C  12  1  0.05852100  0.64042000  0.06077300  1
  C  13  1  0.05934800  0.65855100  0.08499600  1
  C  14  1  0.02624900  0.67323500  0.09515800  1
  C  31  1  0.96092600  0.51218000  0.30725300  1
  C  32  1  0.95279200  0.48770300  0.29286500  1
  C  33  1  0.92972800  0.47882200  0.27217900  1
  C  34  1  0.91752300  0.49431900  0.26388500  1
  C  35  1  0.92687500  0.51900400  0.27760400  1
  C  36  1  0.94611300  0.52826000  0.30010400  1
  C  39  1  0.99065800  0.51871800  0.32535600  1
  C  40  1  0.98896000  0.51300100  0.34391800  1
  C  41  1  0.02336600  0.51619700  0.35794200  1
  C  42  1  0.05846500  0.52640000  0.35473300  1
  C  43  1  0.05935100  0.53243400  0.33656000  1
  C  44  1  0.02632800  0.52781000  0.32179900  1
  C  61  1  0.96081600  0.90106300  0.48281200  1
  C  62  1  0.95263800  0.91113900  0.50728800  1
  C  63  1  0.92939300  0.89938400  0.51615500  1
  C  64  1  0.91726900  0.87558100  0.50065200  1
  C  65  1  0.92676700  0.86457700  0.47598400  1
  C  66  1  0.94604800  0.87782000  0.46674300  1
  C  69  1  0.99068600  0.91261900  0.47635900  1
  C  70  1  0.98902700  0.93689800  0.48205700  1
  C  71  1  0.02349900  0.94772700  0.47892800  1
  C  72  1  0.05861000  0.93431100  0.46877700  1
  C  73  1  0.05942700  0.91010400  0.46273700  1
  C  74  1  0.02633400  0.89995000  0.46727100  1
  C  91  1  0.46087000  0.37962400  0.82878000  1
  C  92  1  0.45274100  0.36518400  0.83881500  1
  C  93  1  0.42966600  0.34449800  0.82700100  1
  C  94  1  0.41744900  0.33625800  0.80321700  1
  C  95  1  0.42675000  0.35003000  0.79229800  1
  C  96  1  0.44612800  0.37247400  0.80554100  1
  C  99  1  0.49072900  0.39763500  0.84035600  1
  C  100  1  0.48901800  0.41622500  0.86462400  1
  C  101  1  0.52343900  0.43023700  0.87545300  1
  C  102  1  0.55856200  0.42699500  0.86205100  1
  C  103  1  0.55945900  0.40878000  0.83786300  1
  C  104  1  0.52639800  0.39406900  0.82770600  1
  C  121  1  0.46082600  0.55515100  0.61550700  1
  C  122  1  0.45271400  0.57963500  0.62988500  1
  C  123  1  0.42950000  0.58854700  0.65051800  1
  C  124  1  0.41716600  0.57308200  0.65882100  1
  C  125  1  0.42665600  0.54841000  0.64519300  1
  C  126  1  0.44591900  0.53911700  0.62269600  1
  C  129  1  0.49052900  0.54858000  0.59738900  1
  C  130  1  0.48891500  0.55436800  0.57887100  1
  C  131  1  0.52336500  0.55124400  0.56489800  1
  C  132  1  0.55847600  0.54107800  0.56814500  1
  C  133  1  0.55930300  0.53497900  0.58627100  1
  C  134  1  0.52619500  0.53948400  0.60094500  1
  C  151  1  0.46094400  0.16630600  0.43983000  1
  C  152  1  0.45283800  0.15619600  0.41534800  1
  C  153  1  0.42974500  0.16796600  0.40644100  1
  C  154  1  0.41750800  0.19175500  0.42191600  1
  C  155  1  0.42686500  0.20275700  0.44660300  1
  C  156  1  0.44609000  0.18953300  0.45588600  1
  C  159  1  0.49065000  0.15475300  0.44639900  1
  C  160  1  0.48895900  0.13047100  0.44067300  1
  C  161  1  0.52336200  0.11964200  0.44386900  1
  C  162  1  0.55845600  0.13305400  0.45408100  1
  C  163  1  0.55933500  0.15726600  0.46013300  1
  C  164  1  0.52631000  0.16740600  0.45551200  1
  C  181  1  0.14801900  0.55511700  0.82816500  1
  C  182  1  0.15585900  0.57961700  0.83794900  1
  C  183  1  0.17963400  0.58837400  0.82631300  1
  C  184  1  0.19239000  0.57272000  0.80269400  1
  C  185  1  0.18295600  0.54806600  0.79184900  1
  C  186  1  0.16346000  0.53894300  0.80512500  1
  C  189  1  0.11788200  0.54879000  0.83974400  1
  C  190  1  0.11769400  0.55657900  0.86459700  1
  C  191  1  0.08224000  0.55479400  0.87553300  1
  C  192  1  0.04744400  0.54448300  0.86179900  1
  C  193  1  0.04889900  0.53540600  0.83690000  1
  C  194  1  0.08314000  0.53844300  0.82651200  1
  C  211  1  0.14793900  0.16690200  0.61611700  1
  C  212  1  0.15564100  0.15714500  0.63087200  1
  C  213  1  0.17918500  0.16883000  0.65135600  1
  C  214  1  0.19205300  0.19242800  0.65928800  1
  C  215  1  0.18290000  0.20320400  0.64537600  1
  C  216  1  0.16338900  0.18993700  0.62298600  1
  C  219  1  0.11787400  0.15531100  0.59817000  1
  C  220  1  0.11778200  0.13047100  0.58108200  1
  C  221  1  0.08240500  0.11950900  0.56828700  1
  C  222  1  0.04755600  0.13320400  0.57168900  1
  C  223  1  0.04889000  0.15809700  0.58758700  1
  C  224  1  0.08310100  0.16850700  0.60103100  1
  C  241  1  0.14787700  0.37902300  0.43992900  1
  C  242  1  0.15561100  0.36430800  0.41541700  1
  C  243  1  0.17925600  0.34386800  0.40661700  1
  C  244  1  0.19221600  0.33591800  0.42224700  1
  C  245  1  0.18290300  0.34974300  0.44691700  1
  C  246  1  0.16346000  0.37216400  0.45608000  1
  C  249  1  0.11788800  0.39702100  0.44636900  1
  C  250  1  0.11759900  0.41403700  0.43852500  1
  C  251  1  0.08214500  0.42674900  0.44030800  1
  C  252  1  0.04736400  0.42329000  0.45061100  1
  C  253  1  0.04883100  0.40748100  0.45970800  1
  C  254  1  0.08313400  0.39410500  0.45668800  1
  C  271  1  0.64785300  0.51208000  0.09458000  1
  C  272  1  0.65556900  0.48756600  0.08476800  1
  C  273  1  0.67909000  0.47875900  0.09645300  1
  C  274  1  0.69194100  0.49438500  0.12006000  1
  C  275  1  0.68274600  0.51906900  0.13087900  1
  C  276  1  0.66337400  0.52823900  0.11760400  1
  C  279  1  0.61790800  0.51853300  0.08299600  1
  C  280  1  0.61775200  0.51073700  0.05815000  1
  C  281  1  0.58236300  0.51260900  0.04722800  1
  C  282  1  0.54757600  0.52297700  0.06095500  1
  C  283  1  0.54896300  0.53203200  0.08585500  1
  C  284  1  0.58315100  0.52888100  0.09621400  1
  C  301  1  0.64792100  0.90048900  0.30672100  1
  C  302  1  0.65572900  0.91027700  0.29200400  1
  C  303  1  0.67947900  0.89864200  0.27160000  1
  C  304  1  0.69224800  0.87502600  0.26363400  1
  C  305  1  0.68287300  0.86418300  0.27745400  1
  C  306  1  0.66339500  0.87746000  0.29985900  1
  C  309  1  0.61776100  0.91204400  0.32461400  1
  C  310  1  0.61752800  0.93689300  0.34168100  1
  C  311  1  0.58204400  0.94780500  0.35438000  1
  C  312  1  0.54726300  0.93404900  0.35092600  1
  C  313  1  0.54876200  0.90915200  0.33509800  1
  C  314  1  0.58303600  0.89878900  0.32170000  1
  C  331  1  0.64800300  0.68841500  0.48289500  1
  C  332  1  0.65575200  0.70317000  0.50740100  1
  C  333  1  0.67933200  0.72364100  0.51618100  1
  C  334  1  0.69218600  0.73156200  0.50050500  1
  C  335  1  0.68297900  0.71765200  0.47582200  1
  C  336  1  0.66343600  0.69527400  0.46671800  1
  C  339  1  0.61792300  0.67047900  0.47656300  1
  C  340  1  0.61782300  0.65340100  0.48433100  1
  C  341  1  0.58244300  0.64061100  0.48250700  1
  C  342  1  0.54760000  0.64400000  0.47219800  1
  C  343  1  0.54894000  0.65988800  0.46319200  1
  C  344  1  0.58314800  0.67333300  0.46622100  1
  C  361  1  0.15517700  0.37848700  0.82560800  1
  C  362  1  0.17328600  0.36609500  0.83592800  1
  C  363  1  0.20213000  0.34847500  0.82392300  1
  C  364  1  0.20727100  0.33856800  0.79915800  1
  C  365  1  0.18604900  0.34867200  0.78752400  1
  C  366  1  0.16444000  0.37027000  0.80105300  1
  C  369  1  0.12706800  0.39744500  0.83997400  1
  C  370  1  0.12978900  0.41324500  0.86526600  1
  C  371  1  0.09677000  0.42776400  0.87799600  1
  C  372  1  0.06605200  0.43188200  0.86558100  1
  C  373  1  0.06606400  0.41867800  0.84047300  1
  C  374  1  0.09314900  0.39993100  0.82858200  1
  C  391  1  0.15526900  0.55319600  0.61664000  1
  C  392  1  0.17310600  0.57598600  0.62910100  1
  C  393  1  0.20202100  0.58166200  0.64669500  1
  C  394  1  0.20753300  0.56673700  0.65649300  1
  C  395  1  0.18651500  0.54492500  0.64636100  1
  C  396  1  0.16481200  0.53683900  0.62479300  1
  C  399  1  0.12717700  0.54856200  0.59766300  1
  C  400  1  0.12983000  0.55810500  0.58190200  1
  C  401  1  0.09680500  0.55628300  0.56737300  1
  C  402  1  0.06612900  0.53972100  0.56323500  1
  C  403  1  0.06624400  0.52775300  0.57637700  1
  C  404  1  0.09339400  0.53455600  0.59508400  1
  C  421  1  0.15522200  0.16949400  0.44209000  1
  C  422  1  0.17332200  0.15917900  0.41937200  1
  C  423  1  0.20228700  0.17117100  0.41381300  1
  C  424  1  0.20741200  0.19593300  0.42867600  1
  C  425  1  0.18615200  0.20757900  0.45040200  1
  C  426  1  0.16449000  0.19404700  0.45844300  1
  C  429  1  0.12708000  0.15512400  0.44665800  1
  C  430  1  0.12983900  0.12983700  0.43721900  1
  C  431  1  0.09685500  0.11711900  0.43908000  1
  C  432  1  0.06610800  0.12954600  0.45558700  1
  C  433  1  0.06608700  0.15464400  0.46739400  1
  C  434  1  0.09317300  0.16653100  0.46053800  1
  C  451  1  0.65512400  0.68891800  0.09718000  1
  C  452  1  0.67309100  0.70133800  0.08684700  1
  C  453  1  0.70201800  0.71892700  0.09878600  1
  C  454  1  0.70732800  0.72877700  0.12353500  1
  C  455  1  0.68617500  0.71869200  0.13521400  1
  C  456  1  0.66446900  0.69713000  0.12172100  1
  C  459  1  0.62696700  0.66998400  0.08284500  1
  C  460  1  0.62970900  0.65412600  0.05756400  1
  C  461  1  0.59668300  0.63959400  0.04485600  1
  C  462  1  0.56591200  0.63555000  0.05729500  1
  C  463  1  0.56587100  0.64886200  0.08240300  1
  C  464  1  0.59302700  0.66757000  0.09426200  1
  C  481  1  0.65515000  0.51429800  0.30620900  1
  C  482  1  0.67327100  0.49158800  0.29383200  1
  C  483  1  0.70211200  0.48596500  0.27620700  1
  C  484  1  0.70725300  0.50081500  0.26629100  1
  C  485  1  0.68602700  0.52255100  0.27638400  1
  C  486  1  0.66440700  0.53062600  0.29797900  1
  C  489  1  0.62704100  0.51889900  0.32516900  1
  C  490  1  0.62977600  0.50943800  0.34099600  1
  C  491  1  0.59676600  0.51125000  0.35553100  1
  C  492  1  0.56604200  0.52777400  0.35962700  1
  C  493  1  0.56602500  0.53963300  0.34638100  1
  C  494  1  0.59310400  0.53275000  0.32762400  1
  C  511  1  0.65516500  0.89791500  0.48094800  1
  C  512  1  0.67307300  0.90822500  0.50371700  1
  C  513  1  0.70193800  0.89625800  0.50937000  1
  C  514  1  0.70726500  0.87151600  0.49447500  1
  C  515  1  0.68617800  0.85987100  0.47268800  1
  C  516  1  0.66458700  0.87338900  0.46459600  1
  C  519  1  0.62711500  0.91228200  0.47631900  1
  C  520  1  0.62981500  0.93758300  0.48586100  1
  C  521  1  0.59681900  0.95030900  0.48403800  1
  C  522  1  0.56615100  0.93790400  0.46746200  1
  C  523  1  0.56623100  0.91279400  0.45548600  1
  C  524  1  0.59333100  0.90087600  0.46230000  1
  C  541  1  0.95446600  0.51369100  0.09794500  1
  C  542  1  0.93583100  0.49112500  0.08785600  1
  C  543  1  0.90603300  0.48608300  0.09979000  1
  C  544  1  0.90052600  0.50127400  0.12446200  1
  C  545  1  0.92209700  0.52287600  0.13592600  1
  C  546  1  0.94440100  0.53047500  0.12225100  1
  C  549  1  0.98423500  0.51754500  0.08382500  1
  C  550  1  0.98411600  0.50667400  0.05830900  1
  C  551  1  0.01894800  0.50721100  0.04611600  1
  C  552  1  0.05054500  0.52284900  0.05894200  1
  C  553  1  0.04689800  0.53723500  0.08384000  1
  C  554  1  0.01731700  0.53201600  0.09573600  1
  C  571  1  0.95444600  0.89719900  0.30479000  1
  C  572  1  0.93610200  0.90731000  0.29225200  1
  C  573  1  0.90631600  0.89547400  0.27524400  1
  C  574  1  0.90038700  0.87084900  0.26589100  1
  C  575  1  0.92173500  0.85932000  0.27604800  1
  C  576  1  0.94417700  0.87292400  0.29728100  1
  C  579  1  0.98419500  0.91128000  0.32278700  1
  C  580  1  0.98407900  0.93678800  0.33745900  1
  C  581  1  0.01889200  0.94897200  0.35021600  1
  C  582  1  0.05051300  0.93612000  0.35296700  1
  C  583  1  0.04691300  0.91120500  0.34239600  1
  C  584  1  0.01727500  0.89934600  0.32530600  1
  C  601  1  0.95436900  0.69016700  0.48136200  1
  C  602  1  0.93587900  0.70263200  0.50397100  1
  C  603  1  0.90613100  0.71965400  0.50913200  1
  C  604  1  0.90028600  0.72907100  0.49391300  1
  C  605  1  0.92169400  0.71893800  0.47224900  1
  C  606  1  0.94412600  0.69769600  0.46460500  1
  C  609  1  0.98413100  0.67216800  0.47743500  1
  C  610  1  0.98409500  0.65752300  0.48829800  1
  C  611  1  0.01894200  0.64479700  0.48773200  1
  C  612  1  0.05051000  0.64202800  0.47209200  1
  C  613  1  0.04685100  0.65256400  0.45772200  1
  C  614  1  0.01721900  0.66967300  0.46299300  1
  C  631  1  0.45438400  0.55373500  0.82493500  1
  C  632  1  0.43609000  0.57639800  0.83507600  1
  C  633  1  0.40630700  0.58160300  0.82326600  1
  C  634  1  0.40022000  0.56633400  0.79866200  1
  C  635  1  0.42148300  0.54461800  0.78711100  1
  C  636  1  0.44395600  0.53696000  0.80068400  1
  C  639  1  0.48411400  0.54977000  0.83899700  1
  C  640  1  0.48409300  0.56064200  0.86450900  1
  C  641  1  0.51893000  0.56003200  0.87665500  1
  C  642  1  0.55045300  0.54435800  0.86377400  1
  C  643  1  0.54675600  0.52997700  0.83887000  1
  C  644  1  0.51710900  0.53524300  0.82703500  1
  C  661  1  0.45447900  0.17025000  0.61791600  1
  C  662  1  0.43583000  0.16015400  0.63038100  1
  C  663  1  0.40604500  0.17209000  0.64736700  1
  C  664  1  0.40056800  0.19676700  0.65686800  1
  C  665  1  0.42214100  0.20823400  0.64673300  1
  C  666  1  0.44442800  0.19456300  0.62545200  1
  C  669  1  0.48425800  0.15613900  0.59994500  1
  C  670  1  0.48415800  0.13062700  0.58528800  1
  C  671  1  0.51899500  0.11844500  0.57255300  1
  C  672  1  0.55057400  0.13128500  0.56974600  1
  C  673  1  0.54693300  0.15618700  0.58029100  1
  C  674  1  0.51734500  0.16806500  0.59741300  1
  C  691  1  0.45448800  0.37708700  0.44125900  1
  C  692  1  0.43605700  0.36457800  0.41863500  1
  C  693  1  0.40630100  0.34755600  0.41347800  1
  C  694  1  0.40052700  0.33814000  0.42870800  1
  C  695  1  0.42194300  0.34828500  0.45036900  1
  C  696  1  0.44431300  0.36954300  0.45800800  1
  C  699  1  0.48422900  0.39508900  0.44517500  1
  C  700  1  0.48409300  0.40977000  0.43435100  1
  C  701  1  0.51890600  0.42252700  0.43491900  1
  C  702  1  0.55054200  0.42527200  0.45051000  1
  C  703  1  0.54696000  0.41469300  0.46484800  1
  C  704  1  0.51733100  0.39759900  0.45961400  1
  C  721  1  0.94820700  0.75613400  0.21638100  1
  C  723  1  0.93574600  0.79793000  0.23506800  1
  C  724  1  0.91585500  0.79395800  0.21428100  1
  C  726  1  0.92929500  0.75216600  0.19527900  1
  C  729  1  0.93112600  0.73043900  0.17424200  1
  C  731  1  0.94610900  0.82069100  0.25219300  1
  C  733  1  0.94584200  0.56679400  0.23910700  1
  C  735  1  0.93670800  0.54308900  0.19705600  1
  C  736  1  0.91873400  0.52547600  0.20058500  1
  C  738  1  0.92872700  0.54894300  0.24266800  1
  C  741  1  0.92943500  0.54996000  0.26455100  1
  C  743  1  0.94719800  0.53812300  0.17450500  1
  C  745  1  0.94752200  0.77854900  0.42869100  1
  C  747  1  0.93584100  0.76002600  0.45202500  1
  C  748  1  0.91637900  0.78091200  0.46900300  1
  C  750  1  0.92898400  0.79973100  0.44595900  1
  C  753  1  0.93042700  0.82067900  0.44509800  1
  C  755  1  0.94621100  0.74284700  0.45757600  1
  C  757  1  0.44564700  0.31138100  0.70600000  1
  C  759  1  0.43675300  0.26932000  0.68774600  1
  C  760  1  0.41886000  0.27286700  0.70891600  1
  C  762  1  0.42859800  0.31496100  0.72743500  1
  C  765  1  0.42908400  0.33689300  0.74824600  1
  C  767  1  0.44725800  0.24676800  0.67018300  1
  C  769  1  0.44859500  0.50135100  0.68398500  1
  C  771  1  0.43535500  0.52437200  0.72569900  1
  C  772  1  0.41503000  0.54095900  0.72157400  1
  C  774  1  0.42928200  0.51828000  0.67987200  1
  C  777  1  0.43132700  0.51761600  0.65816200  1
  C  779  1  0.44560600  0.53021500  0.74853400  1
  C  781  1  0.44651200  0.28894900  0.49427100  1
  C  783  1  0.43636100  0.30743500  0.47077000  1
  C  784  1  0.41779500  0.28640400  0.45337300  1
  C  786  1  0.42884500  0.26763800  0.47661200  1
  C  789  1  0.42990800  0.24671600  0.47751800  1
  C  791  1  0.44682700  0.32492500  0.46566800  1
  C  793  1  0.16091700  0.50140500  0.70603600  1
  C  795  1  0.17319200  0.52501200  0.68786100  1
  C  796  1  0.19349600  0.54150400  0.70862100  1
  C  798  1  0.18028600  0.51821000  0.72711100  1
  C  801  1  0.17887800  0.51717500  0.74797200  1
  C  803  1  0.16274000  0.53107600  0.67106000  1
  C  805  1  0.16286400  0.28937400  0.68433900  1
  C  807  1  0.17200900  0.30731000  0.72636400  1
  C  808  1  0.19042200  0.28618800  0.72256600  1
  C  810  1  0.18041800  0.26797000  0.68050400  1
  C  813  1  0.17986700  0.24722700  0.65850900  1
  C  815  1  0.16136500  0.32461900  0.74900400  1
  C  817  1  0.16088400  0.31069300  0.49369200  1
  C  819  1  0.17272600  0.26887400  0.47001000  1
  C  820  1  0.19280600  0.27307400  0.45340800  1
  C  822  1  0.18002600  0.31490600  0.47678400  1
  C  825  1  0.17867500  0.33680100  0.47781400  1
  C  827  1  0.16224200  0.24602700  0.46400800  1
  C  829  1  0.66288100  0.56642000  0.21705100  1
  C  831  1  0.67201700  0.54237300  0.23503500  1
  C  832  1  0.69041800  0.52502700  0.21392100  1
  C  834  1  0.68041800  0.54882800  0.19565400  1
  C  837  1  0.67979200  0.55001900  0.17487900  1
  C  839  1  0.66135900  0.53707000  0.25236200  1
  C  841  1  0.66125800  0.77829900  0.23842100  1
  C  843  1  0.67274600  0.76015300  0.19656500  1
  C  844  1  0.69262500  0.78099100  0.20069600  1
  C  846  1  0.68023200  0.79944100  0.24256100  1
  C  849  1  0.67904000  0.82028700  0.26447300  1
  C  851  1  0.66217000  0.74324600  0.17376600  1
  C  853  1  0.66285800  0.75663400  0.42865100  1
  C  855  1  0.67223800  0.79864600  0.45270100  1
  C  856  1  0.69075700  0.79482000  0.46997900  1
  C  858  1  0.68051500  0.75277500  0.44617700  1
  C  861  1  0.67989800  0.73078300  0.44493300  1
  C  863  1  0.66160100  0.82129500  0.45805500  1
  C  865  1  0.81508400  0.70322800  0.06256100  1
  C  867  1  0.86170700  0.73430600  0.07222600  1
  C  868  1  0.83031700  0.74958000  0.07438800  1
  C  870  1  0.78361700  0.71864800  0.06525800  1
  C  873  1  0.74532100  0.71222900  0.06638900  1
  C  875  1  0.90055300  0.74178600  0.07547500  1
  C  877  1  0.81524000  0.46505500  0.29177000  1
  C  879  1  0.86184200  0.44389100  0.26060900  1
  C  880  1  0.83042900  0.43097200  0.24523900  1
  C  882  1  0.78375500  0.45253700  0.27625700  1
  C  885  1  0.74555200  0.46015200  0.28276000  1
  C  887  1  0.90068600  0.43967600  0.25313300  1
  C  889  1  0.81469200  0.93228300  0.52979600  1
  C  891  1  0.86153800  0.92268100  0.55115000  1
  C  892  1  0.83026900  0.92059100  0.56438000  1
  C  894  1  0.78334900  0.92966600  0.54264600  1
  C  897  1  0.74494500  0.92872100  0.53532500  1
  C  899  1  0.90043800  0.91946500  0.55531900  1
  C  901  1  0.31524300  0.36403800  0.86041000  1
  C  903  1  0.36186200  0.33287600  0.85036300  1
  C  904  1  0.33046300  0.31749600  0.84790200  1
  C  906  1  0.28376700  0.34851500  0.85739800  1
  C  909  1  0.24556000  0.35501000  0.85628600  1
  C  911  1  0.40070700  0.32539700  0.84706200  1
  C  913  1  0.31475600  0.60203800  0.63111200  1
  C  915  1  0.36152000  0.62348000  0.66209500  1
  C  916  1  0.33021200  0.63674200  0.67735800  1
  C  918  1  0.28337400  0.61492800  0.64652200  1
  C  921  1  0.24498200  0.60758900  0.64012100  1
  C  923  1  0.40040000  0.62768800  0.66951900  1
  C  925  1  0.31539900  0.13448500  0.39273300  1
  C  927  1  0.36189500  0.14448400  0.37152000  1
  C  928  1  0.33042800  0.14693800  0.35863800  1
  C  930  1  0.28385200  0.13748800  0.38025600  1
  C  933  1  0.24571100  0.13880800  0.38806500  1
  C  935  1  0.40071300  0.14778400  0.36729400  1
  C  937  1  0.29394700  0.60200100  0.85940200  1
  C  939  1  0.24728300  0.62348300  0.84984300  1
  C  940  1  0.27862100  0.63682800  0.84801200  1
  C  942  1  0.32537000  0.61493800  0.85699200  1
  C  945  1  0.36372700  0.60748500  0.85589300  1
  C  947  1  0.20846600  0.62757100  0.84636000  1
  C  949  1  0.29310300  0.13523100  0.63151700  1
  C  951  1  0.24672900  0.14519500  0.66278500  1
  C  952  1  0.27825200  0.14751900  0.67804000  1
  C  954  1  0.32470900  0.13817400  0.64694000  1
  C  957  1  0.36279200  0.13968700  0.64049400  1
  C  959  1  0.20798200  0.14874400  0.67046200  1
  C  961  1  0.29347800  0.36350100  0.39307000  1
  C  963  1  0.24693800  0.33239300  0.37156400  1
  C  964  1  0.27835500  0.31720600  0.35835700  1
  C  966  1  0.32498100  0.34814400  0.38028600  1
  C  969  1  0.36324300  0.35450400  0.38795200  1
  C  971  1  0.20815300  0.32477800  0.36743200  1
  C  973  1  0.79309700  0.46508900  0.06292700  1
  C  975  1  0.74672100  0.44374400  0.07283500  1
  C  976  1  0.77824400  0.43081400  0.07515700  1
  C  978  1  0.82470300  0.45260500  0.06586200  1
  C  981  1  0.86278600  0.46056800  0.06738300  1
  C  983  1  0.70796800  0.43958300  0.07633600  1
  C  985  1  0.79363600  0.93189500  0.29118000  1
  C  987  1  0.74705300  0.92222500  0.26007600  1
  C  988  1  0.77844500  0.92022800  0.24486800  1
  C  990  1  0.82511300  0.92930200  0.27580100  1
  C  993  1  0.86338600  0.92799700  0.28214800  1
  C  995  1  0.70825700  0.91872200  0.25247700  1
  C  997  1  0.79337600  0.70390100  0.53001200  1
  C  999  1  0.74692700  0.73513900  0.55126600  1
  C  1000  1  0.77839700  0.75038900  0.56428600  1
  C  1002  1  0.82492900  0.71931800  0.54259700  1
  C  1005  1  0.86308400  0.71284900  0.53484400  1
  C  1007  1  0.70816100  0.74278800  0.55537300  1
  C  1009  1  0.05801100  0.57052500  0.95527000  1
  C  1011  1  0.04441400  0.61095300  0.98489000  1
  C  1012  1  0.05372600  0.61779000  0.96795400  1
  C  1014  1  0.06733500  0.57737600  0.93833400  1
  C  1017  1  0.07646500  0.56099300  0.91485500  1
  C  1019  1  0.03713400  0.62774900  0.00845800  1
  C  1021  1  0.05808800  0.49076000  0.42455600  1
  C  1023  1  0.04438700  0.47994800  0.38413900  1
  C  1024  1  0.05352300  0.45615700  0.37730600  1
  C  1026  1  0.06725300  0.46695400  0.41770700  1
  C  1029  1  0.07633500  0.45985500  0.43408800  1
  C  1031  1  0.03705100  0.48672500  0.36735300  1
  C  1033  1  0.05827400  0.03978200  0.50427600  1
  C  1035  1  0.04449300  0.01020000  0.51511000  1
  C  1036  1  0.05375600  0.02714600  0.53888700  1
  C  1038  1  0.06756000  0.05672600  0.52806500  1
  C  1041  1  0.07681600  0.08017900  0.53514000  1
  C  1043  1  0.03722000  0.98663400  0.50834000  1
  C  1045  1  0.55834100  0.49683600  0.96745900  1
  C  1047  1  0.54447500  0.45643200  0.93789200  1
  C  1048  1  0.55360800  0.44960200  0.95485300  1
  C  1050  1  0.56751200  0.48999000  0.98441800  1
  C  1053  1  0.57668300  0.50637000  0.00788500  1
  C  1055  1  0.53708300  0.43964300  0.91433800  1
  C  1057  1  0.55823500  0.57662900  0.49825600  1
  C  1059  1  0.54439800  0.58747400  0.53867000  1
  C  1060  1  0.55369900  0.61124600  0.54549800  1
  C  1062  1  0.56755600  0.60041500  0.50510000  1
  C  1065  1  0.57684200  0.60748100  0.48871700  1
  C  1067  1  0.53705100  0.58071800  0.55547200  1
  C  1069  1  0.55795100  0.02756100  0.41840900  1
  C  1071  1  0.54439200  0.05719200  0.40761300  1
  C  1072  1  0.55359300  0.04024400  0.38382700  1
  C  1074  1  0.56717800  0.01061500  0.39461000  1
  C  1077  1  0.57621100  0.98712300  0.38750100  1
  C  1079  1  0.53708000  0.08076100  0.41439700  1
  C  1081  1  0.05001100  0.48921700  0.96758500  1
  C  1083  1  0.06636500  0.44921200  0.93812900  1
  C  1084  1  0.05225100  0.44160800  0.95371000  1
  C  1086  1  0.03593000  0.48164600  0.98320100  1
  C  1089  1  0.02308000  0.49785100  0.00596900  1
  C  1091  1  0.07555300  0.43331700  0.91458500  1
  C  1093  1  0.04987600  0.58430500  0.50588900  1
  C  1095  1  0.06626400  0.59493600  0.54591100  1
  C  1096  1  0.05231000  0.61813900  0.55346400  1
  C  1098  1  0.03595400  0.60751300  0.51340800  1
  C  1101  1  0.02326800  0.61404700  0.49715700  1
  C  1103  1  0.07551500  0.58731600  0.56182400  1
  C  1105  1  0.05009100  0.02742800  0.41084800  1
  C  1107  1  0.06626400  0.05697800  0.40039800  1
  C  1108  1  0.05204400  0.04145000  0.37722300  1
  C  1110  1  0.03590100  0.01186600  0.38767300  1
  C  1113  1  0.02303500  0.98909600  0.38108800  1
  C  1115  1  0.07537000  0.08054900  0.40813500  1
  C  1117  1  0.54980700  0.57810800  0.95529700  1
  C  1119  1  0.56630500  0.61810400  0.98470500  1
  C  1120  1  0.55245100  0.62568000  0.96905300  1
  C  1122  1  0.53597700  0.58565100  0.93960900  1
  C  1125  1  0.52324700  0.56942700  0.91682000  1
  C  1127  1  0.57554400  0.63400800  0.00824500  1
  C  1129  1  0.55005200  0.48311400  0.41700900  1
  C  1131  1  0.56634600  0.47258000  0.37699900  1
  C  1132  1  0.55218200  0.44940500  0.36939200  1
  C  1134  1  0.53592100  0.45993700  0.40943300  1
  C  1137  1  0.52304900  0.45338000  0.42563800  1
  C  1139  1  0.57552900  0.48023300  0.36110600  1
  C  1141  1  0.54990400  0.03981000  0.51207800  1
  C  1143  1  0.56629900  0.01041700  0.52270500  1
  C  1144  1  0.55232400  0.02606000  0.54590600  1
  C  1146  1  0.53595900  0.05549000  0.53528200  1
  C  1149  1  0.52323500  0.07827100  0.54181800  1
  C  1151  1  0.57554400  0.98688300  0.51508100  1
  C  1153  1  0.12371000  0.61639400  0.10146300  1
  C  1155  1  0.07627000  0.59820800  0.11465800  1
  C  1156  1  0.05327200  0.61913100  0.12409400  1
  C  1158  1  0.10009800  0.63697500  0.11042800  1
  C  1161  1  0.11132300  0.65650200  0.10885700  1
  C  1163  1  0.06143400  0.57794100  0.11363100  1
  C  1165  1  0.12405000  0.59141200  0.37857000  1
  C  1167  1  0.07626500  0.62256400  0.39690500  1
  C  1168  1  0.05282300  0.61079000  0.37619300  1
  C  1170  1  0.10002700  0.57950600  0.35819900  1
  C  1173  1  0.11127900  0.55840400  0.33867600  1
  C  1175  1  0.06176700  0.64198300  0.41716800  1
  C  1177  1  0.12359200  0.89364900  0.40405100  1
  C  1179  1  0.07606100  0.88050600  0.37272100  1
  C  1180  1  0.05308300  0.87107600  0.38422200  1
  C  1182  1  0.10001000  0.88468500  0.41567900  1
  C  1185  1  0.11130200  0.88622100  0.43675100  1
  C  1187  1  0.06120700  0.88152700  0.35348100  1
  C  1189  1  0.62401900  0.45084200  0.82085500  1
  C  1191  1  0.57613100  0.46915400  0.80807300  1
  C  1192  1  0.55270500  0.44843900  0.79917300  1
  C  1194  1  0.60001200  0.43046800  0.81242800  1
  C  1197  1  0.61133100  0.41095300  0.81400400  1
  C  1199  1  0.56159300  0.48940700  0.80891500  1
  C  1201  1  0.62359400  0.47635900  0.54406500  1
  C  1203  1  0.57611600  0.44499900  0.52586900  1
  C  1204  1  0.55313300  0.45648000  0.54679900  1
  C  1206  1  0.60000300  0.48796500  0.56465300  1
  C  1209  1  0.61125400  0.50904800  0.58418900  1
  C  1211  1  0.56128300  0.42575500  0.50560100  1
  C  1213  1  0.62400200  0.17406200  0.51900900  1
  C  1215  1  0.57635200  0.18698500  0.55024300  1
  C  1216  1  0.55300300  0.19606000  0.53855900  1
  C  1218  1  0.60006200  0.18266300  0.50719100  1
  C  1221  1  0.61129000  0.18110300  0.48609600  1
  C  1223  1  0.56182900  0.18613900  0.56964800  1
  C  1225  1  0.98617400  0.47722700  0.82117800  1
  C  1227  1  0.03205300  0.44496200  0.80711000  1
  C  1228  1  0.05450200  0.45563600  0.79662000  1
  C  1230  1  0.00926100  0.48802500  0.81113700  1
  C  1233  1  0.99814200  0.50892400  0.81226800  1
  C  1235  1  0.04683600  0.42595000  0.80858000  1
  C  1237  1  0.98586300  0.17402900  0.54512900  1
  C  1239  1  0.03195000  0.18794400  0.52690700  1
  C  1240  1  0.05465600  0.19815200  0.54796400  1
  C  1242  1  0.00919600  0.18377800  0.56586200  1
  C  1245  1  0.99805100  0.18262200  0.58561400  1
  C  1247  1  0.04649400  0.18665100  0.50646600  1
  C  1249  1  0.98654700  0.44997100  0.51756800  1
  C  1251  1  0.03205000  0.46802600  0.55005000  1
  C  1252  1  0.05401300  0.44668100  0.53965200  1
  C  1254  1  0.00918400  0.42895400  0.50704100  1
  C  1257  1  0.99808900  0.40920300  0.48612700  1
  C  1259  1  0.04709900  0.48849400  0.56893700  1
  C  1261  1  0.48588100  0.59045800  0.10190400  1
  C  1263  1  0.53207900  0.62252700  0.11565900  1
  C  1264  1  0.55490900  0.61163700  0.12577600  1
  C  1266  1  0.50933100  0.57943500  0.11156500  1
  C  1269  1  0.49820700  0.55853700  0.11044200  1
  C  1271  1  0.54654600  0.64168500  0.11434200  1
  C  1273  1  0.48659800  0.89384000  0.37767700  1
  C  1275  1  0.53211400  0.87941900  0.39573400  1
  C  1276  1  0.55404700  0.86845000  0.37437900  1
  C  1278  1  0.50920700  0.88332700  0.35665000  1
  C  1281  1  0.49807100  0.88445700  0.33688700  1
  C  1283  1  0.54716900  0.88100000  0.41620100  1
  C  1285  1  0.48584300  0.61745400  0.40468100  1
  C  1287  1  0.53211700  0.59918100  0.37265200  1
  C  1288  1  0.55495300  0.62018500  0.38359900  1
  C  1290  1  0.50929900  0.63813300  0.41576200  1
  C  1293  1  0.49812400  0.65788600  0.43666600  1
  C  1295  1  0.54662900  0.57872000  0.35349600  1
  N  8  1  0.89783500  0.75233300  0.13160900  1
  N  15  1  0.09130800  0.62685700  0.05053300  1
  N  17  1  0.94968300  0.68022600  0.12638900  1
  N  18  1  0.95501300  0.64672400  0.04538900  1
  N  27  1  0.09249100  0.66510700  0.09768700  1
  N  28  1  0.02523900  0.62215700  0.02387900  1
  N  29  1  0.92540500  0.72955500  0.15424700  1
  N  30  1  0.92798500  0.73625600  0.08552300  1
  N  38  1  0.89817300  0.48535200  0.24266400  1
  N  45  1  0.09119000  0.52980600  0.36836800  1
  N  47  1  0.95016600  0.55214400  0.31483100  1
  N  48  1  0.95498500  0.50463800  0.34835100  1
  N  57  1  0.09248800  0.53861300  0.33004700  1
  N  58  1  0.02518300  0.50774600  0.37296400  1
  N  59  1  0.92576900  0.53082900  0.26564600  1
  N  60  1  0.92810600  0.45526800  0.25870300  1
  N  68  1  0.89785200  0.86335200  0.50962600  1
  N  75  1  0.09139900  0.94453700  0.46543600  1
  N  77  1  0.94998400  0.86869700  0.44286500  1
  N  78  1  0.95505300  0.94970600  0.49038900  1
  N  87  1  0.09254100  0.89738700  0.45655300  1
  N  88  1  0.02530700  0.97119500  0.48733900  1
  N  89  1  0.92555500  0.84079200  0.46420600  1
  N  90  1  0.92784200  0.90948000  0.53970900  1
  N  98  1  0.39807200  0.31504600  0.79094500  1
  N  105  1  0.59129800  0.44061600  0.87228500  1
  N  107  1  0.45028000  0.38722500  0.79642900  1
  N  108  1  0.45503100  0.42068100  0.87741600  1
  N  117  1  0.59259300  0.40230600  0.82516700  1
  N  118  1  0.52526200  0.44526100  0.89892500  1
  N  119  1  0.42566100  0.33805300  0.76851300  1
  N  120  1  0.42809300  0.33098600  0.83703600  1
  N  128  1  0.39769100  0.58208800  0.68001000  1
  N  135  1  0.59127200  0.53777000  0.55459000  1
  N  137  1  0.44966900  0.51522100  0.60794300  1
  N  138  1  0.45495100  0.56273600  0.57443200  1
  N  147  1  0.59244000  0.52883200  0.59281700  1
  N  148  1  0.52519500  0.55969900  0.54987700  1
  N  149  1  0.42532500  0.53669800  0.65726800  1
  N  150  1  0.42783600  0.61210400  0.66394200  1
  N  158  1  0.39813700  0.20397800  0.41292000  1
  N  165  1  0.59118300  0.12282200  0.45747800  1
  N  167  1  0.45002600  0.19868300  0.47977500  1
  N  168  1  0.45498600  0.11767200  0.43229900  1
  N  177  1  0.59247300  0.16995800  0.46631100  1
  N  178  1  0.52517700  0.09616600  0.43541100  1
  N  179  1  0.42572600  0.22654300  0.45838600  1
  N  180  1  0.42811900  0.15786000  0.38288400  1
  N  188  1  0.21227200  0.58152400  0.79046600  1
  N  195  1  0.01261600  0.54393900  0.87212000  1
  N  197  1  0.16002600  0.51507000  0.79619000  1
  N  198  1  0.15109100  0.56569200  0.87785900  1
  N  207  1  0.01642000  0.52887200  0.82360500  1
  N  208  1  0.07883800  0.56750700  0.89917300  1
  N  209  1  0.18404500  0.53622700  0.76808000  1
  N  210  1  0.18115300  0.61191600  0.83626700  1
  N  218  1  0.21183300  0.20468800  0.68035400  1
  N  225  1  0.01279300  0.12285100  0.56074200  1
  N  227  1  0.15989300  0.19885700  0.60804300  1
  N  228  1  0.15120300  0.11724000  0.57696800  1
  N  237  1  0.01634900  0.17133100  0.59426700  1
  N  238  1  0.07897900  0.09587400  0.55734300  1
  N  239  1  0.18383600  0.22697500  0.65730700  1
  N  240  1  0.18069000  0.15890500  0.66497100  1
  N  248  1  0.21207200  0.31487300  0.41342000  1
  N  255  1  0.01250700  0.43412900  0.45115000  1
  N  257  1  0.16013200  0.38710700  0.47996600  1
  N  258  1  0.15096400  0.41818500  0.42938900  1
  N  267  1  0.01636900  0.40065700  0.46618700  1
  N  268  1  0.07863400  0.43766200  0.42759200  1
  N  269  1  0.18402100  0.33780300  0.45874400  1
  N  270  1  0.18082900  0.33029300  0.38307100  1
  N  278  1  0.71168500  0.48555500  0.13230800  1
  N  285  1  0.51279800  0.52361100  0.05063700  1
  N  287  1  0.65992200  0.55212100  0.12657000  1
  N  288  1  0.65112500  0.50157300  0.04488600  1
  N  297  1  0.51648100  0.53858700  0.09913700  1
  N  298  1  0.57886600  0.49988600  0.02359500  1
  N  299  1  0.68371700  0.53094600  0.15464200  1
  N  300  1  0.68064200  0.45521400  0.08648800  1
  N  308  1  0.71210100  0.86279500  0.24259200  1
  N  315  1  0.51241200  0.94434800  0.36176700  1
  N  317  1  0.65996900  0.86852600  0.31479900  1
  N  318  1  0.65090400  0.95017900  0.34585300  1
  N  327  1  0.51631000  0.89583100  0.32830700  1
  N  328  1  0.57860100  0.97144200  0.36530600  1
  N  329  1  0.68394400  0.84041600  0.26553500  1
  N  330  1  0.68096400  0.90859600  0.25801200  1
  N  338  1  0.71199500  0.75261700  0.50929300  1
  N  345  1  0.51283700  0.63305200  0.47160300  1
  N  347  1  0.65990400  0.68033000  0.44285600  1
  N  348  1  0.65124000  0.64928800  0.49345000  1
  N  357  1  0.51639800  0.66655100  0.45661700  1
  N  358  1  0.57900500  0.62968000  0.49521200  1
  N  359  1  0.68392000  0.72958200  0.46398100  1
  N  360  1  0.68086300  0.73726400  0.53971700  1
  N  368  1  0.23312000  0.32014800  0.78706800  1
  N  375  1  0.03761500  0.44875400  0.87730400  1
  N  377  1  0.15588000  0.38329700  0.79043500  1
  N  378  1  0.16397100  0.41611700  0.87751300  1
  N  387  1  0.04755900  0.42841600  0.82941500  1
  N  388  1  0.09468600  0.43995100  0.90173600  1
  N  389  1  0.18870400  0.33692200  0.76381300  1
  N  390  1  0.23088300  0.34439400  0.83529800  1
  N  398  1  0.23357400  0.57306600  0.67482500  1
  N  405  1  0.03765300  0.53459000  0.54638800  1
  N  407  1  0.15635500  0.51318100  0.61175700  1
  N  408  1  0.16395000  0.56758000  0.57910000  1
  N  417  1  0.04789000  0.50691200  0.56655400  1
  N  418  1  0.09468600  0.56784800  0.55519700  1
  N  419  1  0.18952200  0.53287900  0.65801800  1
  N  420  1  0.23050500  0.59729600  0.65086000  1
  N  428  1  0.23341500  0.20799600  0.42240300  1
  N  435  1  0.03771800  0.11784200  0.46079300  1
  N  437  1  0.15587100  0.20468800  0.48207700  1
  N  438  1  0.16400900  0.11758600  0.42778000  1
  N  447  1  0.04745300  0.16577100  0.48815300  1
  N  448  1  0.09475100  0.09337500  0.42752300  1
  N  449  1  0.18900800  0.23128600  0.46247200  1
  N  450  1  0.23103000  0.15978100  0.39837200  1
  N  458  1  0.73333900  0.74711900  0.13556900  1
  N  465  1  0.53747300  0.61867300  0.04559300  1
  N  467  1  0.65598200  0.68411400  0.13235200  1
  N  468  1  0.66390800  0.65126200  0.04533000  1
  N  477  1  0.54730200  0.63915400  0.09347700  1
  N  478  1  0.59460000  0.62737000  0.02111300  1
  N  479  1  0.68908400  0.73037700  0.15891800  1
  N  480  1  0.73068400  0.72300900  0.08737200  1
  N  488  1  0.73310600  0.49447700  0.24787100  1
  N  495  1  0.53762300  0.53294900  0.37651600  1
  N  497  1  0.65582300  0.55426900  0.31099200  1
  N  498  1  0.66396100  0.50007200  0.34387600  1
  N  507  1  0.54739900  0.56039000  0.35603700  1
  N  508  1  0.59468000  0.49970900  0.36773100  1
  N  509  1  0.68870100  0.53450000  0.26462400  1
  N  510  1  0.73086400  0.47050900  0.27213100  1
  N  518  1  0.73313600  0.85945400  0.50082700  1
  N  525  1  0.53771200  0.94963900  0.46233000  1
  N  527  1  0.65619500  0.86279100  0.44093300  1
  N  528  1  0.66394900  0.94984300  0.49533800  1
  N  537  1  0.54789500  0.90179000  0.43463800  1
  N  538  1  0.59472100  0.97404900  0.49561300  1
  N  539  1  0.68893400  0.83616400  0.46071500  1
  N  540  1  0.73048200  0.90768400  0.52497700  1
  N  548  1  0.87405100  0.49538000  0.13660900  1
  N  555  1  0.08385400  0.52467000  0.04807900  1
  N  557  1  0.95261500  0.55412100  0.13245800  1
  N  558  1  0.95061800  0.49715600  0.04529200  1
  N  567  1  0.06449100  0.55840600  0.09378200  1
  N  568  1  0.02332700  0.49265900  0.02267200  1
  N  569  1  0.91956600  0.53492100  0.15962800  1
  N  570  1  0.87739200  0.47057800  0.08837200  1
  N  578  1  0.87371900  0.85879700  0.24794200  1
  N  585  1  0.08382100  0.94698300  0.36566400  1
  N  587  1  0.95225400  0.86271600  0.31073200  1
  N  588  1  0.95056700  0.94979100  0.34096600  1
  N  597  1  0.06441700  0.90132900  0.35371100  1
  N  598  1  0.02323900  0.97242900  0.35917200  1
  N  599  1  0.91887200  0.83562300  0.26445000  1
  N  600  1  0.87783100  0.90696900  0.27114200  1
  N  608  1  0.87368000  0.74705500  0.49983400  1
  N  615  1  0.08384200  0.62934600  0.47024400  1
  N  617  1  0.95236500  0.68429200  0.44095200  1
  N  618  1  0.95063300  0.65395900  0.49778600  1
  N  627  1  0.06459100  0.64146100  0.43660100  1
  N  628  1  0.02338300  0.63593000  0.50230200  1
  N  629  1  0.91892600  0.73057600  0.46018800  1
  N  630  1  0.87760100  0.72373800  0.52470400  1
  N  638  1  0.37352100  0.57225800  0.78664800  1
  N  645  1  0.58378500  0.54250100  0.87460100  1
  N  647  1  0.45212100  0.51330100  0.79044400  1
  N  648  1  0.45066900  0.57021100  0.87757000  1
  N  657  1  0.56449000  0.50885300  0.82885000  1
  N  658  1  0.52339700  0.57458900  0.90009400  1
  N  659  1  0.41853800  0.53250200  0.76341400  1
  N  660  1  0.37800900  0.59733800  0.83481300  1
  N  668  1  0.37412000  0.20892000  0.67492400  1
  N  675  1  0.58388000  0.12043300  0.55705100  1
  N  677  1  0.45265500  0.20478100  0.61202500  1
  N  678  1  0.45066900  0.11759800  0.58177700  1
  N  687  1  0.56463500  0.16619400  0.56915800  1
  N  688  1  0.52341500  0.09501200  0.56369900  1
  N  689  1  0.41963600  0.23193600  0.65838800  1
  N  690  1  0.37739800  0.16067600  0.65145400  1
  N  698  1  0.37397500  0.32012900  0.42278500  1
  N  705  1  0.58384100  0.43797400  0.45234500  1
  N  707  1  0.45237800  0.38299400  0.48166900  1
  N  708  1  0.45056900  0.41329700  0.42488100  1
  N  717  1  0.56446400  0.42600400  0.48603800  1
  N  718  1  0.52324700  0.43147100  0.42040900  1
  N  719  1  0.41927900  0.33659800  0.46238200  1
  N  720  1  0.37776100  0.34345300  0.39790900  1
  N  722  1  0.95176500  0.77870500  0.23497800  1
  N  725  1  0.91415500  0.77161100  0.19536200  1
  N  734  1  0.95016800  0.56294000  0.21661700  1
  N  737  1  0.91610900  0.52893100  0.22291200  1
  N  746  1  0.95127600  0.75997700  0.43269200  1
  N  749  1  0.91443700  0.79978500  0.46551000  1
  N  758  1  0.45005300  0.28887900  0.68739300  1
  N  761  1  0.41613000  0.29521000  0.72775000  1
  N  770  1  0.45196500  0.50539600  0.70659000  1
  N  773  1  0.41354600  0.53749600  0.69920900  1
  N  782  1  0.45061300  0.30758800  0.49040200  1
  N  785  1  0.41544600  0.26750300  0.45679800  1
  N  794  1  0.15708100  0.50577000  0.68770300  1
  N  797  1  0.19550600  0.53767900  0.72727800  1
  N  806  1  0.15835500  0.30779600  0.70693700  1
  N  809  1  0.19323400  0.26752500  0.70013000  1
  N  818  1  0.15694800  0.28800700  0.48934900  1
  N  821  1  0.19492800  0.29555000  0.45723100  1
  N  830  1  0.65837200  0.56227300  0.23549200  1
  N  833  1  0.69321800  0.52876700  0.19523600  1
  N  842  1  0.65722500  0.75993900  0.21575200  1
  N  845  1  0.69485600  0.79965800  0.22316000  1
  N  854  1  0.65841100  0.77923900  0.43283400  1
  N  857  1  0.69349900  0.77238200  0.46620900  1
  N  866  1  0.85259000  0.71162300  0.06624300  1
  N  869  1  0.79265900  0.74143200  0.07149300  1
  N  878  1  0.85274800  0.46038500  0.28336900  1
  N  881  1  0.79277600  0.43619700  0.25339800  1
  N  890  1  0.85225000  0.92860200  0.53442800  1
  N  893  1  0.79255600  0.92351600  0.55923700  1
  N  902  1  0.35275300  0.35564200  0.85666000  1
  N  905  1  0.29280500  0.32565100  0.85085100  1
  N  914  1  0.35229300  0.60669700  0.63946400  1
  N  917  1  0.29252500  0.63157400  0.66925000  1
  N  926  1  0.35288000  0.13821600  0.38802300  1
  N  929  1  0.29279900  0.14403200  0.36392600  1
  N  938  1  0.25644900  0.60664100  0.85562400  1
  N  941  1  0.31627900  0.63164600  0.85098400  1
  N  950  1  0.25566100  0.13900300  0.64002300  1
  N  953  1  0.31584200  0.14462700  0.66980000  1
  N  962  1  0.25600300  0.35505200  0.38835400  1
  N  965  1  0.31598700  0.32538700  0.36364100  1
  N  974  1  0.75565200  0.46033600  0.06667100  1
  N  977  1  0.81583600  0.43617700  0.07228700  1
  N  986  1  0.75615200  0.92813800  0.28274400  1
  N  989  1  0.81608700  0.92314700  0.25303700  1
  N  998  1  0.75592100  0.71239200  0.53467800  1
  N  1001  1  0.81600400  0.74216000  0.55903100  1
  N  1010  1  0.04740600  0.58738600  0.97764300  1
  N  1013  1  0.06444400  0.60095800  0.94566500  1
  N  1022  1  0.04749100  0.49627900  0.40769800  1
  N  1025  1  0.06421900  0.45069300  0.39413500  1
  N  1034  1  0.04760400  0.01742200  0.49877600  1
  N  1037  1  0.06455600  0.04941800  0.54433100  1
  N  1046  1  0.54766200  0.47998200  0.94510100  1
  N  1049  1  0.56439300  0.46642600  0.97712800  1
  N  1058  1  0.54751700  0.57113700  0.51511400  1
  N  1061  1  0.56454000  0.61668300  0.52867200  1
  N  1070  1  0.54739300  0.04994400  0.42393200  1
  N  1073  1  0.56424800  0.01794400  0.37835800  1
  N  1082  1  0.06400100  0.47289300  0.94587900  1
  N  1085  1  0.03806700  0.45793100  0.97542200  1
  N  1094  1  0.06382400  0.57895500  0.52224500  1
  N  1097  1  0.03819900  0.62350000  0.53710500  1
  N  1106  1  0.06403600  0.04915500  0.41627500  1
  N  1109  1  0.03789200  0.01971800  0.37179100  1
  N  1118  1  0.56376400  0.59444000  0.97701100  1
  N  1121  1  0.53832000  0.60934700  0.94733000  1
  N  1130  1  0.56403600  0.48850000  0.40068600  1
  N  1133  1  0.53799800  0.44401300  0.38571300  1
  N  1142  1  0.56386500  0.01810700  0.50672700  1
  N  1145  1  0.53819300  0.04777400  0.55126500  1
  N  1154  1  0.11053800  0.59773900  0.10346100  1
  N  1157  1  0.06581900  0.63752700  0.12150800  1
  N  1166  1  0.11092700  0.61209700  0.39721100  1
  N  1169  1  0.06537600  0.58980000  0.35781200  1
  N  1178  1  0.11036400  0.89167400  0.38341700  1
  N  1181  1  0.06569200  0.87363400  0.40518400  1
  N  1190  1  0.61084100  0.46947000  0.81881000  1
  N  1193  1  0.56531600  0.43006900  0.80178200  1
  N  1202  1  0.61039600  0.45571700  0.52540100  1
  N  1205  1  0.56571200  0.47744700  0.56520400  1
  N  1214  1  0.61090300  0.17609800  0.53969400  1
  N  1217  1  0.56552300  0.19345900  0.51756700  1
  N  1226  1  0.99887400  0.45651800  0.81923600  1
  N  1229  1  0.04245100  0.47667000  0.79910400  1
  N  1238  1  0.99852900  0.17602800  0.52638700  1
  N  1241  1  0.04259900  0.19562300  0.56648500  1
  N  1250  1  0.99930200  0.46874500  0.53825300  1
  N  1253  1  0.04195900  0.42811900  0.51862500  1
  N  1262  1  0.49854300  0.61118300  0.10386500  1
  N  1265  1  0.54285200  0.59060200  0.12328700  1
  N  1274  1  0.49936900  0.89194200  0.39645600  1
  N  1277  1  0.54197300  0.87089900  0.35581000  1
  N  1286  1  0.49854000  0.59871200  0.38395200  1
  N  1289  1  0.54285800  0.63870600  0.40463800  1
