# generated using pymatgen
data_H20C49(NO)4
_symmetry_space_group_name_H-M   'P 1'
_cell_length_a   49.38856275
_cell_length_b   49.38856275
_cell_length_c   49.38856275
_cell_angle_alpha   109.47122063
_cell_angle_beta   109.47122063
_cell_angle_gamma   109.47122063
_symmetry_Int_Tables_number   1
_chemical_formula_structural   H20C49(NO)4
_chemical_formula_sum   'H240 C588 N48 O48'
_cell_volume   92737.90341769
_cell_formula_units_Z   12
loop_
 _symmetry_equiv_pos_site_id
 _symmetry_equiv_pos_as_xyz
  1  'x, y, z'
loop_
 _atom_site_type_symbol
 _atom_site_label
 _atom_site_symmetry_multiplicity
 _atom_site_fract_x
 _atom_site_fract_y
 _atom_site_fract_z
 _atom_site_occupancy
  C  1  1  0.41120850  0.15325300  0.77844150  1
  C  2  1  0.42646000  0.17239000  0.76694000  1
  C  3  1  0.40820600  0.15667450  0.73299450  1
  C  4  1  0.37757950  0.12993000  0.72153350  1
  C  5  1  0.35296950  0.11432950  0.68768100  1
  C  6  1  0.36110600  0.12389150  0.66593250  1
  C  7  1  0.39482600  0.14613100  0.67783600  1
  C  8  1  0.41809850  0.16391450  0.71162200  1
  C  9  1  0.45512700  0.20361500  0.78826900  1
  C  10  1  0.47114300  0.21418850  0.82207150  1
  C  11  1  0.46081950  0.19239450  0.83400000  1
  C  12  1  0.42950300  0.16251350  0.81229450  1
  C  13  1  0.34957250  0.12525850  0.75514800  1
  C  14  1  0.33043250  0.09466200  0.75133650  1
  C  15  1  0.34609350  0.07638050  0.74875500  1
  C  16  1  0.37286000  0.09163150  0.74488450  1
  C  17  1  0.33873900  0.04770250  0.75129650  1
  C  18  1  0.35650700  0.03167000  0.74583300  1
  C  19  1  0.37873800  0.04197450  0.73433450  1
  C  20  1  0.38834400  0.07328550  0.73575750  1
  C  21  1  0.34037650  0.14990000  0.76419750  1
  C  22  1  0.31053650  0.14181000  0.76570750  1
  C  23  1  0.28869550  0.10809550  0.75422800  1
  C  24  1  0.29918150  0.08480150  0.74871600  1
  C  37  1  0.37780700  0.12501550  0.75000250  1
  C  38  1  0.09444950  0.37013500  0.24487350  1
  C  39  1  0.07911800  0.34338250  0.24872550  1
  C  40  1  0.09735700  0.32768400  0.25135300  1
  C  41  1  0.12800400  0.34678550  0.25522750  1
  C  42  1  0.15257800  0.33750300  0.26427200  1
  C  43  1  0.14438700  0.30765500  0.26577500  1
  C  44  1  0.11066400  0.28590800  0.25433800  1
  C  45  1  0.08742850  0.29646300  0.24880850  1
  C  46  1  0.05050200  0.33618300  0.25136900  1
  C  47  1  0.03455250  0.35402050  0.24590500  1
  C  48  1  0.04488900  0.37618950  0.23435450  1
  C  49  1  0.07620400  0.38571900  0.23579500  1
  C  50  1  0.15607250  0.40840450  0.27848200  1
  C  51  1  0.17525050  0.42365150  0.26700900  1
  C  52  1  0.15956350  0.40539400  0.23306550  1
  C  53  1  0.13278200  0.37477950  0.22158150  1
  C  54  1  0.16685650  0.41526450  0.21170300  1
  C  55  1  0.14902950  0.39201450  0.17790100  1
  C  56  1  0.12678300  0.35830000  0.16600000  1
  C  57  1  0.11718500  0.35016750  0.18773050  1
  C  58  1  0.16527950  0.42668700  0.31231750  1
  C  59  1  0.19513000  0.45802700  0.33404700  1
  C  60  1  0.21694100  0.46838100  0.32214600  1
  C  61  1  0.20645450  0.45234800  0.28836550  1
  C  74  1  0.12782850  0.37501600  0.25003250  1
  C  149  1  0.63266900  0.22150800  0.37479900  1
  C  150  1  0.65947750  0.23301600  0.40540150  1
  C  151  1  0.67516450  0.26696200  0.42363850  1
  C  152  1  0.65602800  0.27843850  0.40834150  1
  C  153  1  0.66525150  0.31228000  0.42662250  1
  C  154  1  0.69513450  0.33401850  0.45793600  1
  C  155  1  0.71697700  0.32213000  0.46824400  1
  C  156  1  0.70641450  0.28832700  0.45227150  1
  C  157  1  0.66675300  0.21166950  0.41531850  1
  C  158  1  0.64890750  0.17785550  0.39211000  1
  C  159  1  0.62666300  0.16592900  0.35838300  1
  C  160  1  0.61711550  0.18766150  0.35019900  1
  C  161  1  0.59438900  0.24484950  0.37002650  1
  C  162  1  0.57911850  0.24869250  0.34324600  1
  C  163  1  0.59735100  0.25116900  0.32752700  1
  C  164  1  0.62797400  0.25503850  0.34668950  1
  C  165  1  0.58749750  0.24859650  0.29629600  1
  C  166  1  0.61073400  0.25395800  0.28572400  1
  C  167  1  0.64445100  0.26543750  0.30755550  1
  C  168  1  0.65260050  0.26408650  0.33747700  1
  C  169  1  0.57611650  0.23584350  0.38561100  1
  C  170  1  0.54478200  0.23436950  0.37599650  1
  C  171  1  0.53442350  0.24576250  0.35367900  1
  C  172  1  0.55043200  0.25121750  0.33588950  1
  C  185  1  0.62777050  0.24996700  0.37496950  1
  C  186  1  0.84960050  0.75516700  0.12528450  1
  C  187  1  0.83038800  0.75122300  0.09464000  1
  C  188  1  0.84603800  0.74864050  0.07634950  1
  C  189  1  0.87282700  0.74480300  0.09161300  1
  C  190  1  0.88843050  0.73583550  0.07334400  1
  C  191  1  0.87870450  0.73428400  0.04196950  1
  C  192  1  0.85650050  0.74581100  0.03168350  1
  C  193  1  0.83871950  0.75124700  0.04770850  1
  C  194  1  0.79916500  0.74866250  0.08480950  1
  C  195  1  0.78867600  0.75414900  0.10810500  1
  C  196  1  0.81053250  0.76567400  0.14182850  1
  C  197  1  0.84041050  0.76423500  0.14992650  1
  C  198  1  0.87763400  0.72156850  0.12999950  1
  C  199  1  0.90824950  0.73309450  0.15680400  1
  C  200  1  0.92649150  0.76703600  0.17245150  1
  C  201  1  0.91121900  0.77847250  0.15324550  1
  C  202  1  0.95516100  0.78842300  0.20367700  1
  C  203  1  0.97118150  0.82219450  0.21413100  1
  C  204  1  0.96081300  0.83405100  0.19228200  1
  C  205  1  0.92947900  0.81230250  0.16242450  1
  C  206  1  0.85301500  0.68773550  0.11449250  1
  C  207  1  0.86115250  0.66608400  0.12424350  1
  C  208  1  0.89487550  0.67798050  0.14645300  1
  C  209  1  0.91812500  0.71177350  0.16419050  1
  C  222  1  0.87782350  0.75000200  0.12503150  1
  C  297  1  0.25796050  0.62518250  0.84673500  1
  C  298  1  0.25408650  0.59454000  0.82762750  1
  C  299  1  0.25155200  0.57633450  0.84336750  1
  C  300  1  0.24766100  0.59163600  0.87009900  1
  C  301  1  0.23865850  0.57341150  0.88572500  1
  C  302  1  0.23725550  0.54211400  0.87620750  1
  C  303  1  0.24874900  0.53176350  0.85398350  1
  C  304  1  0.25422200  0.54773350  0.83616950  1
  C  305  1  0.25154500  0.58462400  0.79640700  1
  C  306  1  0.25699200  0.60783550  0.78581250  1
  C  307  1  0.26844650  0.64156100  0.80757850  1
  C  308  1  0.26699550  0.64975700  0.83745350  1
  C  309  1  0.22436000  0.62996100  0.87477000  1
  C  310  1  0.23586100  0.65678150  0.90535950  1
  C  311  1  0.26980650  0.67245900  0.92361550  1
  C  312  1  0.28127750  0.65328800  0.90835450  1
  C  313  1  0.29116700  0.70368600  0.95227900  1
  C  314  1  0.32496050  0.71421750  0.96828600  1
  C  315  1  0.33684150  0.69237100  0.95797150  1
  C  316  1  0.31509650  0.66246900  0.92667850  1
  C  317  1  0.19051000  0.61437350  0.85015950  1
  C  318  1  0.16879550  0.62402100  0.85827550  1
  C  319  1  0.18071750  0.64629350  0.89199200  1
  C  320  1  0.21450850  0.66406850  0.91525400  1
  C  333  1  0.25281100  0.62501600  0.87498900  1
  C  334  1  0.72430150  0.87475350  0.62987200  1
  C  335  1  0.73574600  0.90536200  0.65663200  1
  C  336  1  0.76968150  0.92367100  0.67231050  1
  C  337  1  0.78120400  0.90843200  0.65318900  1
  C  338  1  0.81505950  0.92674350  0.66245700  1
  C  339  1  0.83673550  0.95808900  0.69231150  1
  C  340  1  0.82478100  0.96840350  0.71407750  1
  C  341  1  0.79099350  0.95233900  0.70353850  1
  C  342  1  0.71435150  0.91522150  0.66386400  1
  C  343  1  0.68056200  0.89193500  0.64604900  1
  C  344  1  0.66870800  0.85821550  0.62386150  1
  C  345  1  0.69047100  0.85010550  0.61430750  1
  C  346  1  0.74761850  0.87002700  0.59156550  1
  C  347  1  0.75151350  0.84327500  0.57632550  1
  C  348  1  0.75408900  0.82761650  0.59461050  1
  C  349  1  0.75796150  0.84679100  0.62522950  1
  C  350  1  0.75149500  0.79637650  0.58476150  1
  C  351  1  0.75694000  0.78586150  0.60803950  1
  C  352  1  0.76844550  0.80771500  0.64175450  1
  C  353  1  0.76699900  0.83758650  0.64986550  1
  C  354  1  0.73855500  0.88556750  0.57326250  1
  C  355  1  0.73703350  0.87590350  0.54190400  1
  C  356  1  0.74845750  0.85361400  0.53155650  1
  C  357  1  0.75399650  0.83588650  0.54761500  1
  C  370  1  0.75278550  0.87500650  0.62497200  1
  C  445  1  0.41116700  0.75511100  0.62990800  1
  C  446  1  0.42648600  0.75135600  0.65674100  1
  C  447  1  0.40822000  0.74880200  0.67242400  1
  C  448  1  0.37759500  0.74492700  0.65326100  1
  C  449  1  0.35296600  0.73585650  0.66246850  1
  C  450  1  0.36111050  0.73442750  0.69235200  1
  C  451  1  0.39483900  0.74598500  0.71421900  1
  C  452  1  0.41809600  0.75142200  0.70367600  1
  C  453  1  0.45511950  0.74873850  0.66403000  1
  C  454  1  0.47106000  0.75404200  0.64614500  1
  C  455  1  0.46073800  0.76552550  0.62390250  1
  C  456  1  0.42944900  0.76414150  0.61434050  1
  C  457  1  0.34954250  0.72157250  0.59161600  1
  C  458  1  0.33040400  0.73306650  0.57635050  1
  C  459  1  0.34614500  0.76701750  0.59457150  1
  C  460  1  0.37291550  0.77849950  0.62518900  1
  C  461  1  0.33883100  0.78837300  0.58470400  1
  C  462  1  0.35668650  0.82218250  0.60792900  1
  C  463  1  0.37894250  0.83409000  0.64164450  1
  C  464  1  0.38848000  0.81234100  0.64980600  1
  C  465  1  0.34029400  0.68772050  0.57333750  1
  C  466  1  0.31043200  0.66600150  0.54200450  1
  C  467  1  0.28864400  0.67793400  0.53167000  1
  C  468  1  0.29918050  0.71172600  0.54767950  1
  C  481  1  0.37780200  0.75002650  0.62499550  1
  C  482  1  0.09442600  0.22154400  0.84678400  1
  C  483  1  0.07915850  0.23297150  0.82756400  1
  C  484  1  0.09739350  0.26691300  0.84320750  1
  C  485  1  0.12801750  0.27844000  0.86999950  1
  C  486  1  0.15259200  0.31230950  0.88559850  1
  C  487  1  0.14442900  0.33395600  0.87585700  1
  C  488  1  0.11070000  0.32203950  0.85364950  1
  C  489  1  0.08747650  0.28823500  0.83587650  1
  C  490  1  0.05049250  0.21157700  0.79633750  1
  C  491  1  0.03451400  0.17779200  0.78584500  1
  C  492  1  0.04486950  0.16594600  0.80770950  1
  C  493  1  0.07618050  0.18770850  0.83759300  1
  C  494  1  0.15605600  0.24486500  0.87476700  1
  C  495  1  0.17519700  0.24871250  0.90538350  1
  C  496  1  0.15953100  0.25130550  0.92365750  1
  C  497  1  0.13279000  0.25521250  0.90841050  1
  C  498  1  0.16688150  0.24877100  0.95233850  1
  C  499  1  0.14917650  0.25434600  0.96840950  1
  C  500  1  0.12691700  0.26580050  0.95807050  1
  C  501  1  0.11726100  0.26429950  0.92672150  1
  C  502  1  0.16523350  0.23573750  0.85011900  1
  C  503  1  0.19503400  0.23414600  0.85822600  1
  C  504  1  0.21691800  0.24573050  0.89195550  1
  C  505  1  0.20641250  0.25124700  0.91523450  1
  C  518  1  0.12782200  0.25001850  0.87499750  1
  C  593  1  0.63275900  0.90840300  0.25510000  1
  C  594  1  0.65948450  0.92363400  0.25117150  1
  C  595  1  0.67516550  0.90536950  0.24861500  1
  C  596  1  0.65602200  0.87476300  0.24478500  1
  C  597  1  0.66525400  0.85014450  0.23578250  1
  C  598  1  0.69510100  0.85824450  0.23428550  1
  C  599  1  0.71691200  0.89195400  0.24572700  1
  C  600  1  0.70640900  0.91523650  0.25121650  1
  C  601  1  0.66680900  0.95229600  0.24860300  1
  C  602  1  0.64903500  0.96832150  0.25406950  1
  C  603  1  0.62680600  0.95800950  0.26556750  1
  C  604  1  0.61721250  0.92670300  0.26415150  1
  C  605  1  0.59440800  0.84676400  0.22157200  1
  C  606  1  0.57913650  0.82772150  0.23313700  1
  C  607  1  0.59745000  0.84345600  0.26708100  1
  C  608  1  0.62807650  0.87016450  0.27848800  1
  C  609  1  0.58763500  0.83622250  0.28849750  1
  C  610  1  0.61094050  0.85405150  0.32228000  1
  C  611  1  0.64466850  0.87619650  0.33410400  1
  C  612  1  0.65275500  0.88569000  0.31229800  1
  C  613  1  0.57609300  0.83747250  0.18771250  1
  C  614  1  0.54473800  0.80762700  0.16605300  1
  C  615  1  0.53442450  0.78589200  0.17804450  1
  C  616  1  0.55049450  0.79647400  0.21184250  1
  C  629  1  0.62781500  0.87501950  0.24998250  1
  C  630  1  0.84954500  0.59160550  0.72151550  1
  C  631  1  0.83038650  0.57628700  0.73296350  1
  C  632  1  0.84601550  0.59455500  0.76690150  1
  C  633  1  0.87277350  0.62519700  0.77841250  1
  C  634  1  0.88833950  0.64978850  0.81226700  1
  C  635  1  0.87870000  0.64162200  0.83396300  1
  C  636  1  0.85642800  0.60790400  0.82202100  1
  C  637  1  0.83868100  0.58465050  0.78822950  1
  C  638  1  0.79914600  0.54764350  0.71157350  1
  C  639  1  0.78864850  0.53165800  0.67778550  1
  C  640  1  0.81050350  0.54200950  0.66592600  1
  C  641  1  0.84036450  0.57333650  0.68768500  1
  C  642  1  0.87760700  0.65323350  0.74482350  1
  C  643  1  0.90826500  0.67235500  0.74873400  1
  C  644  1  0.92648500  0.65663550  0.75131150  1
  C  645  1  0.91116650  0.62989050  0.75517700  1
  C  646  1  0.95512750  0.66387350  0.74871300  1
  C  647  1  0.97107050  0.64602650  0.75415500  1
  C  648  1  0.96072050  0.62382200  0.76566550  1
  C  649  1  0.92940450  0.61429100  0.76422650  1
  C  650  1  0.85301250  0.66247900  0.73571950  1
  C  651  1  0.86119850  0.69233350  0.73422900  1
  C  652  1  0.89492050  0.71409300  0.74567550  1
  C  653  1  0.91817000  0.70355700  0.75122900  1
  C  666  1  0.87777550  0.62498800  0.74999150  1
  C  741  1  0.25789300  0.12990150  0.40837450  1
  C  742  1  0.25412850  0.15672750  0.42368800  1
  C  743  1  0.25158700  0.17241750  0.40542850  1
  C  744  1  0.24772700  0.15326550  0.37480950  1
  C  745  1  0.23867300  0.16247900  0.35018500  1
  C  746  1  0.23724750  0.19236250  0.35832800  1
  C  747  1  0.24879100  0.21422400  0.39205500  1
  C  748  1  0.25420950  0.20367200  0.41530550  1
  C  749  1  0.25149300  0.16400350  0.45231250  1
  C  750  1  0.25675900  0.14609600  0.46823800  1
  C  751  1  0.26828900  0.12389000  0.45794100  1
  C  752  1  0.26692700  0.11433900  0.42666200  1
  C  753  1  0.22439750  0.09161900  0.34674850  1
  C  754  1  0.23592800  0.07637000  0.32764400  1
  C  755  1  0.26987950  0.09461100  0.34341050  1
  C  756  1  0.28132750  0.12522400  0.37016550  1
  C  757  1  0.29126650  0.08476550  0.33614500  1
  C  758  1  0.32507350  0.10800950  0.35403400  1
  C  759  1  0.33695450  0.14173000  0.37626650  1
  C  760  1  0.31516250  0.14985800  0.38574750  1
  C  761  1  0.19054100  0.07332100  0.33747300  1
  C  762  1  0.16885300  0.04198150  0.30761550  1
  C  763  1  0.18082200  0.03164950  0.28586650  1
  C  764  1  0.21461800  0.04768750  0.29642950  1
  C  777  1  0.25283200  0.12500250  0.37501850  1
  C  778  1  0.72431200  0.34673900  0.09162600  1
  C  779  1  0.73573600  0.32750150  0.07637750  1
  C  780  1  0.76967750  0.34314950  0.09461300  1
  C  781  1  0.78120850  0.36996950  0.12521900  1
  C  782  1  0.81508250  0.38559350  0.14978900  1
  C  783  1  0.83673000  0.37585000  0.14163000  1
  C  784  1  0.82480700  0.35361550  0.10790750  1
  C  785  1  0.79100050  0.33581850  0.08469700  1
  C  786  1  0.71434500  0.29627500  0.04771300  1
  C  787  1  0.68055950  0.28578500  0.03172550  1
  C  788  1  0.66871950  0.30766050  0.04206700  1
  C  789  1  0.69047750  0.33754750  0.07336800  1
  C  790  1  0.74763950  0.37483450  0.15326500  1
  C  791  1  0.75144550  0.40546050  0.17231500  1
  C  792  1  0.75402050  0.42366050  0.15657400  1
  C  793  1  0.75796000  0.40836050  0.12988150  1
  C  794  1  0.75142950  0.45230500  0.16379350  1
  C  795  1  0.75696550  0.46827250  0.14599200  1
  C  796  1  0.76847150  0.45790550  0.12378600  1
  C  797  1  0.76703250  0.42659100  0.11428350  1
  C  798  1  0.73854450  0.35025300  0.16252750  1
  C  799  1  0.73694150  0.35843900  0.19232350  1
  C  800  1  0.74845150  0.39217350  0.21411000  1
  C  801  1  0.75394700  0.41538600  0.20352000  1
  C  814  1  0.75278900  0.37498000  0.12500500  1
  C  889  1  0.33767900  0.11890450  0.63562450  1
  C  890  1  0.32020700  0.08907750  0.60504550  1
  C  892  1  0.31581400  0.11761350  0.57401550  1
  C  893  1  0.33321000  0.14828500  0.60412700  1
  C  894  1  0.34109650  0.14791600  0.63411550  1
  C  896  1  0.30735800  0.11763200  0.54357300  1
  C  897  1  0.27454700  0.08911700  0.48400400  1
  C  898  1  0.28677500  0.11900000  0.48332600  1
  C  899  1  0.31239550  0.14801850  0.51383200  1
  C  902  1  0.32052750  0.14833100  0.54415950  1
  C  903  1  0.33948950  0.17863700  0.57449050  1
  C  904  1  0.34443400  0.17861250  0.60413650  1
  C  909  1  0.16773200  0.30069650  0.28421050  1
  C  910  1  0.18547850  0.28792100  0.27200650  1
  C  912  1  0.18977750  0.26105900  0.30473650  1
  C  913  1  0.17230000  0.27364950  0.31798550  1
  C  914  1  0.16439950  0.29579200  0.30983950  1
  C  916  1  0.19825200  0.23904550  0.31313950  1
  C  917  1  0.23113400  0.21235900  0.31742300  1
  C  918  1  0.21879350  0.19921750  0.33488500  1
  C  919  1  0.19317550  0.20411150  0.33830100  1
  C  922  1  0.18499950  0.22630250  0.33053200  1
  C  923  1  0.16596450  0.23755100  0.34185150  1
  C  924  1  0.16102250  0.26229850  0.33699000  1
  C  929  1  0.01959400  0.38117600  0.21589000  1
  C  930  1  0.01877850  0.41097100  0.22824650  1
  C  932  1  0.95921450  0.38239800  0.19536550  1
  C  933  1  0.95868750  0.35174600  0.18209350  1
  C  934  1  0.98906050  0.35215800  0.19031450  1
  C  936  1  0.92873700  0.38234300  0.18692500  1
  C  937  1  0.89759750  0.41077200  0.18259850  1
  C  938  1  0.86706850  0.38087200  0.16503850  1
  C  939  1  0.86862900  0.35189800  0.16169800  1
  C  942  1  0.89865850  0.35162700  0.16946250  1
  C  943  1  0.89872000  0.32134000  0.15813300  1
  C  944  1  0.92839450  0.32139900  0.16304150  1
  C  949  1  0.48621950  0.19931050  0.86427200  1
  C  950  1  0.48681750  0.21210850  0.89480600  1
  C  952  1  0.54640800  0.23895650  0.92592550  1
  C  953  1  0.54704100  0.22634250  0.89584550  1
  C  954  1  0.51673950  0.20419350  0.86581500  1
  C  956  1  0.57683300  0.26097850  0.95640150  1
  C  957  1  0.60783100  0.28769450  0.01596650  1
  C  958  1  0.63843500  0.30081850  0.01675750  1
  C  959  1  0.63692500  0.29590550  0.98622950  1
  C  962  1  0.60695600  0.27370850  0.95586950  1
  C  963  1  0.60700600  0.26244050  0.92557550  1
  C  964  1  0.57738700  0.23768650  0.89589850  1
  C  969  1  0.70202700  0.36432800  0.48326300  1
  C  970  1  0.71508650  0.39489850  0.48399000  1
  C  972  1  0.74181300  0.42595500  0.54356000  1
  C  973  1  0.72914100  0.39585650  0.54414850  1
  C  974  1  0.70701350  0.36585800  0.51380450  1
  C  976  1  0.76383950  0.45640750  0.57401000  1
  C  977  1  0.79061300  0.51597400  0.60505600  1
  C  978  1  0.80366100  0.51671050  0.63563750  1
  C  979  1  0.79876200  0.48618100  0.63411300  1
  C  982  1  0.77650900  0.45584050  0.60411950  1
  C  983  1  0.76517200  0.42552100  0.60412000  1
  C  984  1  0.74042700  0.39586650  0.57447250  1
  C  989  1  0.88364000  0.71584100  0.01660500  1
  C  990  1  0.91354150  0.72808150  0.01595500  1
  C  992  1  0.88502550  0.69532100  0.95636250  1
  C  993  1  0.85433500  0.68206800  0.95577100  1
  C  994  1  0.85464750  0.69021400  0.98609050  1
  C  996  1  0.88503200  0.68689550  0.92591450  1
  C  997  1  0.91353150  0.68256900  0.89483850  1
  C  998  1  0.88366200  0.66501000  0.86427400  1
  C  999  1  0.85467650  0.66166350  0.86581400  1
  C  1002  1  0.85434700  0.66948100  0.89581400  1
  C  1003  1  0.82402700  0.65817750  0.89580850  1
  C  1004  1  0.82401850  0.66305800  0.92544950  1
  C  1009  1  0.80368000  0.78411100  0.16528500  1
  C  1010  1  0.79055850  0.77174600  0.18274250  1
  C  1012  1  0.76382000  0.80457700  0.18703800  1
  C  1013  1  0.77651450  0.81784150  0.16962600  1
  C  1014  1  0.79867700  0.80965400  0.16180500  1
  C  1016  1  0.74177300  0.81298400  0.19543100  1
  C  1017  1  0.71497900  0.81725800  0.22821300  1
  C  1018  1  0.70195900  0.83478000  0.21586400  1
  C  1019  1  0.70681200  0.83812800  0.19020700  1
  C  1022  1  0.72908750  0.83039750  0.18215600  1
  C  1023  1  0.74043750  0.84172800  0.16317650  1
  C  1024  1  0.76521550  0.83685700  0.15831650  1
  C  1029  1  0.62182150  0.13567550  0.33502300  1
  C  1030  1  0.59193750  0.10510600  0.31733550  1
  C  1032  1  0.62050150  0.07408600  0.31307350  1
  C  1033  1  0.65117850  0.10420150  0.33052900  1
  C  1034  1  0.65083750  0.13419900  0.33839950  1
  C  1036  1  0.62051400  0.04363950  0.30461250  1
  C  1037  1  0.59201700  0.98407000  0.27177600  1
  C  1038  1  0.62189500  0.98337900  0.28403600  1
  C  1039  1  0.65089000  0.01390550  0.30965250  1
  C  1042  1  0.65120800  0.04423250  0.31784450  1
  C  1043  1  0.68151800  0.07456100  0.33686900  1
  C  1044  1  0.68150650  0.10421400  0.34181150  1
  C  1049  1  0.21879450  0.51680100  0.88118950  1
  C  1050  1  0.23116800  0.51600700  0.91099100  1
  C  1052  1  0.19822350  0.45644000  0.88240150  1
  C  1053  1  0.18493550  0.45592200  0.85175350  1
  C  1054  1  0.19318100  0.48629850  0.85216550  1
  C  1056  1  0.18976000  0.42595500  0.88233500  1
  C  1057  1  0.18547600  0.39481250  0.91077250  1
  C  1058  1  0.16783050  0.36428400  0.88085550  1
  C  1059  1  0.16445700  0.36583950  0.85187250  1
  C  1062  1  0.17225250  0.39587600  0.85161150  1
  C  1063  1  0.16090400  0.39594550  0.82132950  1
  C  1064  1  0.16584350  0.42563100  0.82140250  1
  C  1069  1  0.86703650  0.98347750  0.69926100  1
  C  1070  1  0.89755900  0.98405050  0.71205450  1
  C  1072  1  0.92871500  0.04364550  0.73895250  1
  C  1073  1  0.89864750  0.04430200  0.72634650  1
  C  1074  1  0.86861000  0.01401300  0.70417200  1
  C  1076  1  0.95919850  0.07406200  0.76099350  1
  C  1077  1  0.01876550  0.10505000  0.78770750  1
  C  1078  1  0.01956900  0.13565600  0.80086900  1
  C  1079  1  0.98904650  0.13414950  0.79597800  1
  C  1082  1  0.95868250  0.10419050  0.77375800  1
  C  1083  1  0.92839600  0.10425800  0.76249700  1
  C  1084  1  0.89871650  0.07465450  0.73771800  1
  C  1089  1  0.63841850  0.83477950  0.61887900  1
  C  1090  1  0.60782050  0.81730900  0.58906650  1
  C  1092  1  0.57679200  0.81296950  0.61760050  1
  C  1093  1  0.60690100  0.83037200  0.64826900  1
  C  1094  1  0.63688100  0.83822500  0.64788800  1
  C  1096  1  0.54635200  0.80454300  0.61762000  1
  C  1097  1  0.48678050  0.77175100  0.58910950  1
  C  1098  1  0.48611250  0.78400200  0.61899550  1
  C  1099  1  0.51661700  0.80964150  0.64800450  1
  C  1102  1  0.54694250  0.81775000  0.64831550  1
  C  1103  1  0.57727600  0.83672450  0.67862250  1
  C  1104  1  0.60691800  0.84163800  0.67859900  1
  C  1109  1  0.28691850  0.66490500  0.80064250  1
  C  1110  1  0.27473250  0.68266100  0.78786650  1
  C  1112  1  0.30748950  0.68695750  0.76103300  1
  C  1113  1  0.32072500  0.66947650  0.77362950  1
  C  1114  1  0.31255450  0.66156700  0.79575650  1
  C  1116  1  0.31590850  0.69543550  0.73903000  1
  C  1117  1  0.32019300  0.72830700  0.71233200  1
  C  1118  1  0.33767050  0.71597350  0.69920700  1
  C  1119  1  0.34109750  0.69036800  0.70412050  1
  C  1122  1  0.33331250  0.68218800  0.72630350  1
  C  1123  1  0.34462750  0.66315550  0.73756200  1
  C  1124  1  0.33973950  0.65820350  0.76229500  1
  C  1129  1  0.66813350  0.88119100  0.36439250  1
  C  1130  1  0.68556800  0.91098800  0.39498600  1
  C  1132  1  0.68983500  0.88240100  0.42596900  1
  C  1133  1  0.67243700  0.85174450  0.39584450  1
  C  1134  1  0.66463600  0.85214750  0.36587650  1
  C  1136  1  0.69821050  0.88235300  0.45639250  1
  C  1137  1  0.73096650  0.91081950  0.51596900  1
  C  1138  1  0.71862500  0.88091800  0.51658600  1
  C  1139  1  0.69297950  0.85192350  0.48607300  1
  C  1142  1  0.68493950  0.85164500  0.45576650  1
  C  1143  1  0.66596700  0.82135350  0.42541850  1
  C  1144  1  0.66111800  0.82140150  0.39579750  1
  C  1149  1  0.83784850  0.69928250  0.71578700  1
  C  1150  1  0.82012050  0.71207800  0.72800650  1
  C  1152  1  0.81585450  0.73896400  0.69529950  1
  C  1153  1  0.83331350  0.72635450  0.68203500  1
  C  1154  1  0.84118300  0.70418600  0.69015800  1
  C  1156  1  0.80741050  0.76100150  0.68692100  1
  C  1157  1  0.77456150  0.78772050  0.68265400  1
  C  1158  1  0.78690700  0.80086850  0.66519350  1
  C  1159  1  0.81253350  0.79597200  0.66180250  1
  C  1162  1  0.82068300  0.77375700  0.66954700  1
  C  1163  1  0.83969950  0.76248900  0.65821250  1
  C  1164  1  0.84460800  0.73771600  0.66304500  1
  C  1169  1  0.98602650  0.61884450  0.78413000  1
  C  1170  1  0.98681100  0.58903100  0.77179200  1
  C  1172  1  0.04637700  0.61756600  0.80462700  1
  C  1173  1  0.04693600  0.64823650  0.81789050  1
  C  1174  1  0.01657700  0.64785550  0.80968950  1
  C  1176  1  0.07683650  0.61758950  0.81304300  1
  C  1177  1  0.10792200  0.58911000  0.81735400  1
  C  1178  1  0.13846050  0.61897450  0.83483000  1
  C  1179  1  0.13694000  0.64797450  0.83818850  1
  C  1182  1  0.10693000  0.64828400  0.83046300  1
  C  1183  1  0.10690000  0.67858900  0.84179300  1
  C  1184  1  0.07724500  0.67856600  0.83691300  1
  C  1189  1  0.51935750  0.80068500  0.13575150  1
  C  1190  1  0.51872800  0.78780750  0.10520950  1
  C  1192  1  0.45913900  0.76098150  0.07411050  1
  C  1193  1  0.45852550  0.77363950  0.10419700  1
  C  1194  1  0.48883750  0.79580250  0.13421300  1
  C  1196  1  0.42870300  0.73896750  0.04364450  1
  C  1197  1  0.39768650  0.71223550  0.98407200  1
  C  1198  1  0.36710100  0.69924000  0.98334200  1
  C  1199  1  0.36859750  0.70412700  0.01385150  1
  C  1202  1  0.39858450  0.72629150  0.04419800  1
  C  1203  1  0.39855650  0.73759000  0.07450050  1
  C  1204  1  0.42818950  0.76233450  0.10416400  1
  C  1209  1  0.30353600  0.63568550  0.51668250  1
  C  1210  1  0.29047800  0.60511650  0.51596250  1
  C  1212  1  0.26377000  0.57405200  0.45639200  1
  C  1213  1  0.27644400  0.60415050  0.45580250  1
  C  1214  1  0.29856650  0.63414850  0.48614300  1
  C  1216  1  0.24175150  0.54359800  0.42594450  1
  C  1217  1  0.21500500  0.48402800  0.39490900  1
  C  1218  1  0.20198550  0.48333150  0.36435300  1
  C  1219  1  0.20683500  0.51383050  0.36583250  1
  C  1222  1  0.22908200  0.54416550  0.39583050  1
  C  1223  1  0.24041700  0.57448600  0.39583100  1
  C  1224  1  0.26516250  0.60413900  0.42547750  1
  C  1229  1  0.12202200  0.28427350  0.98345750  1
  C  1230  1  0.09208900  0.27204750  0.98405550  1
  C  1232  1  0.12055900  0.30476400  0.04364900  1
  C  1233  1  0.15126950  0.31803000  0.04428150  1
  C  1234  1  0.15099400  0.30991250  0.01398050  1
  C  1236  1  0.12051500  0.31314250  0.07407650  1
  C  1237  1  0.09196600  0.31741050  0.10509750  1
  C  1238  1  0.12178550  0.33487050  0.13569300  1
  C  1239  1  0.15078950  0.33825500  0.13416150  1
  C  1242  1  0.15117100  0.33051150  0.10419150  1
  C  1243  1  0.18151300  0.34184100  0.10423600  1
  C  1244  1  0.18156350  0.33701400  0.07462150  1
  C  1249  1  0.20190950  0.21573900  0.83477550  1
  C  1250  1  0.21496250  0.22810450  0.81727900  1
  C  1252  1  0.24177550  0.19534300  0.81298650  1
  C  1253  1  0.22911400  0.18205800  0.83040500  1
  C  1254  1  0.20693750  0.19020550  0.83823700  1
  C  1256  1  0.26385000  0.18698750  0.80459850  1
  C  1257  1  0.29065000  0.18278400  0.77181700  1
  C  1258  1  0.30370350  0.16527850  0.78416200  1
  C  1259  1  0.29888100  0.16191800  0.80982600  1
  C  1262  1  0.27658650  0.16960400  0.81787750  1
  C  1263  1  0.26526000  0.15824900  0.83685700  1
  C  1264  1  0.24045950  0.16306800  0.84171450  1
  C  1269  1  0.38379700  0.86434050  0.66502550  1
  C  1270  1  0.41367000  0.89491350  0.68266750  1
  C  1272  1  0.38509300  0.92591750  0.68693050  1
  C  1273  1  0.35442550  0.89579800  0.66951850  1
  C  1274  1  0.35478500  0.86581250  0.66168050  1
  C  1276  1  0.38506450  0.95635450  0.69535900  1
  C  1277  1  0.41354250  0.01592900  0.72813950  1
  C  1278  1  0.38365450  0.01660000  0.71587750  1
  C  1279  1  0.35466250  0.98605900  0.69028350  1
  C  1282  1  0.35436050  0.95574200  0.68212850  1
  C  1283  1  0.32405900  0.92540800  0.66314200  1
  C  1284  1  0.32409200  0.89577250  0.65824350  1
  C  1289  1  0.78693600  0.48318400  0.11877200  1
  C  1290  1  0.77451700  0.48401450  0.08899850  1
  C  1292  1  0.80741850  0.54358150  0.11762100  1
  C  1293  1  0.82072850  0.54407900  0.14825350  1
  C  1294  1  0.81253100  0.51369150  0.14781150  1
  C  1296  1  0.81584050  0.57407150  0.11770700  1
  C  1297  1  0.82008350  0.60524300  0.08929550  1
  C  1298  1  0.83773150  0.63575800  0.11922850  1
  C  1299  1  0.84109250  0.63417950  0.14819800  1
  C  1302  1  0.83332450  0.60413500  0.14843950  1
  C  1303  1  0.84468400  0.60404400  0.17871000  1
  C  1304  1  0.83979200  0.57435750  0.17861550  1
  C  1309  1  0.13855650  0.01660950  0.30069500  1
  C  1310  1  0.10801750  0.01598650  0.28783100  1
  C  1312  1  0.07691300  0.95639800  0.26099600  1
  C  1313  1  0.10699500  0.95577850  0.27364150  1
  C  1314  1  0.13701550  0.98608800  0.29581150  1
  C  1316  1  0.04644500  0.92596450  0.23896350  1
  C  1317  1  0.98687800  0.89493750  0.21222550  1
  C  1318  1  0.98610950  0.86434350  0.19911900  1
  C  1319  1  0.01664700  0.86587450  0.20403950  1
  C  1322  1  0.04699450  0.89584900  0.22624750  1
  C  1323  1  0.07729500  0.89581550  0.23754450  1
  C  1324  1  0.10695950  0.92544100  0.26231650  1
  C  1329  1  0.36721950  0.16515050  0.38118100  1
  C  1330  1  0.39781250  0.18268100  0.41100350  1
  C  1332  1  0.42880500  0.18702250  0.38243150  1
  C  1333  1  0.39868100  0.16957800  0.35176400  1
  C  1334  1  0.36870000  0.16169700  0.35214800  1
  C  1336  1  0.45923900  0.19545650  0.38239850  1
  C  1337  1  0.51880850  0.22827050  0.41088500  1
  C  1338  1  0.51946950  0.21594900  0.38100750  1
  C  1339  1  0.48895550  0.19030350  0.35200400  1
  C  1342  1  0.45863500  0.18221400  0.35170000  1
  C  1343  1  0.42829450  0.16321450  0.32140000  1
  C  1344  1  0.39865450  0.15829700  0.32142950  1
  C  1349  1  0.71853150  0.33506900  0.19927550  1
  C  1350  1  0.73075550  0.31734650  0.21206900  1
  C  1352  1  0.69807150  0.31307900  0.23897750  1
  C  1353  1  0.68482250  0.33056450  0.22640200  1
  C  1354  1  0.69294150  0.33844800  0.20423950  1
  C  1356  1  0.68967650  0.30459700  0.26099050  1
  C  1357  1  0.68537750  0.27166800  0.28762850  1
  C  1358  1  0.66785600  0.28396400  0.30071000  1
  C  1359  1  0.66449150  0.30963500  0.29590950  1
  C  1362  1  0.67228700  0.31784600  0.27374800  1
  C  1363  1  0.66098200  0.33690200  0.26252400  1
  C  1364  1  0.66584000  0.34185550  0.23777950  1
  H  25  1  0.26674700  0.10116050  0.75434450  1
  H  26  1  0.28461950  0.06157100  0.74391050  1
  H  27  1  0.32030150  0.03798550  0.75610100  1
  H  28  1  0.34934350  0.00958000  0.74567150  1
  H  29  1  0.40479950  0.08170650  0.72832500  1
  H  30  1  0.35629700  0.17378000  0.77166700  1
  H  31  1  0.32908850  0.09787550  0.67967500  1
  H  32  1  0.40179500  0.15317150  0.66283150  1
  H  33  1  0.44133700  0.18233100  0.72030200  1
  H  34  1  0.42108250  0.14665450  0.82032500  1
  H  35  1  0.46486000  0.21813350  0.77955250  1
  H  36  1  0.49323700  0.23611200  0.83699900  1
  H  62  1  0.23889750  0.49044350  0.33712500  1
  H  63  1  0.22102650  0.46205850  0.27968500  1
  H  64  1  0.18529150  0.43849650  0.22039400  1
  H  65  1  0.15616950  0.39900950  0.16296000  1
  H  66  1  0.10074000  0.32629000  0.17974100  1
  H  67  1  0.14938350  0.41825200  0.32030650  1
  H  68  1  0.17646750  0.35333000  0.27167850  1
  H  69  1  0.10363100  0.26394400  0.25443000  1
  H  70  1  0.06416000  0.28192850  0.24393950  1
  H  71  1  0.08467450  0.40213750  0.22834100  1
  H  72  1  0.04075300  0.31778950  0.25621050  1
  H  73  1  0.01248350  0.34693050  0.24578400  1
  H  173  1  0.51236750  0.24566800  0.34658450  1
  H  174  1  0.54070650  0.25602300  0.31745550  1
  H  175  1  0.56426200  0.24378350  0.28174050  1
  H  176  1  0.60377050  0.25410400  0.26378950  1
  H  177  1  0.67649300  0.27158750  0.35339150  1
  H  178  1  0.58455750  0.22842300  0.40207350  1
  H  179  1  0.64937200  0.32028600  0.41818700  1
  H  180  1  0.73891750  0.33708650  0.49031700  1
  H  181  1  0.72096650  0.27963700  0.46200150  1
  H  182  1  0.60070600  0.17965400  0.32630100  1
  H  183  1  0.68517950  0.22038250  0.43856300  1
  H  184  1  0.65603250  0.16291000  0.39910950  1
  H  210  1  0.90185200  0.66305700  0.15364500  1
  H  211  1  0.94136350  0.72049150  0.18263300  1
  H  212  1  0.96489400  0.77976400  0.21826000  1
  H  213  1  0.99324000  0.83719400  0.23609100  1
  H  214  1  0.92103550  0.82027400  0.14651350  1
  H  215  1  0.82912350  0.67973200  0.09807150  1
  H  216  1  0.90483400  0.72833800  0.08173400  1
  H  217  1  0.84932850  0.74564150  0.00959000  1
  H  218  1  0.82029850  0.75607800  0.03801250  1
  H  219  1  0.85631300  0.77168200  0.17380400  1
  H  220  1  0.78457000  0.74379200  0.06156000  1
  H  221  1  0.76672050  0.75425200  0.10113450  1
  H  321  1  0.16573000  0.65336850  0.89895650  1
  H  322  1  0.22320700  0.68251300  0.93848400  1
  H  323  1  0.28247600  0.71823600  0.96200700  1
  H  324  1  0.33991200  0.73614500  0.99037500  1
  H  325  1  0.32309650  0.64657800  0.91825750  1
  H  326  1  0.18251250  0.59792450  0.82628000  1
  H  327  1  0.23122300  0.58187200  0.90216700  1
  H  328  1  0.24868000  0.50972100  0.84696600  1
  H  329  1  0.25905000  0.53798400  0.81776200  1
  H  330  1  0.27442650  0.67365050  0.85329500  1
  H  331  1  0.24677150  0.56138900  0.78191250  1
  H  332  1  0.25717100  0.60082500  0.76389400  1
  H  358  1  0.74834550  0.84650350  0.50949200  1
  H  359  1  0.75883950  0.81747650  0.53791300  1
  H  360  1  0.74667600  0.78180900  0.56152700  1
  H  361  1  0.75708300  0.76392450  0.60106450  1
  H  362  1  0.77446250  0.85350400  0.67374450  1
  H  363  1  0.73112400  0.90202200  0.58169500  1
  H  364  1  0.82310600  0.91831500  0.64661700  1
  H  365  1  0.83972750  0.99045500  0.73604850  1
  H  366  1  0.78227550  0.96200950  0.71808700  1
  H  367  1  0.68250350  0.82622800  0.59788050  1
  H  368  1  0.72301600  0.93846250  0.68226750  1
  H  369  1  0.66559950  0.89891850  0.65315700  1
  H  469  1  0.26667400  0.66296450  0.50962250  1
  H  470  1  0.28463200  0.72042300  0.53796600  1
  H  471  1  0.32039750  0.77967700  0.56146850  1
  H  472  1  0.34955400  0.83713550  0.60095150  1
  H  473  1  0.40488200  0.82033550  0.67370050  1
  H  474  1  0.35617200  0.67971100  0.58176800  1
  H  475  1  0.32907800  0.72839150  0.64657550  1
  H  476  1  0.40180600  0.74583750  0.73615150  1
  H  477  1  0.44133800  0.75625400  0.71823500  1
  H  478  1  0.42103050  0.77160100  0.59791050  1
  H  479  1  0.46485050  0.74395000  0.68247750  1
  H  480  1  0.49315600  0.75421750  0.65331350  1
  H  506  1  0.23883200  0.24554550  0.89891650  1
  H  507  1  0.22097350  0.25608100  0.93847850  1
  H  508  1  0.18529500  0.24393800  0.96205100  1
  H  509  1  0.15628600  0.25445750  0.99047550  1
  H  510  1  0.10083350  0.27176250  0.91830500  1
  H  511  1  0.14931200  0.22823950  0.82622850  1
  H  512  1  0.17648950  0.32032350  0.90201300  1
  H  513  1  0.10370200  0.33696350  0.84647850  1
  H  514  1  0.06422600  0.27951100  0.81745500  1
  H  515  1  0.08463050  0.17972900  0.85349250  1
  H  516  1  0.04076700  0.22023500  0.78174700  1
  H  517  1  0.01244350  0.16280450  0.76389900  1
  H  617  1  0.51235850  0.76393850  0.16310100  1
  H  618  1  0.54078350  0.78198300  0.22059150  1
  H  619  1  0.56439750  0.81782900  0.27985550  1
  H  620  1  0.60399700  0.84696900  0.33727400  1
  H  621  1  0.67663250  0.90210250  0.32025100  1
  H  622  1  0.58449850  0.85332400  0.17966950  1
  H  623  1  0.64939100  0.82627800  0.22840500  1
  H  624  1  0.73886500  0.89890100  0.24561600  1
  H  625  1  0.72095800  0.93846200  0.25600600  1
  H  626  1  0.60078050  0.91829300  0.27161350  1
  H  627  1  0.68524150  0.96201750  0.24379500  1
  H  628  1  0.65618850  0.99040950  0.25423000  1
  H  654  1  0.90194550  0.73605100  0.74557250  1
  H  655  1  0.94143200  0.71809050  0.75608650  1
  H  656  1  0.96488200  0.68228000  0.74388600  1
  H  657  1  0.99314200  0.65312750  0.75428050  1
  H  658  1  0.92094200  0.59788000  0.77169100  1
  H  659  1  0.82912450  0.64664800  0.72831350  1
  H  660  1  0.90482050  0.67367050  0.82030700  1
  H  661  1  0.84933800  0.60089150  0.83697950  1
  H  662  1  0.82029400  0.56138650  0.77952250  1
  H  663  1  0.85627100  0.58180400  0.67971800  1
  H  664  1  0.78457900  0.53789550  0.72024150  1
  H  665  1  0.76671600  0.50957600  0.66282600  1
  H  765  1  0.16587550  0.00958850  0.26390500  1
  H  766  1  0.22334150  0.03797800  0.28190650  1
  H  767  1  0.28259750  0.06153100  0.31772850  1
  H  768  1  0.34005200  0.10104350  0.34694450  1
  H  769  1  0.32313150  0.17374800  0.40214250  1
  H  770  1  0.18250800  0.08173600  0.35333300  1
  H  771  1  0.23121900  0.14659000  0.32629800  1
  H  772  1  0.24864350  0.23615600  0.39902150  1
  H  773  1  0.25903050  0.21822500  0.43854450  1
  H  774  1  0.27441200  0.09792850  0.41825850  1
  H  775  1  0.24670250  0.18244900  0.46203950  1
  H  776  1  0.25695600  0.15327850  0.49034250  1
  H  802  1  0.74824400  0.39918700  0.23601500  1
  H  803  1  0.75874000  0.43863050  0.21801050  1
  H  804  1  0.74656500  0.46205600  0.18217000  1
  H  805  1  0.75703450  0.49031550  0.15300700  1
  H  806  1  0.77450900  0.41812800  0.09788500  1
  H  807  1  0.73106950  0.32635200  0.14666550  1
  H  808  1  0.82310500  0.40203300  0.17367900  1
  H  809  1  0.83973350  0.34644500  0.10091550  1
  H  810  1  0.78227350  0.31738050  0.06145200  1
  H  811  1  0.68250200  0.35345950  0.08180250  1
  H  812  1  0.72299950  0.28167150  0.03800800  1
  H  813  1  0.66557250  0.26383300  0.00966050  1
  H  895  1  0.35454750  0.17011600  0.65587450  1
  H  900  1  0.31780900  0.06750450  0.60446650  1
  H  905  1  0.32094650  0.17024350  0.51431100  1
  H  906  1  0.25540450  0.06753850  0.46299900  1
  H  915  1  0.15079750  0.30394750  0.31845300  1
  H  920  1  0.18779550  0.28971550  0.25279100  1
  H  925  1  0.18451950  0.19582150  0.35181100  1
  H  926  1  0.25035150  0.21060000  0.31508150  1
  H  935  1  0.98863800  0.32996550  0.18156550  1
  H  940  1  0.03976050  0.43255400  0.24741850  1
  H  945  1  0.84690600  0.32965450  0.14808450  1
  H  946  1  0.89811200  0.43232600  0.18501500  1
  H  955  1  0.51717650  0.19603400  0.84404650  1
  H  960  1  0.46582200  0.21033450  0.89534750  1
  H  965  1  0.65871800  0.30418100  0.98585000  1
  H  966  1  0.60725750  0.28946650  0.03695000  1
  H  975  1  0.69873550  0.34410350  0.51426100  1
  H  980  1  0.71322100  0.39546350  0.46297950  1
  H  985  1  0.80689950  0.48570300  0.65585750  1
  H  986  1  0.79239150  0.53695900  0.60448550  1
  H  995  1  0.83245450  0.68159400  0.98567450  1
  H  1000  1  0.93508200  0.74731850  0.03693850  1
  H  1005  1  0.83248800  0.64813200  0.84403800  1
  H  1006  1  0.93507550  0.68491700  0.89537450  1
  H  1015  1  0.80697850  0.81840400  0.14834850  1
  H  1020  1  0.79241050  0.75259450  0.18516600  1
  H  1025  1  0.69866500  0.85171850  0.18157150  1
  H  1026  1  0.71324050  0.81497550  0.24746200  1
  H  1035  1  0.67301750  0.15599150  0.35199500  1
  H  1040  1  0.57038200  0.10451600  0.31501800  1
  H  1045  1  0.67308500  0.01432350  0.31827150  1
  H  1046  1  0.57046350  0.96305850  0.25259500  1
  H  1055  1  0.18442800  0.48588850  0.82998050  1
  H  1060  1  0.25036050  0.53698400  0.93256750  1
  H  1065  1  0.15080450  0.34411800  0.82962550  1
  H  1066  1  0.18785800  0.39533850  0.93232150  1
  H  1075  1  0.84685200  0.01446850  0.69601150  1
  H  1080  1  0.89807950  0.96304100  0.71025850  1
  H  1085  1  0.98867400  0.15594550  0.80427750  1
  H  1086  1  0.03974550  0.10447500  0.78946250  1
  H  1095  1  0.65864150  0.85168450  0.67009300  1
  H  1100  1  0.60723500  0.81488850  0.56748550  1
  H  1105  1  0.51709850  0.81821450  0.67022900  1
  H  1106  1  0.46578450  0.75256800  0.56754650  1
  H  1115  1  0.32114900  0.64795450  0.80390950  1
  H  1120  1  0.25551450  0.68498100  0.78964750  1
  H  1125  1  0.35461750  0.68171700  0.69584450  1
  H  1126  1  0.31784400  0.74751650  0.71055950  1
  H  1135  1  0.65117950  0.82995450  0.34410500  1
  H  1140  1  0.68799200  0.93257350  0.39558250  1
  H  1145  1  0.68435400  0.82968800  0.48556600  1
  H  1146  1  0.75016800  0.93235750  0.53698050  1
  H  1155  1  0.85477900  0.69602300  0.68154200  1
  H  1160  1  0.81780850  0.71028800  0.74722450  1
  H  1165  1  0.82120100  0.80426600  0.64830000  1
  H  1166  1  0.75534350  0.78948350  0.68499200  1
  H  1175  1  0.01702250  0.67005850  0.81843400  1
  H  1180  1  0.96581350  0.56744800  0.75263850  1
  H  1185  1  0.15867450  0.67020400  0.85176950  1
  H  1186  1  0.10738900  0.56755500  0.81496200  1
  H  1195  1  0.48841000  0.80400800  0.15598400  1
  H  1200  1  0.53971650  0.78956050  0.10466400  1
  H  1205  1  0.34680600  0.69590500  0.01423800  1
  H  1206  1  0.39825200  0.71042800  0.96307700  1
  H  1215  1  0.30685400  0.65590000  0.48568200  1
  H  1220  1  0.29233900  0.60455700  0.53697200  1
  H  1225  1  0.19869550  0.51430100  0.34408450  1
  H  1226  1  0.21323400  0.46304000  0.39547100  1
  H  1235  1  0.17319800  0.31852400  0.01441800  1
  H  1240  1  0.07055550  0.25282200  0.96305750  1
  H  1245  1  0.17296700  0.35174650  0.15594750  1
  H  1246  1  0.07041600  0.31507150  0.10453950  1
  H  1255  1  0.19866750  0.18145150  0.85170700  1
  H  1260  1  0.21307150  0.24724250  0.81485300  1
  H  1265  1  0.30705050  0.14833300  0.81845050  1
  H  1266  1  0.29232650  0.18502950  0.75253300  1
  H  1275  1  0.33261000  0.84401450  0.64810850  1
  H  1280  1  0.43521850  0.89550400  0.68495550  1
  H  1285  1  0.33246350  0.98563000  0.68166250  1
  H  1286  1  0.43509500  0.03695150  0.74730050  1
  H  1295  1  0.82130550  0.51408950  0.16999000  1
  H  1300  1  0.75531500  0.46304300  0.06742100  1
  H  1305  1  0.85474100  0.65589200  0.17045200  1
  H  1306  1  0.81774700  0.60473700  0.06776500  1
  H  1315  1  0.15878350  0.98565550  0.30400800  1
  H  1320  1  0.10747450  0.03697600  0.28958650  1
  H  1325  1  0.01704200  0.84408850  0.19576850  1
  H  1326  1  0.96588600  0.89549500  0.21044300  1
  H  1335  1  0.34692950  0.14820600  0.32995250  1
  H  1340  1  0.39841300  0.18511750  0.43259350  1
  H  1345  1  0.48846000  0.18167900  0.32977300  1
  H  1346  1  0.53980800  0.24747700  0.43243300  1
  H  1355  1  0.68432000  0.35204750  0.19608750  1
  H  1360  1  0.74996100  0.31502150  0.21025650  1
  H  1365  1  0.65095650  0.31825450  0.30418700  1
  H  1366  1  0.68771450  0.25244100  0.28937050  1
  N  891  1  0.30963800  0.08940250  0.57588650  1
  N  901  1  0.28543300  0.08941950  0.51347550  1
  N  911  1  0.19603600  0.26927900  0.28281900  1
  N  921  1  0.22026600  0.23099600  0.30692200  1
  N  931  1  0.98928200  0.41062350  0.21737750  1
  N  941  1  0.92679650  0.41052600  0.19317450  1
  N  951  1  0.51628550  0.23075550  0.92399200  1
  N  961  1  0.57868300  0.26905100  0.98647300  1
  N  971  1  0.73370100  0.42406800  0.51346600  1
  N  981  1  0.77196750  0.48649650  0.57589100  1
  N  991  1  0.91322850  0.71726300  0.98647050  1
  N  1001  1  0.91323100  0.69311250  0.92401250  1
  N  1011  1  0.77192300  0.78259350  0.19326850  1
  N  1021  1  0.73364650  0.80675700  0.21740450  1
  N  1031  1  0.59228050  0.07595250  0.30681000  1
  N  1041  1  0.59231450  0.01353950  0.28264500  1
  N  1051  1  0.22027200  0.48650400  0.91063000  1
  N  1061  1  0.19603700  0.42401000  0.91051800  1
  N  1071  1  0.92675700  0.01350850  0.73072150  1
  N  1081  1  0.98926650  0.07590500  0.76905050  1
  N  1091  1  0.57866000  0.80676150  0.58938750  1
  N  1101  1  0.51625350  0.78260600  0.58941350  1
  N  1111  1  0.28556400  0.69321850  0.76923550  1
  N  1121  1  0.30968500  0.71743950  0.73096550  1
  N  1131  1  0.69607200  0.91063350  0.42413050  1
  N  1141  1  0.72015950  0.91054350  0.48650800  1
  N  1151  1  0.80958900  0.73074200  0.71721200  1
  N  1161  1  0.78540700  0.76906650  0.69314350  1
  N  1171  1  0.01629200  0.58935050  0.78264350  1
  N  1181  1  0.07874100  0.58939150  0.80680850  1
  N  1191  1  0.48925350  0.76914850  0.07603100  1
  N  1201  1  0.42684000  0.73085400  0.01356100  1
  N  1211  1  0.27187500  0.57594550  0.48648950  1
  N  1221  1  0.23363750  0.51351050  0.42407000  1
  N  1231  1  0.09237050  0.28284650  0.01352400  1
  N  1241  1  0.09229900  0.30692200  0.07594100  1
  N  1251  1  0.23361600  0.21729600  0.80674800  1
  N  1261  1  0.27194850  0.19322800  0.78261750  1
  N  1271  1  0.41331550  0.92405900  0.69317150  1
  N  1281  1  0.41326000  0.98646450  0.71729750  1
  N  1291  1  0.78537550  0.51352800  0.08938050  1
  N  1301  1  0.80955900  0.57603900  0.08953500  1
  N  1311  1  0.07883600  0.98651300  0.26917100  1
  N  1321  1  0.01636400  0.92409650  0.23087350  1
  N  1331  1  0.42696000  0.19324850  0.41065950  1
  N  1341  1  0.48934250  0.21742700  0.41059550  1
  N  1351  1  0.71996950  0.30680650  0.23073300  1
  N  1361  1  0.69589400  0.28257150  0.26901850  1
  O  907  1  0.35146000  0.20826400  0.57565000  1
  O  908  1  0.36204200  0.20821850  0.63262050  1
  O  927  1  0.15397500  0.22663250  0.35944250  1
  O  928  1  0.14337050  0.27308550  0.34899000  1
  O  947  1  0.87027950  0.29169450  0.14053100  1
  O  948  1  0.92730850  0.29181000  0.15105450  1
  O  967  1  0.63550550  0.27335050  0.92448400  1
  O  968  1  0.57857700  0.22688250  0.86744850  1
  O  987  1  0.77605400  0.42437950  0.63259350  1
  O  988  1  0.72958400  0.36739300  0.57561700  1
  O  1007  1  0.79441300  0.64057650  0.86733350  1
  O  1008  1  0.79439850  0.65106500  0.92430150  1
  O  1027  1  0.72954450  0.85929450  0.15112000  1
  O  1028  1  0.77607400  0.84884400  0.14069300  1
  O  1047  1  0.71114100  0.07571300  0.34885300  1
  O  1048  1  0.71111550  0.13269900  0.35945250  1
  O  1067  1  0.14326300  0.36750500  0.79167900  1
  O  1068  1  0.15384100  0.42455200  0.79181900  1
  O  1087  1  0.92732000  0.13276300  0.77343400  1
  O  1088  1  0.87027600  0.07586250  0.72691850  1
  O  1107  1  0.57844000  0.84873000  0.70824900  1
  O  1108  1  0.63540500  0.85925750  0.70820350  1
  O  1127  1  0.36222850  0.65116850  0.72665900  1
  O  1128  1  0.35172950  0.64054850  0.77308800  1
  O  1147  1  0.65390400  0.79171500  0.42422200  1
  O  1148  1  0.64350050  0.79180900  0.36729850  1
  O  1167  1  0.85170700  0.77341650  0.64063450  1
  O  1168  1  0.86224300  0.72691100  0.65103300  1
  O  1187  1  0.13535550  0.70821650  0.85936200  1
  O  1188  1  0.07836200  0.70817100  0.84889400  1
  O  1207  1  0.37006500  0.72672700  0.07561300  1
  O  1208  1  0.42701950  0.77317800  0.13262550  1
  O  1227  1  0.22953650  0.57562600  0.36735750  1
  O  1228  1  0.27600350  0.63261150  0.42433000  1
  O  1247  1  0.21110550  0.35941000  0.13272850  1
  O  1248  1  0.21120300  0.34902150  0.07580850  1
  O  1267  1  0.27619900  0.14070600  0.84891600  1
  O  1268  1  0.22962900  0.15106150  0.85934050  1
  O  1287  1  0.29442900  0.92424000  0.65116100  1
  O  1288  1  0.29449100  0.86728250  0.64063850  1
  O  1307  1  0.86230150  0.63247050  0.20837000  1
  O  1308  1  0.85181050  0.57541900  0.20818950  1
  O  1327  1  0.07840450  0.86732450  0.22665400  1
  O  1328  1  0.13541650  0.92426600  0.27315350  1
  O  1347  1  0.42711900  0.15118200  0.29176800  1
  O  1348  1  0.37015900  0.14064800  0.29182800  1
  O  1367  1  0.64339950  0.34889500  0.27345750  1
  O  1368  1  0.65384550  0.35951900  0.22700950  1
