# generated using pymatgen
data_H26C37N2
_symmetry_space_group_name_H-M   'P 1'
_cell_length_a   31.71080000
_cell_length_b   31.71080000
_cell_length_c   37.22230000
_cell_angle_alpha   90.00000000
_cell_angle_beta   90.00000000
_cell_angle_gamma   90.00000000
_symmetry_Int_Tables_number   1
_chemical_formula_structural   H26C37N2
_chemical_formula_sum   'H624 C888 N48'
_cell_volume   37429.80824187
_cell_formula_units_Z   24
loop_
 _symmetry_equiv_pos_site_id
 _symmetry_equiv_pos_as_xyz
  1  'x, y, z'
loop_
 _atom_site_type_symbol
 _atom_site_label
 _atom_site_symmetry_multiplicity
 _atom_site_fract_x
 _atom_site_fract_y
 _atom_site_fract_z
 _atom_site_occupancy
  H  4  1  0.15065200  0.01202500  0.20340900  1
  H  5  1  0.10592100  0.01202600  0.05386500  1
  H  7  1  0.65935800  0.00438200  0.69264200  1
  H  8  1  0.61066200  0.01975800  0.54591000  1
  H  11  1  0.97220000  0.03230800  0.05572300  1
  H  12  1  0.07836400  0.01952800  0.98891300  1
  H  16  1  0.28478800  0.03128800  0.20077900  1
  H  17  1  0.17887700  0.01875000  0.26791500  1
  H  21  1  0.68118000  0.01662600  0.76548000  1
  H  23  1  0.82157400  0.02399900  0.68358200  1
  H  27  1  0.47531100  0.02238400  0.55991700  1
  H  28  1  0.57470900  0.02837800  0.48535200  1
  H  31  1  0.01165100  0.15111400  0.20311900  1
  H  32  1  0.01137400  0.10556500  0.05462100  1
  H  35  1  0.01578200  0.60868800  0.54922700  1
  H  36  1  0.00723300  0.65660800  0.69716300  1
  H  38  1  0.02772900  0.96272400  0.91933900  1
  H  41  1  0.02937300  0.45743700  0.42162400  1
  H  45  1  0.02454400  0.78511900  0.84214300  1
  H  48  1  0.03315900  0.27499000  0.30938500  1
  H  70  1  0.05286100  0.11010200  0.16288400  1
  H  71  1  0.10429900  0.24641700  0.20151400  1
  H  72  1  0.14621600  0.20472700  0.16234300  1
  H  73  1  0.20574900  0.14532400  0.16103200  1
  H  74  1  0.24625800  0.10446600  0.20176900  1
  H  75  1  0.11025000  0.05283200  0.16265800  1
  H  76  1  0.14635400  0.05243600  0.09487000  1
  H  77  1  0.05198500  0.14610200  0.09554800  1
  H  78  1  0.11162800  0.20581300  0.09620500  1
  H  79  1  0.20333900  0.10966000  0.09333300  1
  H  80  1  0.24452800  0.15065600  0.05310000  1
  H  81  1  0.15372800  0.24761500  0.05732700  1
  H  106  1  0.73851700  0.10907900  0.71062800  1
  H  107  1  0.69668900  0.15014000  0.67063600  1
  H  108  1  0.61702900  0.04551500  0.65356800  1
  H  109  1  0.56050800  0.10677100  0.67097400  1
  H  110  1  0.51870300  0.14764700  0.71106600  1
  H  111  1  0.59717100  0.25274500  0.69262000  1
  H  112  1  0.63966100  0.21169500  0.65364900  1
  H  113  1  0.60667900  0.19701200  0.58746500  1
  H  114  1  0.64681300  0.23824600  0.54691400  1
  H  115  1  0.75097600  0.15754700  0.56248000  1
  H  116  1  0.71114100  0.11700800  0.60347200  1
  H  117  1  0.65055700  0.06082500  0.58688000  1
  H  118  1  0.54515700  0.13928300  0.60421900  1
  H  119  1  0.50526900  0.09819400  0.56350900  1
  H  143  1  0.24013000  0.64970500  0.54865800  1
  H  144  1  0.19871800  0.60829700  0.58857500  1
  H  145  1  0.15667100  0.75185000  0.56274400  1
  H  146  1  0.11468300  0.71019500  0.60180300  1
  H  147  1  0.05657500  0.64907100  0.59025700  1
  H  148  1  0.10246700  0.50842500  0.55848300  1
  H  149  1  0.14299100  0.54862000  0.59952800  1
  H  150  1  0.10742300  0.55768600  0.66731300  1
  H  151  1  0.14760200  0.51636900  0.70793600  1
  H  152  1  0.24982300  0.60036900  0.69638700  1
  H  153  1  0.20971900  0.64151900  0.65583600  1
  H  154  1  0.15002800  0.69844200  0.66861000  1
  H  155  1  0.04709100  0.61558400  0.65628700  1
  H  156  1  0.11024800  0.73938400  0.70981100  1
  H  182  1  0.50764300  0.60184800  0.05933700  1
  H  183  1  0.54773400  0.64273900  0.10015300  1
  H  184  1  0.60921100  0.51690800  0.04870900  1
  H  185  1  0.64926400  0.55784700  0.08967600  1
  H  186  1  0.70873500  0.61506700  0.10015800  1
  H  187  1  0.74874700  0.65622700  0.05953200  1
  H  188  1  0.64771200  0.74207100  0.05042000  1
  H  189  1  0.60759300  0.70066600  0.09098800  1
  H  190  1  0.64370700  0.70804800  0.15868300  1
  H  191  1  0.60333600  0.74825500  0.19988600  1
  H  192  1  0.51502900  0.64921300  0.20733200  1
  H  193  1  0.55572100  0.60876000  0.16627700  1
  H  194  1  0.61409600  0.54795400  0.15663900  1
  H  195  1  0.69971000  0.64892000  0.16751100  1
  H  196  1  0.74126700  0.60767200  0.20742800  1
  H  197  1  0.65617600  0.50645100  0.19580200  1
  H  223  1  0.89689800  0.26924900  0.29658800  1
  H  224  1  0.85675400  0.31042500  0.33726800  1
  H  225  1  0.00159700  0.34889300  0.31328500  1
  H  226  1  0.96156400  0.38983800  0.35393900  1
  H  227  1  0.90016500  0.44691600  0.33703700  1
  H  228  1  0.85991700  0.48787700  0.29632500  1
  H  229  1  0.75575100  0.40738700  0.31254900  1
  H  230  1  0.79575900  0.36695600  0.35351700  1
  H  231  1  0.81016100  0.40052500  0.42039600  1
  H  232  1  0.76821000  0.35967500  0.46047400  1
  H  233  1  0.84759300  0.25496900  0.44326400  1
  H  234  1  0.88991300  0.29582800  0.40394100  1
  H  235  1  0.94618100  0.35692200  0.42114600  1
  H  236  1  0.86762400  0.46212600  0.40307600  1
  H  237  1  0.91032900  0.50328800  0.44177300  1
  H  238  1  0.98801200  0.39783900  0.46115100  1
  H  264  1  0.85818900  0.99099200  0.79955900  1
  H  265  1  0.89857300  0.95046300  0.84039200  1
  H  266  1  0.75831800  0.90377000  0.80857200  1
  H  267  1  0.79858800  0.86356900  0.84975700  1
  H  268  1  0.85969300  0.80512200  0.84225600  1
  H  269  1  0.90185500  0.76301600  0.80361500  1
  H  270  1  0.99870600  0.85387800  0.80860700  1
  H  271  1  0.95742300  0.89491100  0.84863100  1
  H  272  1  0.94986100  0.85826800  0.91749300  1
  H  273  1  0.99153400  0.89929200  0.95749900  1
  H  274  1  0.90718800  0.00108300  0.94549000  1
  H  275  1  0.86472000  0.95963400  0.90669300  1
  H  276  1  0.80690700  0.89983700  0.91709000  1
  H  277  1  0.89261200  0.79871400  0.90837000  1
  H  278  1  0.85008400  0.75788300  0.94756700  1
  H  279  1  0.76500000  0.85936800  0.95737800  1
  H  305  1  0.40308000  0.49685500  0.95088200  1
  H  306  1  0.36094000  0.45499600  0.91203400  1
  H  307  1  0.49531300  0.40116600  0.95302900  1
  H  308  1  0.45402400  0.36012000  0.91291300  1
  H  309  1  0.39681700  0.30322800  0.91323000  1
  H  310  1  0.35640800  0.26263300  0.95418100  1
  H  311  1  0.26030800  0.35450300  0.95144900  1
  H  312  1  0.30096000  0.39532200  0.91075300  1
  H  313  1  0.30361300  0.35940400  0.84338700  1
  H  314  1  0.26228100  0.40022300  0.80310000  1
  H  315  1  0.35313200  0.49716100  0.80673200  1
  H  316  1  0.39521200  0.45567700  0.84590500  1
  H  317  1  0.45459800  0.39630000  0.84519800  1
  H  318  1  0.36090500  0.30196600  0.84544800  1
  H  319  1  0.40144300  0.26146600  0.80461200  1
  H  320  1  0.49519600  0.35581200  0.80426300  1
  H  346  1  0.35807900  0.76720400  0.45869800  1
  H  347  1  0.39860500  0.80760700  0.41785700  1
  H  348  1  0.25730000  0.85303300  0.44756800  1
  H  349  1  0.29772100  0.89311400  0.40643400  1
  H  350  1  0.35908200  0.95121100  0.41600600  1
  H  351  1  0.40098600  0.99326300  0.45491000  1
  H  352  1  0.49909100  0.90391800  0.44816200  1
  H  353  1  0.45799800  0.86289700  0.40798900  1
  H  354  1  0.44909600  0.89927900  0.33920000  1
  H  355  1  0.49091400  0.85829000  0.29928800  1
  H  356  1  0.40813200  0.75551100  0.31297400  1
  H  357  1  0.36540800  0.79694500  0.35153700  1
  H  358  1  0.30784800  0.85727400  0.33913000  1
  H  359  1  0.39215900  0.95927100  0.35006700  1
  H  360  1  0.34971300  0.00028200  0.31099100  1
  H  361  1  0.26611500  0.89791400  0.29883200  1
  H  364  1  0.93156100  0.99085300  0.01517100  1
  H  366  1  0.07234100  0.98370100  0.93370700  1
  H  373  1  0.82506800  0.26975800  0.51685700  1
  H  374  1  0.78439400  0.22859700  0.55748100  1
  H  375  1  0.68037900  0.23517900  0.48751700  1
  H  377  1  0.68642800  0.27180700  0.43263100  1
  H  378  1  0.73059200  0.29473200  0.41935900  1
  H  385  1  0.32393600  0.48500800  0.73908100  1
  H  386  1  0.28341300  0.52638100  0.69848500  1
  H  387  1  0.18055000  0.52321200  0.76972200  1
  H  389  1  0.18749200  0.48979500  0.82583900  1
  H  390  1  0.23166400  0.46725600  0.83942700  1
  H  397  1  0.43138200  0.76421200  0.24346600  1
  H  398  1  0.47214100  0.72267700  0.20300900  1
  H  399  1  0.57948300  0.73990800  0.26766600  1
  H  401  1  0.57366800  0.77646000  0.32258100  1
  H  402  1  0.52886000  0.79653200  0.33741300  1
  H  409  1  0.18104300  0.73974100  0.49123300  1
  H  410  1  0.22176600  0.78108600  0.45072200  1
  H  411  1  0.32634600  0.77254600  0.51986100  1
  H  413  1  0.32011100  0.73650800  0.57495100  1
  H  414  1  0.27574500  0.71431400  0.58857500  1
  H  421  1  0.68208500  0.52045300  0.26714200  1
  H  422  1  0.72279400  0.47937200  0.30780500  1
  H  423  1  0.82581800  0.48332400  0.23668300  1
  H  425  1  0.81927800  0.51846300  0.18119400  1
  H  426  1  0.77516100  0.54143300  0.16791700  1
  H  433  1  0.57622200  0.24269300  0.76448600  1
  H  434  1  0.53543500  0.28409200  0.80498300  1
  H  435  1  0.42823200  0.26721900  0.74002400  1
  H  437  1  0.43387700  0.22963100  0.68558700  1
  H  438  1  0.47863400  0.20904800  0.67109300  1
  H  443  1  0.93056500  0.49526900  0.51297800  1
  H  444  1  0.97145900  0.53677800  0.55337300  1
  H  445  1  0.07977400  0.51518000  0.49085900  1
  H  447  1  0.07431800  0.47697900  0.43670100  1
  H  454  1  0.82438000  0.77051500  0.01737900  1
  H  455  1  0.78372900  0.72908200  0.05785500  1
  H  456  1  0.67938600  0.73677000  0.98841900  1
  H  458  1  0.68580000  0.77210500  0.93303800  1
  H  459  1  0.73014400  0.79424900  0.91934400  1
  H  463  1  0.32545600  0.98961700  0.24113900  1
  H  465  1  0.18494000  0.98253800  0.32293600  1
  H  466  1  0.22949500  0.96125500  0.33709600  1
  H  473  1  0.18230100  0.23766500  0.99029400  1
  H  474  1  0.22285200  0.27936700  0.94987700  1
  H  475  1  0.32721600  0.27180400  0.01922500  1
  H  477  1  0.32044200  0.23801300  0.07520400  1
  H  478  1  0.27600600  0.21639400  0.08921800  1
  H  482  1  0.72190100  0.97514300  0.80589600  1
  H  483  1  0.82742300  0.98662800  0.73810100  1
  H  484  1  0.77713500  0.04598500  0.66986500  1
  H  488  1  0.43522000  0.98078400  0.51922900  1
  H  490  1  0.56681200  0.99786000  0.42823000  1
  H  491  1  0.52320300  0.97395400  0.41508200  1
  H  496  1  0.93508400  0.77446100  0.73910600  1
  H  497  1  0.97533200  0.73271500  0.69862200  1
  H  498  1  0.07609700  0.73048200  0.77197600  1
  H  499  1  0.06842200  0.76189100  0.82879100  1
  H  504  1  0.07361300  0.23348300  0.26886600  1
  H  505  1  0.93191100  0.27566100  0.23642700  1
  H  507  1  0.93917700  0.24278200  0.18012600  1
  H  508  1  0.98306700  0.21935500  0.16697300  1
  H  515  1  0.43323000  0.48562600  0.01776200  1
  H  516  1  0.47380600  0.52734000  0.05806200  1
  H  517  1  0.57635800  0.52412700  0.98652200  1
  H  519  1  0.56921500  0.49062700  0.93047500  1
  H  520  1  0.52503800  0.46801600  0.91701800  1
  H  524  1  0.15065200  0.32737500  0.25714000  1
  H  525  1  0.10592100  0.32737600  0.10759600  1
  H  527  1  0.65935800  0.31973200  0.74637300  1
  H  528  1  0.61066200  0.33510800  0.59964100  1
  H  531  1  0.97220000  0.34765800  0.10945400  1
  H  532  1  0.07836400  0.33487800  0.04264420  1
  H  536  1  0.28478800  0.34663800  0.25451000  1
  H  537  1  0.17887700  0.33410000  0.32164600  1
  H  541  1  0.68118000  0.33197600  0.81921100  1
  H  543  1  0.82157400  0.33934900  0.73731300  1
  H  547  1  0.47531100  0.33773400  0.61364800  1
  H  548  1  0.57470900  0.34372800  0.53908300  1
  H  551  1  0.01165100  0.46646400  0.25685000  1
  H  552  1  0.01137400  0.42091500  0.10835200  1
  H  555  1  0.01578200  0.92403800  0.60295800  1
  H  556  1  0.00723300  0.97195800  0.75089400  1
  H  558  1  0.02772900  0.27807400  0.97307000  1
  H  561  1  0.02937300  0.77278700  0.47535500  1
  H  565  1  0.02454400  0.10046900  0.89587400  1
  H  568  1  0.03315900  0.59034000  0.36311600  1
  H  590  1  0.05286100  0.42545200  0.21661500  1
  H  591  1  0.10429900  0.56176700  0.25524500  1
  H  592  1  0.14621600  0.52007700  0.21607400  1
  H  593  1  0.20574900  0.46067400  0.21476300  1
  H  594  1  0.24625800  0.41981600  0.25550000  1
  H  595  1  0.11025000  0.36818200  0.21638900  1
  H  596  1  0.14635400  0.36778600  0.14860100  1
  H  597  1  0.05198500  0.46145200  0.14927900  1
  H  598  1  0.11162800  0.52116300  0.14993600  1
  H  599  1  0.20333900  0.42501000  0.14706400  1
  H  600  1  0.24452800  0.46600600  0.10683100  1
  H  601  1  0.15372800  0.56296500  0.11105800  1
  H  626  1  0.73851700  0.42442900  0.76435900  1
  H  627  1  0.69668900  0.46549000  0.72436700  1
  H  628  1  0.61702900  0.36086500  0.70729900  1
  H  629  1  0.56050800  0.42212100  0.72470500  1
  H  630  1  0.51870300  0.46299700  0.76479700  1
  H  631  1  0.59717100  0.56809500  0.74635100  1
  H  632  1  0.63966100  0.52704500  0.70738000  1
  H  633  1  0.60667900  0.51236200  0.64119600  1
  H  634  1  0.64681300  0.55359600  0.60064500  1
  H  635  1  0.75097600  0.47289700  0.61621100  1
  H  636  1  0.71114100  0.43235800  0.65720300  1
  H  637  1  0.65055700  0.37617500  0.64061100  1
  H  638  1  0.54515700  0.45463300  0.65795000  1
  H  639  1  0.50526900  0.41354400  0.61724000  1
  H  663  1  0.24013000  0.96505500  0.60238900  1
  H  664  1  0.19871800  0.92364700  0.64230600  1
  H  665  1  0.15667100  0.06720000  0.61647500  1
  H  666  1  0.11468300  0.02554500  0.65553400  1
  H  667  1  0.05657500  0.96442100  0.64398800  1
  H  668  1  0.10246700  0.82377500  0.61221400  1
  H  669  1  0.14299100  0.86397000  0.65325900  1
  H  670  1  0.10742300  0.87303600  0.72104400  1
  H  671  1  0.14760200  0.83171900  0.76166700  1
  H  672  1  0.24982300  0.91571900  0.75011800  1
  H  673  1  0.20971900  0.95686900  0.70956700  1
  H  674  1  0.15002800  0.01379200  0.72234100  1
  H  675  1  0.04709100  0.93093400  0.71001800  1
  H  676  1  0.11024800  0.05473400  0.76354200  1
  H  702  1  0.50764300  0.91719800  0.11306800  1
  H  703  1  0.54773400  0.95808900  0.15388400  1
  H  704  1  0.60921100  0.83225800  0.10244000  1
  H  705  1  0.64926400  0.87319700  0.14340700  1
  H  706  1  0.70873500  0.93041700  0.15388900  1
  H  707  1  0.74874700  0.97157700  0.11326300  1
  H  708  1  0.64771200  0.05742100  0.10415100  1
  H  709  1  0.60759300  0.01601600  0.14471900  1
  H  710  1  0.64370700  0.02339800  0.21241400  1
  H  711  1  0.60333600  0.06360500  0.25361700  1
  H  712  1  0.51502900  0.96456300  0.26106300  1
  H  713  1  0.55572100  0.92411000  0.22000800  1
  H  714  1  0.61409600  0.86330400  0.21037000  1
  H  715  1  0.69971000  0.96427000  0.22124200  1
  H  716  1  0.74126700  0.92302200  0.26115900  1
  H  717  1  0.65617600  0.82180100  0.24953300  1
  H  743  1  0.89689800  0.58459900  0.35031900  1
  H  744  1  0.85675400  0.62577500  0.39099900  1
  H  745  1  0.00159700  0.66424300  0.36701600  1
  H  746  1  0.96156400  0.70518800  0.40767000  1
  H  747  1  0.90016500  0.76226600  0.39076800  1
  H  748  1  0.85991700  0.80322700  0.35005600  1
  H  749  1  0.75575100  0.72273700  0.36628000  1
  H  750  1  0.79575900  0.68230600  0.40724800  1
  H  751  1  0.81016100  0.71587500  0.47412700  1
  H  752  1  0.76821000  0.67502500  0.51420500  1
  H  753  1  0.84759300  0.57031900  0.49699500  1
  H  754  1  0.88991300  0.61117800  0.45767200  1
  H  755  1  0.94618100  0.67227200  0.47487700  1
  H  756  1  0.86762400  0.77747600  0.45680700  1
  H  757  1  0.91032900  0.81863800  0.49550400  1
  H  758  1  0.98801200  0.71318900  0.51488200  1
  H  784  1  0.85818900  0.30634200  0.85329000  1
  H  785  1  0.89857300  0.26581300  0.89412300  1
  H  786  1  0.75831800  0.21912000  0.86230300  1
  H  787  1  0.79858800  0.17891900  0.90348800  1
  H  788  1  0.85969300  0.12047200  0.89598700  1
  H  789  1  0.90185500  0.07836600  0.85734600  1
  H  790  1  0.99870600  0.16922800  0.86233800  1
  H  791  1  0.95742300  0.21026100  0.90236200  1
  H  792  1  0.94986100  0.17361800  0.97122400  1
  H  793  1  0.99153400  0.21464200  0.01123020  1
  H  794  1  0.90718800  0.31643300  0.99922100  1
  H  795  1  0.86472000  0.27498400  0.96042400  1
  H  796  1  0.80690700  0.21518700  0.97082100  1
  H  797  1  0.89261200  0.11406400  0.96210100  1
  H  798  1  0.85008400  0.07323300  0.00129823  1
  H  799  1  0.76500000  0.17471800  0.01110920  1
  H  825  1  0.40308000  0.81220500  0.00461323  1
  H  826  1  0.36094000  0.77034600  0.96576500  1
  H  827  1  0.49531300  0.71651600  0.00676023  1
  H  828  1  0.45402400  0.67547000  0.96664400  1
  H  829  1  0.39681700  0.61857800  0.96696100  1
  H  830  1  0.35640800  0.57798300  0.00791223  1
  H  831  1  0.26030800  0.66985300  0.00518023  1
  H  832  1  0.30096000  0.71067200  0.96448400  1
  H  833  1  0.30361300  0.67475400  0.89711800  1
  H  834  1  0.26228100  0.71557300  0.85683100  1
  H  835  1  0.35313200  0.81251100  0.86046300  1
  H  836  1  0.39521200  0.77102700  0.89963600  1
  H  837  1  0.45459800  0.71165000  0.89892900  1
  H  838  1  0.36090500  0.61731600  0.89917900  1
  H  839  1  0.40144300  0.57681600  0.85834300  1
  H  840  1  0.49519600  0.67116200  0.85799400  1
  H  866  1  0.35807900  0.08255400  0.51242900  1
  H  867  1  0.39860500  0.12295700  0.47158800  1
  H  868  1  0.25730000  0.16838300  0.50129900  1
  H  869  1  0.29772100  0.20846400  0.46016500  1
  H  870  1  0.35908200  0.26656100  0.46973700  1
  H  871  1  0.40098600  0.30861300  0.50864100  1
  H  872  1  0.49909100  0.21926800  0.50189300  1
  H  873  1  0.45799800  0.17824700  0.46172000  1
  H  874  1  0.44909600  0.21462900  0.39293100  1
  H  875  1  0.49091400  0.17364000  0.35301900  1
  H  876  1  0.40813200  0.07086100  0.36670500  1
  H  877  1  0.36540800  0.11229500  0.40526800  1
  H  878  1  0.30784800  0.17262400  0.39286100  1
  H  879  1  0.39215900  0.27462100  0.40379800  1
  H  880  1  0.34971300  0.31563200  0.36472200  1
  H  881  1  0.26611500  0.21326400  0.35256300  1
  H  884  1  0.93156100  0.30620300  0.06890220  1
  H  886  1  0.07234100  0.29905100  0.98743800  1
  H  893  1  0.82506800  0.58510800  0.57058800  1
  H  894  1  0.78439400  0.54394700  0.61121200  1
  H  895  1  0.68037900  0.55052900  0.54124800  1
  H  897  1  0.68642800  0.58715700  0.48636200  1
  H  898  1  0.73059200  0.61008200  0.47309000  1
  H  905  1  0.32393600  0.80035800  0.79281200  1
  H  906  1  0.28341300  0.84173100  0.75221600  1
  H  907  1  0.18055000  0.83856200  0.82345300  1
  H  909  1  0.18749200  0.80514500  0.87957000  1
  H  910  1  0.23166400  0.78260600  0.89315800  1
  H  917  1  0.43138200  0.07956200  0.29719700  1
  H  918  1  0.47214100  0.03802700  0.25674000  1
  H  919  1  0.57948300  0.05525800  0.32139700  1
  H  921  1  0.57366800  0.09181000  0.37631200  1
  H  922  1  0.52886000  0.11188200  0.39114400  1
  H  929  1  0.18104300  0.05509100  0.54496400  1
  H  930  1  0.22176600  0.09643600  0.50445300  1
  H  931  1  0.32634600  0.08789600  0.57359200  1
  H  933  1  0.32011100  0.05185800  0.62868200  1
  H  934  1  0.27574500  0.02966400  0.64230600  1
  H  941  1  0.68208500  0.83580300  0.32087300  1
  H  942  1  0.72279400  0.79472200  0.36153600  1
  H  943  1  0.82581800  0.79867400  0.29041400  1
  H  945  1  0.81927800  0.83381300  0.23492500  1
  H  946  1  0.77516100  0.85678300  0.22164800  1
  H  953  1  0.57622200  0.55804300  0.81821700  1
  H  954  1  0.53543500  0.59944200  0.85871400  1
  H  955  1  0.42823200  0.58256900  0.79375500  1
  H  957  1  0.43387700  0.54498100  0.73931800  1
  H  958  1  0.47863400  0.52439800  0.72482400  1
  H  963  1  0.93056500  0.81061900  0.56670900  1
  H  964  1  0.97145900  0.85212800  0.60710400  1
  H  965  1  0.07977400  0.83053000  0.54459000  1
  H  967  1  0.07431800  0.79232900  0.49043200  1
  H  974  1  0.82438000  0.08586500  0.07111020  1
  H  975  1  0.78372900  0.04443200  0.11158600  1
  H  976  1  0.67938600  0.05212000  0.04215020  1
  H  978  1  0.68580000  0.08745500  0.98676900  1
  H  979  1  0.73014400  0.10959900  0.97307500  1
  H  983  1  0.32545600  0.30496700  0.29487000  1
  H  985  1  0.18494000  0.29788800  0.37666700  1
  H  986  1  0.22949500  0.27660500  0.39082700  1
  H  993  1  0.18230100  0.55301500  0.04402520  1
  H  994  1  0.22285200  0.59471700  0.00360823  1
  H  995  1  0.32721600  0.58715400  0.07295620  1
  H  997  1  0.32044200  0.55336300  0.12893500  1
  H  998  1  0.27600600  0.53174400  0.14294900  1
  H  1002  1  0.72190100  0.29049300  0.85962700  1
  H  1003  1  0.82742300  0.30197800  0.79183200  1
  H  1004  1  0.77713500  0.36133500  0.72359600  1
  H  1008  1  0.43522000  0.29613400  0.57296000  1
  H  1010  1  0.56681200  0.31321000  0.48196100  1
  H  1011  1  0.52320300  0.28930400  0.46881300  1
  H  1016  1  0.93508400  0.08981100  0.79283700  1
  H  1017  1  0.97533200  0.04806500  0.75235300  1
  H  1018  1  0.07609700  0.04583200  0.82570700  1
  H  1019  1  0.06842200  0.07724100  0.88252200  1
  H  1024  1  0.07361300  0.54883300  0.32259700  1
  H  1025  1  0.93191100  0.59101100  0.29015800  1
  H  1027  1  0.93917700  0.55813200  0.23385700  1
  H  1028  1  0.98306700  0.53470500  0.22070400  1
  H  1035  1  0.43323000  0.80097600  0.07149320  1
  H  1036  1  0.47380600  0.84269000  0.11179300  1
  H  1037  1  0.57635800  0.83947700  0.04025320  1
  H  1039  1  0.56921500  0.80597700  0.98420600  1
  H  1040  1  0.52503800  0.78336600  0.97074900  1
  H  1044  1  0.15065200  0.64272500  0.31087100  1
  H  1045  1  0.10592100  0.64272600  0.16132700  1
  H  1047  1  0.65935800  0.63508200  0.80010400  1
  H  1048  1  0.61066200  0.65045800  0.65337200  1
  H  1051  1  0.97220000  0.66300800  0.16318500  1
  H  1052  1  0.07836400  0.65022800  0.09637550  1
  H  1056  1  0.28478800  0.66198800  0.30824100  1
  H  1057  1  0.17887700  0.64945000  0.37537700  1
  H  1061  1  0.68118000  0.64732600  0.87294200  1
  H  1063  1  0.82157400  0.65469900  0.79104400  1
  H  1067  1  0.47531100  0.65308400  0.66737900  1
  H  1068  1  0.57470900  0.65907800  0.59281400  1
  H  1071  1  0.01165100  0.78181400  0.31058100  1
  H  1072  1  0.01137400  0.73626500  0.16208300  1
  H  1075  1  0.01578200  0.23938800  0.65668900  1
  H  1076  1  0.00723300  0.28730800  0.80462500  1
  H  1078  1  0.02772900  0.59342400  0.02680150  1
  H  1081  1  0.02937300  0.08813700  0.52908600  1
  H  1085  1  0.02454400  0.41581900  0.94960500  1
  H  1088  1  0.03315900  0.90569000  0.41684700  1
  H  1110  1  0.05286100  0.74080200  0.27034600  1
  H  1111  1  0.10429900  0.87711700  0.30897600  1
  H  1112  1  0.14621600  0.83542700  0.26980500  1
  H  1113  1  0.20574900  0.77602400  0.26849400  1
  H  1114  1  0.24625800  0.73516600  0.30923100  1
  H  1115  1  0.11025000  0.68353200  0.27012000  1
  H  1116  1  0.14635400  0.68313600  0.20233200  1
  H  1117  1  0.05198500  0.77680200  0.20301000  1
  H  1118  1  0.11162800  0.83651300  0.20366700  1
  H  1119  1  0.20333900  0.74036000  0.20079500  1
  H  1120  1  0.24452800  0.78135600  0.16056200  1
  H  1121  1  0.15372800  0.87831500  0.16478900  1
  H  1146  1  0.73851700  0.73977900  0.81809000  1
  H  1147  1  0.69668900  0.78084000  0.77809800  1
  H  1148  1  0.61702900  0.67621500  0.76103000  1
  H  1149  1  0.56050800  0.73747100  0.77843600  1
  H  1150  1  0.51870300  0.77834700  0.81852800  1
  H  1151  1  0.59717100  0.88344500  0.80008200  1
  H  1152  1  0.63966100  0.84239500  0.76111100  1
  H  1153  1  0.60667900  0.82771200  0.69492700  1
  H  1154  1  0.64681300  0.86894600  0.65437600  1
  H  1155  1  0.75097600  0.78824700  0.66994200  1
  H  1156  1  0.71114100  0.74770800  0.71093400  1
  H  1157  1  0.65055700  0.69152500  0.69434200  1
  H  1158  1  0.54515700  0.76998300  0.71168100  1
  H  1159  1  0.50526900  0.72889400  0.67097100  1
  H  1183  1  0.24013000  0.28040500  0.65612000  1
  H  1184  1  0.19871800  0.23899700  0.69603700  1
  H  1185  1  0.15667100  0.38255000  0.67020600  1
  H  1186  1  0.11468300  0.34089500  0.70926500  1
  H  1187  1  0.05657500  0.27977100  0.69771900  1
  H  1188  1  0.10246700  0.13912500  0.66594500  1
  H  1189  1  0.14299100  0.17932000  0.70699000  1
  H  1190  1  0.10742300  0.18838600  0.77477500  1
  H  1191  1  0.14760200  0.14706900  0.81539800  1
  H  1192  1  0.24982300  0.23106900  0.80384900  1
  H  1193  1  0.20971900  0.27221900  0.76329800  1
  H  1194  1  0.15002800  0.32914200  0.77607200  1
  H  1195  1  0.04709100  0.24628400  0.76374900  1
  H  1196  1  0.11024800  0.37008400  0.81727300  1
  H  1222  1  0.50764300  0.23254800  0.16679900  1
  H  1223  1  0.54773400  0.27343900  0.20761500  1
  H  1224  1  0.60921100  0.14760800  0.15617100  1
  H  1225  1  0.64926400  0.18854700  0.19713800  1
  H  1226  1  0.70873500  0.24576700  0.20762000  1
  H  1227  1  0.74874700  0.28692700  0.16699400  1
  H  1228  1  0.64771200  0.37277100  0.15788200  1
  H  1229  1  0.60759300  0.33136600  0.19845000  1
  H  1230  1  0.64370700  0.33874800  0.26614500  1
  H  1231  1  0.60333600  0.37895500  0.30734800  1
  H  1232  1  0.51502900  0.27991300  0.31479400  1
  H  1233  1  0.55572100  0.23946000  0.27373900  1
  H  1234  1  0.61409600  0.17865400  0.26410100  1
  H  1235  1  0.69971000  0.27962000  0.27497300  1
  H  1236  1  0.74126700  0.23837200  0.31489000  1
  H  1237  1  0.65617600  0.13715100  0.30326400  1
  H  1263  1  0.89689800  0.89994900  0.40405000  1
  H  1264  1  0.85675400  0.94112500  0.44473000  1
  H  1265  1  0.00159700  0.97959300  0.42074700  1
  H  1266  1  0.96156400  0.02053800  0.46140100  1
  H  1267  1  0.90016500  0.07761600  0.44449900  1
  H  1268  1  0.85991700  0.11857700  0.40378700  1
  H  1269  1  0.75575100  0.03808700  0.42001100  1
  H  1270  1  0.79575900  0.99765600  0.46097900  1
  H  1271  1  0.81016100  0.03122500  0.52785800  1
  H  1272  1  0.76821000  0.99037500  0.56793600  1
  H  1273  1  0.84759300  0.88566900  0.55072600  1
  H  1274  1  0.88991300  0.92652800  0.51140300  1
  H  1275  1  0.94618100  0.98762200  0.52860800  1
  H  1276  1  0.86762400  0.09282600  0.51053800  1
  H  1277  1  0.91032900  0.13398800  0.54923500  1
  H  1278  1  0.98801200  0.02853900  0.56861300  1
  H  1304  1  0.85818900  0.62169200  0.90702100  1
  H  1305  1  0.89857300  0.58116300  0.94785400  1
  H  1306  1  0.75831800  0.53447000  0.91603400  1
  H  1307  1  0.79858800  0.49426900  0.95721900  1
  H  1308  1  0.85969300  0.43582200  0.94971800  1
  H  1309  1  0.90185500  0.39371600  0.91107700  1
  H  1310  1  0.99870600  0.48457800  0.91606900  1
  H  1311  1  0.95742300  0.52561100  0.95609300  1
  H  1312  1  0.94986100  0.48896800  0.02495550  1
  H  1313  1  0.99153400  0.52999200  0.06496150  1
  H  1314  1  0.90718800  0.63178300  0.05295250  1
  H  1315  1  0.86472000  0.59033400  0.01415550  1
  H  1316  1  0.80690700  0.53053700  0.02455250  1
  H  1317  1  0.89261200  0.42941400  0.01583250  1
  H  1318  1  0.85008400  0.38858300  0.05502950  1
  H  1319  1  0.76500000  0.49006800  0.06484050  1
  H  1345  1  0.40308000  0.12755500  0.05834450  1
  H  1346  1  0.36094000  0.08569600  0.01949650  1
  H  1347  1  0.49531300  0.03186600  0.06049150  1
  H  1348  1  0.45402400  0.99082000  0.02037550  1
  H  1349  1  0.39681700  0.93392800  0.02069250  1
  H  1350  1  0.35640800  0.89333300  0.06164350  1
  H  1351  1  0.26030800  0.98520300  0.05891150  1
  H  1352  1  0.30096000  0.02602200  0.01821550  1
  H  1353  1  0.30361300  0.99010400  0.95084900  1
  H  1354  1  0.26228100  0.03092300  0.91056200  1
  H  1355  1  0.35313200  0.12786100  0.91419400  1
  H  1356  1  0.39521200  0.08637700  0.95336700  1
  H  1357  1  0.45459800  0.02700000  0.95266000  1
  H  1358  1  0.36090500  0.93266600  0.95291000  1
  H  1359  1  0.40144300  0.89216600  0.91207400  1
  H  1360  1  0.49519600  0.98651200  0.91172500  1
  H  1386  1  0.35807900  0.39790400  0.56616000  1
  H  1387  1  0.39860500  0.43830700  0.52531900  1
  H  1388  1  0.25730000  0.48373300  0.55503000  1
  H  1389  1  0.29772100  0.52381400  0.51389600  1
  H  1390  1  0.35908200  0.58191100  0.52346800  1
  H  1391  1  0.40098600  0.62396300  0.56237200  1
  H  1392  1  0.49909100  0.53461800  0.55562400  1
  H  1393  1  0.45799800  0.49359700  0.51545100  1
  H  1394  1  0.44909600  0.52997900  0.44666200  1
  H  1395  1  0.49091400  0.48899000  0.40675000  1
  H  1396  1  0.40813200  0.38621100  0.42043600  1
  H  1397  1  0.36540800  0.42764500  0.45899900  1
  H  1398  1  0.30784800  0.48797400  0.44659200  1
  H  1399  1  0.39215900  0.58997100  0.45752900  1
  H  1400  1  0.34971300  0.63098200  0.41845300  1
  H  1401  1  0.26611500  0.52861400  0.40629400  1
  H  1404  1  0.93156100  0.62155300  0.12263300  1
  H  1406  1  0.07234100  0.61440100  0.04116950  1
  H  1413  1  0.82506800  0.90045800  0.62431900  1
  H  1414  1  0.78439400  0.85929700  0.66494300  1
  H  1415  1  0.68037900  0.86587900  0.59497900  1
  H  1417  1  0.68642800  0.90250700  0.54009300  1
  H  1418  1  0.73059200  0.92543200  0.52682100  1
  H  1425  1  0.32393600  0.11570800  0.84654300  1
  H  1426  1  0.28341300  0.15708100  0.80594700  1
  H  1427  1  0.18055000  0.15391200  0.87718400  1
  H  1429  1  0.18749200  0.12049500  0.93330100  1
  H  1430  1  0.23166400  0.09795600  0.94688900  1
  H  1437  1  0.43138200  0.39491200  0.35092800  1
  H  1438  1  0.47214100  0.35337700  0.31047100  1
  H  1439  1  0.57948300  0.37060800  0.37512800  1
  H  1441  1  0.57366800  0.40716000  0.43004300  1
  H  1442  1  0.52886000  0.42723200  0.44487500  1
  H  1449  1  0.18104300  0.37044100  0.59869500  1
  H  1450  1  0.22176600  0.41178600  0.55818400  1
  H  1451  1  0.32634600  0.40324600  0.62732300  1
  H  1453  1  0.32011100  0.36720800  0.68241300  1
  H  1454  1  0.27574500  0.34501400  0.69603700  1
  H  1461  1  0.68208500  0.15115300  0.37460400  1
  H  1462  1  0.72279400  0.11007200  0.41526700  1
  H  1463  1  0.82581800  0.11402400  0.34414500  1
  H  1465  1  0.81927800  0.14916300  0.28865600  1
  H  1466  1  0.77516100  0.17213300  0.27537900  1
  H  1473  1  0.57622200  0.87339300  0.87194800  1
  H  1474  1  0.53543500  0.91479200  0.91244500  1
  H  1475  1  0.42823200  0.89791900  0.84748600  1
  H  1477  1  0.43387700  0.86033100  0.79304900  1
  H  1478  1  0.47863400  0.83974800  0.77855500  1
  H  1483  1  0.93056500  0.12596900  0.62044000  1
  H  1484  1  0.97145900  0.16747800  0.66083500  1
  H  1485  1  0.07977400  0.14588000  0.59832100  1
  H  1487  1  0.07431800  0.10767900  0.54416300  1
  H  1494  1  0.82438000  0.40121500  0.12484100  1
  H  1495  1  0.78372900  0.35978200  0.16531700  1
  H  1496  1  0.67938600  0.36747000  0.09588150  1
  H  1498  1  0.68580000  0.40280500  0.04050050  1
  H  1499  1  0.73014400  0.42494900  0.02680650  1
  H  1503  1  0.32545600  0.62031700  0.34860100  1
  H  1505  1  0.18494000  0.61323800  0.43039800  1
  H  1506  1  0.22949500  0.59195500  0.44455800  1
  H  1513  1  0.18230100  0.86836500  0.09775650  1
  H  1514  1  0.22285200  0.91006700  0.05733950  1
  H  1515  1  0.32721600  0.90250400  0.12668700  1
  H  1517  1  0.32044200  0.86871300  0.18266600  1
  H  1518  1  0.27600600  0.84709400  0.19668000  1
  H  1522  1  0.72190100  0.60584300  0.91335800  1
  H  1523  1  0.82742300  0.61732800  0.84556300  1
  H  1524  1  0.77713500  0.67668500  0.77732700  1
  H  1528  1  0.43522000  0.61148400  0.62669100  1
  H  1530  1  0.56681200  0.62856000  0.53569200  1
  H  1531  1  0.52320300  0.60465400  0.52254400  1
  H  1536  1  0.93508400  0.40516100  0.84656800  1
  H  1537  1  0.97533200  0.36341500  0.80608400  1
  H  1538  1  0.07609700  0.36118200  0.87943800  1
  H  1539  1  0.06842200  0.39259100  0.93625300  1
  H  1544  1  0.07361300  0.86418300  0.37632800  1
  H  1545  1  0.93191100  0.90636100  0.34388900  1
  H  1547  1  0.93917700  0.87348200  0.28758800  1
  H  1548  1  0.98306700  0.85005500  0.27443500  1
  H  1555  1  0.43323000  0.11632600  0.12522400  1
  H  1556  1  0.47380600  0.15804000  0.16552400  1
  H  1557  1  0.57635800  0.15482700  0.09398450  1
  H  1559  1  0.56921500  0.12132700  0.03793750  1
  H  1560  1  0.52503800  0.09871600  0.02448050  1
  C  1  1  0.02942800  0.02957900  0.02624000  1
  C  2  1  0.09389000  0.04013200  0.06268800  1
  C  3  1  0.16292000  0.03997100  0.19445600  1
  C  6  1  0.66777800  0.03506600  0.68796400  1
  C  9  1  0.98635300  0.02137400  0.03282800  1
  C  10  1  0.04746000  0.01284000  0.99455200  1
  C  13  1  0.27068000  0.02033600  0.22368700  1
  C  14  1  0.22766800  0.02873000  0.23043400  1
  C  15  1  0.20972400  0.01195400  0.26215000  1
  C  18  1  0.71197400  0.01042800  0.75905900  1
  C  19  1  0.77302600  0.01815400  0.71941600  1
  C  20  1  0.72992700  0.02712100  0.72731400  1
  C  24  1  0.48810100  0.01545200  0.53537000  1
  C  25  1  0.52920700  0.02914500  0.52659000  1
  C  26  1  0.54545100  0.01764200  0.49258100  1
  C  29  1  0.03937100  0.09343800  0.06360300  1
  C  30  1  0.03962800  0.16321000  0.19405100  1
  C  33  1  0.03698600  0.66652600  0.69064500  1
  C  34  1  0.04205000  0.59521600  0.56035500  1
  C  37  1  0.02370700  0.98886300  0.96952700  1
  C  39  1  0.02971600  0.52957900  0.52599700  1
  C  40  1  0.02447500  0.48639800  0.47063500  1
  C  42  1  0.02988500  0.72786100  0.73139300  1
  C  43  1  0.02270900  0.76433100  0.79007500  1
  C  46  1  0.01999100  0.26693300  0.28523800  1
  C  47  1  0.02714500  0.22924400  0.22784300  1
  C  49  1  0.20431600  0.20413600  0.05255000  1
  C  50  1  0.21694800  0.16310300  0.06269000  1
  C  51  1  0.19251200  0.13898200  0.08666500  1
  C  52  1  0.15467100  0.15473900  0.10215900  1
  C  53  1  0.14015000  0.19396400  0.08838800  1
  C  54  1  0.16473200  0.21859300  0.06488700  1
  C  55  1  0.12854300  0.12847700  0.12861500  1
  C  56  1  0.10221700  0.10228000  0.10230500  1
  C  57  1  0.06349300  0.11734300  0.08797400  1
  C  58  1  0.05391000  0.05406200  0.05083100  1
  C  59  1  0.11754300  0.06393000  0.08743900  1
  C  60  1  0.15489400  0.10211200  0.15478400  1
  C  61  1  0.10239900  0.15453400  0.15520500  1
  C  62  1  0.06406600  0.13911300  0.17005900  1
  C  63  1  0.05290400  0.20373800  0.20499800  1
  C  64  1  0.09293000  0.21775200  0.19337700  1
  C  65  1  0.11740000  0.19320500  0.16973000  1
  C  66  1  0.19396900  0.11673100  0.16875000  1
  C  67  1  0.21805200  0.09261400  0.19299900  1
  C  68  1  0.20318900  0.05345100  0.20599000  1
  C  69  1  0.13926900  0.06400000  0.16986300  1
  C  82  1  0.55340700  0.05396700  0.55122100  1
  C  83  1  0.53559900  0.08915500  0.56893300  1
  C  84  1  0.55934800  0.11333700  0.59337800  1
  C  85  1  0.60156400  0.10279600  0.60256400  1
  C  86  1  0.61972200  0.06895700  0.58280700  1
  C  87  1  0.59624100  0.04475600  0.55822200  1
  C  88  1  0.62841300  0.12858000  0.62889700  1
  C  89  1  0.65529300  0.15435900  0.60258800  1
  C  90  1  0.69720300  0.14325300  0.59291100  1
  C  91  1  0.72093600  0.16718300  0.56828100  1
  C  92  1  0.70362400  0.20300100  0.55107800  1
  C  93  1  0.66102000  0.21278000  0.55868100  1
  C  94  1  0.63738400  0.18855500  0.58314800  1
  C  95  1  0.60271200  0.15552800  0.65519400  1
  C  96  1  0.65416700  0.10155800  0.65508300  1
  C  97  1  0.68850900  0.11928200  0.67449900  1
  C  98  1  0.71329500  0.09515700  0.69821100  1
  C  99  1  0.70396400  0.05225400  0.70448700  1
  C  100  1  0.64323100  0.05940500  0.66424500  1
  C  101  1  0.56858100  0.13766500  0.67478700  1
  C  102  1  0.54376700  0.16171200  0.69853300  1
  C  103  1  0.55278600  0.20472000  0.70465300  1
  C  104  1  0.58888400  0.22200500  0.68804500  1
  C  105  1  0.61352200  0.19771500  0.66434900  1
  C  120  1  0.05413000  0.70299600  0.70687000  1
  C  121  1  0.06068600  0.64238600  0.66614400  1
  C  122  1  0.10193200  0.65437900  0.65522000  1
  C  123  1  0.11967400  0.68938600  0.67372500  1
  C  124  1  0.09631600  0.71348500  0.69848200  1
  C  125  1  0.12831900  0.62867800  0.62852400  1
  C  126  1  0.15508700  0.60244700  0.65454300  1
  C  127  1  0.19633100  0.61448100  0.66543200  1
  C  128  1  0.22018700  0.59023000  0.68974000  1
  C  129  1  0.20337400  0.55337500  0.70561000  1
  C  130  1  0.16132500  0.54257800  0.69694300  1
  C  131  1  0.13771800  0.56688500  0.67250300  1
  C  132  1  0.10243800  0.60211600  0.60212300  1
  C  133  1  0.15400600  0.65568700  0.60230300  1
  C  134  1  0.18950400  0.63870300  0.58395100  1
  C  135  1  0.21406400  0.66304800  0.56024500  1
  C  136  1  0.20343000  0.70541500  0.55291300  1
  C  137  1  0.16606100  0.72163600  0.56821600  1
  C  138  1  0.14167300  0.69703600  0.59188200  1
  C  139  1  0.06630600  0.61904100  0.58468200  1
  C  140  1  0.05428300  0.55395600  0.55053300  1
  C  141  1  0.09207100  0.53792600  0.56528800  1
  C  142  1  0.11564500  0.56162200  0.59017600  1
  C  157  1  0.70373100  0.55241700  0.20439300  1
  C  158  1  0.71483100  0.59447500  0.19633600  1
  C  159  1  0.69017700  0.61872200  0.17262800  1
  C  160  1  0.65414200  0.60188500  0.15494900  1
  C  161  1  0.64142100  0.56091500  0.16608600  1
  C  162  1  0.66588600  0.53641900  0.18977600  1
  C  163  1  0.62823600  0.62873100  0.12876600  1
  C  164  1  0.60240000  0.65520800  0.15525200  1
  C  165  1  0.56583500  0.63856100  0.17222600  1
  C  166  1  0.54165100  0.66241400  0.19658200  1
  C  167  1  0.55438800  0.70334300  0.20690900  1
  C  168  1  0.59259200  0.71901300  0.19267200  1
  C  169  1  0.61609200  0.69531400  0.16773800  1
  C  170  1  0.65479500  0.65499400  0.10263200  1
  C  171  1  0.60180400  0.60294800  0.10216900  1
  C  172  1  0.56095600  0.61555600  0.09068100  1
  C  173  1  0.53712500  0.59147900  0.06622400  1
  C  174  1  0.55373800  0.55438100  0.05062800  1
  C  175  1  0.59561900  0.54326500  0.05956000  1
  C  176  1  0.61913800  0.56736100  0.08421300  1
  C  177  1  0.69560100  0.64244300  0.09100200  1
  C  178  1  0.71940000  0.66666667  0.06668000  1
  C  179  1  0.70292700  0.70414700  0.05152000  1
  C  180  1  0.66120900  0.71544900  0.06087800  1
  C  181  1  0.63764900  0.69109500  0.08531800  1
  C  198  1  0.95439300  0.45511600  0.45425200  1
  C  199  1  0.91842700  0.47244700  0.43745300  1
  C  200  1  0.89366300  0.44809000  0.41390000  1
  C  201  1  0.90422100  0.40575400  0.40505300  1
  C  202  1  0.93826600  0.38789200  0.42475600  1
  C  203  1  0.96310900  0.41197600  0.44844900  1
  C  204  1  0.87850400  0.37871900  0.37883500  1
  C  205  1  0.85273300  0.35185400  0.40513400  1
  C  206  1  0.86368200  0.30977100  0.41451800  1
  C  207  1  0.83915100  0.28560400  0.43838300  1
  C  208  1  0.80292400  0.30289800  0.45474400  1
  C  209  1  0.79349200  0.34571100  0.44818600  1
  C  210  1  0.81834100  0.36969400  0.42441800  1
  C  211  1  0.85160400  0.40431900  0.35240400  1
  C  212  1  0.90546000  0.35287000  0.35263000  1
  C  213  1  0.88752600  0.31873300  0.33311500  1
  C  214  1  0.91115800  0.29450300  0.30864800  1
  C  215  1  0.95388800  0.30402700  0.30141400  1
  C  216  1  0.97139000  0.33957500  0.31884700  1
  C  217  1  0.94755300  0.36369300  0.34327300  1
  C  218  1  0.86945300  0.43842400  0.33280300  1
  C  219  1  0.84574500  0.46252000  0.30829400  1
  C  220  1  0.80311300  0.45270900  0.30086300  1
  C  221  1  0.78582300  0.41701500  0.31824800  1
  C  222  1  0.80966300  0.39316200  0.34285400  1
  C  239  1  0.80238200  0.80394600  0.95522300  1
  C  240  1  0.84040600  0.78774000  0.94111100  1
  C  241  1  0.86514900  0.81182300  0.91734600  1
  C  242  1  0.85245600  0.85249400  0.90541700  1
  C  243  1  0.81631400  0.86970600  0.92265700  1
  C  244  1  0.79147700  0.84592200  0.94659200  1
  C  245  1  0.87847900  0.87874700  0.87887400  1
  C  246  1  0.90447900  0.90549800  0.90503000  1
  C  247  1  0.89200100  0.94655600  0.91609900  1
  C  248  1  0.91672100  0.97102400  0.93960400  1
  C  249  1  0.95450300  0.95489100  0.95425900  1
  C  250  1  0.96524400  0.91267800  0.94633100  1
  C  251  1  0.94052400  0.88853800  0.92258700  1
  C  252  1  0.90534300  0.85274300  0.85277100  1
  C  253  1  0.85189100  0.90431200  0.85226600  1
  C  254  1  0.86871200  0.94037200  0.83465900  1
  C  255  1  0.84497900  0.96422500  0.81001200  1
  C  256  1  0.80348200  0.95230500  0.80051000  1
  C  257  1  0.78745900  0.91474700  0.81579900  1
  C  258  1  0.81141000  0.89101700  0.84042700  1
  C  259  1  0.88939600  0.81554100  0.83633500  1
  C  260  1  0.91410400  0.79074500  0.81306400  1
  C  261  1  0.95538000  0.80324200  0.80347300  1
  C  262  1  0.96980700  0.84263900  0.81626100  1
  C  263  1  0.94530700  0.86674800  0.84020400  1
  C  280  1  0.45310400  0.30388600  0.80099900  1
  C  281  1  0.41331900  0.28974500  0.81318000  1
  C  282  1  0.38960500  0.31358900  0.83785800  1
  C  283  1  0.40471000  0.35218900  0.85240100  1
  C  284  1  0.44324300  0.36741100  0.83781800  1
  C  285  1  0.46739200  0.34349100  0.81348000  1
  C  286  1  0.37836600  0.37848200  0.87862400  1
  C  287  1  0.35221400  0.40460000  0.85207300  1
  C  288  1  0.36669800  0.44376300  0.83814000  1
  C  289  1  0.34214200  0.46819600  0.81446900  1
  C  290  1  0.30256500  0.45363000  0.80223400  1
  C  291  1  0.28988300  0.41270700  0.81261000  1
  C  292  1  0.31441100  0.38870000  0.83660400  1
  C  293  1  0.35200900  0.35225200  0.90489300  1
  C  294  1  0.40459300  0.40463100  0.90508700  1
  C  295  1  0.38972200  0.44342600  0.91946300  1
  C  296  1  0.41434700  0.46808600  0.94290800  1
  C  297  1  0.45434600  0.45403700  0.95459500  1
  C  298  1  0.46740200  0.41334100  0.94388600  1
  C  299  1  0.44289600  0.38919800  0.91998400  1
  C  300  1  0.36771600  0.31433200  0.92026600  1
  C  301  1  0.34405300  0.29040600  0.94492600  1
  C  302  1  0.30364300  0.30379000  0.95615000  1
  C  303  1  0.28864900  0.34276000  0.94288700  1
  C  304  1  0.31280200  0.36682100  0.91864300  1
  C  321  1  0.30271700  0.95378400  0.30216000  1
  C  322  1  0.34031300  0.97019200  0.31692800  1
  C  323  1  0.36498200  0.94599200  0.34065900  1
  C  324  1  0.35263300  0.90494600  0.35189400  1
  C  325  1  0.31698900  0.88760200  0.33401200  1
  C  326  1  0.29224800  0.91150200  0.31009100  1
  C  327  1  0.37841600  0.87850400  0.37847800  1
  C  328  1  0.40443300  0.85164900  0.35239900  1
  C  329  1  0.39245900  0.81024600  0.34187900  1
  C  330  1  0.41731800  0.78577800  0.31848400  1
  C  331  1  0.45474300  0.80219900  0.30338800  1
  C  332  1  0.46493600  0.84468600  0.31079000  1
  C  333  1  0.44008900  0.86883500  0.33443100  1
  C  334  1  0.40527800  0.90437500  0.40468800  1
  C  335  1  0.35158000  0.85302000  0.40497000  1
  C  336  1  0.36853000  0.81739800  0.42313600  1
  C  337  1  0.34470200  0.79362700  0.44777500  1
  C  338  1  0.30292700  0.80519800  0.45669100  1
  C  339  1  0.28667900  0.84229800  0.44078200  1
  C  340  1  0.31071900  0.86594000  0.41615400  1
  C  341  1  0.38895500  0.94108800  0.42166400  1
  C  342  1  0.41353000  0.96586800  0.44504500  1
  C  343  1  0.45505900  0.95379000  0.45421400  1
  C  344  1  0.46995600  0.91484800  0.44083300  1
  C  345  1  0.44557600  0.89076800  0.41678500  1
  C  362  1  0.96242800  0.99685400  0.00887600  1
  C  363  1  0.98045300  0.98010600  0.97714900  1
  C  367  1  0.79458000  0.26264000  0.51007300  1
  C  368  1  0.77058800  0.23815400  0.53400300  1
  C  369  1  0.72808500  0.22789800  0.52653700  1
  C  370  1  0.71072500  0.24317200  0.49398600  1
  C  371  1  0.73431700  0.26775500  0.46927800  1
  C  372  1  0.77699300  0.27793800  0.47769500  1
  C  379  1  0.29381100  0.49300800  0.74629200  1
  C  380  1  0.26991600  0.51750100  0.72229000  1
  C  381  1  0.22774800  0.52853800  0.73012400  1
  C  382  1  0.21065300  0.51444500  0.76311300  1
  C  383  1  0.23441600  0.49046000  0.78813800  1
  C  384  1  0.27671100  0.47896200  0.77931300  1
  C  391  1  0.46251000  0.75910300  0.24937700  1
  C  392  1  0.48649000  0.73458100  0.22546300  1
  C  393  1  0.52989800  0.72772300  0.23147400  1
  C  394  1  0.54826000  0.74562800  0.26253200  1
  C  395  1  0.52442900  0.76946900  0.28759700  1
  C  396  1  0.48080700  0.77702700  0.28053400  1
  C  403  1  0.21161200  0.74658000  0.49795200  1
  C  404  1  0.23561500  0.77112100  0.47406000  1
  C  405  1  0.27830900  0.78067000  0.48130000  1
  C  406  1  0.29581500  0.76497500  0.51362200  1
  C  407  1  0.27211000  0.74062400  0.53841100  1
  C  408  1  0.22927600  0.73080400  0.53015600  1
  C  415  1  0.71232100  0.51271100  0.26005400  1
  C  416  1  0.73633800  0.48832200  0.28404200  1
  C  417  1  0.77859800  0.47743600  0.27626700  1
  C  418  1  0.79566100  0.49183800  0.24333300  1
  C  419  1  0.77197200  0.51615500  0.21850000  1
  C  420  1  0.72956700  0.52714800  0.22724500  1
  C  427  1  0.54507200  0.24775700  0.75862900  1
  C  428  1  0.52105200  0.27227900  0.78251500  1
  C  429  1  0.47766000  0.27936200  0.77644900  1
  C  430  1  0.45938900  0.26140100  0.74533800  1
  C  431  1  0.48314400  0.23723300  0.72045000  1
  C  432  1  0.52674100  0.22975200  0.72754800  1
  C  439  1  0.96195800  0.49941000  0.50754500  1
  C  440  1  0.98601600  0.52393700  0.53139900  1
  C  441  1  0.04831000  0.51038700  0.49559300  1
  C  442  1  0.98053200  0.48016700  0.47709600  1
  C  448  1  0.79386400  0.76354000  0.01058700  1
  C  449  1  0.76990400  0.73897100  0.03448000  1
  C  450  1  0.72732200  0.72912300  0.02710900  1
  C  451  1  0.70983300  0.74461300  0.99471900  1
  C  452  1  0.73357500  0.76883500  0.96984900  1
  C  453  1  0.77633400  0.77895700  0.97819100  1
  C  460  1  0.29462700  0.99567200  0.24751900  1
  C  461  1  0.23348600  0.98777600  0.28703200  1
  C  462  1  0.27667500  0.97888900  0.27926300  1
  C  467  1  0.21271800  0.24487200  0.99721200  1
  C  468  1  0.23659800  0.26950500  0.97330100  1
  C  469  1  0.27917700  0.27920900  0.98065700  1
  C  470  1  0.29671900  0.26396000  0.01306900  1
  C  471  1  0.27288500  0.24009500  0.03812400  1
  C  472  1  0.23018300  0.22963400  0.02973000  1
  C  479  1  0.73597200  0.98579200  0.78287500  1
  C  480  1  0.77890700  0.97698700  0.77597300  1
  C  481  1  0.79668300  0.99360600  0.74409500  1
  C  485  1  0.46445900  0.99083800  0.51128200  1
  C  486  1  0.52179600  0.99372900  0.46743200  1
  C  487  1  0.48063700  0.97941600  0.47718700  1
  C  492  1  0.96463500  0.76515100  0.74687200  1
  C  493  1  0.98836800  0.74048200  0.72289200  1
  C  494  1  0.04647500  0.74042500  0.76499100  1
  C  495  1  0.98111200  0.77762300  0.78060000  1
  C  500  1  0.04384700  0.24232700  0.26129200  1
  C  501  1  0.97828300  0.27916200  0.27688800  1
  C  502  1  0.96163300  0.26605800  0.24343200  1
  C  503  1  0.98533500  0.24187300  0.21850600  1
  C  509  1  0.46327000  0.49373000  0.01038600  1
  C  510  1  0.48719900  0.51841200  0.03422400  1
  C  511  1  0.52929500  0.52951000  0.02621000  1
  C  512  1  0.54628300  0.51534100  0.99321400  1
  C  513  1  0.52245200  0.49122900  0.96832300  1
  C  514  1  0.48023600  0.47959600  0.97733100  1
  C  521  1  0.02942800  0.34492900  0.07997120  1
  C  522  1  0.09389000  0.35548200  0.11641900  1
  C  523  1  0.16292000  0.35532100  0.24818700  1
  C  526  1  0.66777800  0.35041600  0.74169500  1
  C  529  1  0.98635300  0.33672400  0.08655920  1
  C  530  1  0.04746000  0.32819000  0.04828320  1
  C  533  1  0.27068000  0.33568600  0.27741800  1
  C  534  1  0.22766800  0.34408000  0.28416500  1
  C  535  1  0.20972400  0.32730400  0.31588100  1
  C  538  1  0.71197400  0.32577800  0.81279000  1
  C  539  1  0.77302600  0.33350400  0.77314700  1
  C  540  1  0.72992700  0.34247100  0.78104500  1
  C  544  1  0.48810100  0.33080200  0.58910100  1
  C  545  1  0.52920700  0.34449500  0.58032100  1
  C  546  1  0.54545100  0.33299200  0.54631200  1
  C  549  1  0.03937100  0.40878800  0.11733400  1
  C  550  1  0.03962800  0.47856000  0.24778200  1
  C  553  1  0.03698600  0.98187600  0.74437600  1
  C  554  1  0.04205000  0.91056600  0.61408600  1
  C  557  1  0.02370700  0.30421300  0.02325820  1
  C  559  1  0.02971600  0.84492900  0.57972800  1
  C  560  1  0.02447500  0.80174800  0.52436600  1
  C  562  1  0.02988500  0.04321100  0.78512400  1
  C  563  1  0.02270900  0.07968100  0.84380600  1
  C  566  1  0.01999100  0.58228300  0.33896900  1
  C  567  1  0.02714500  0.54459400  0.28157400  1
  C  569  1  0.20431600  0.51948600  0.10628100  1
  C  570  1  0.21694800  0.47845300  0.11642100  1
  C  571  1  0.19251200  0.45433200  0.14039600  1
  C  572  1  0.15467100  0.47008900  0.15589000  1
  C  573  1  0.14015000  0.50931400  0.14211900  1
  C  574  1  0.16473200  0.53394300  0.11861800  1
  C  575  1  0.12854300  0.44382700  0.18234600  1
  C  576  1  0.10221700  0.41763000  0.15603600  1
  C  577  1  0.06349300  0.43269300  0.14170500  1
  C  578  1  0.05391000  0.36941200  0.10456200  1
  C  579  1  0.11754300  0.37928000  0.14117000  1
  C  580  1  0.15489400  0.41746200  0.20851500  1
  C  581  1  0.10239900  0.46988400  0.20893600  1
  C  582  1  0.06406600  0.45446300  0.22379000  1
  C  583  1  0.05290400  0.51908800  0.25872900  1
  C  584  1  0.09293000  0.53310200  0.24710800  1
  C  585  1  0.11740000  0.50855500  0.22346100  1
  C  586  1  0.19396900  0.43208100  0.22248100  1
  C  587  1  0.21805200  0.40796400  0.24673000  1
  C  588  1  0.20318900  0.36880100  0.25972100  1
  C  589  1  0.13926900  0.37935000  0.22359400  1
  C  602  1  0.55340700  0.36931700  0.60495200  1
  C  603  1  0.53559900  0.40450500  0.62266400  1
  C  604  1  0.55934800  0.42868700  0.64710900  1
  C  605  1  0.60156400  0.41814600  0.65629500  1
  C  606  1  0.61972200  0.38430700  0.63653800  1
  C  607  1  0.59624100  0.36010600  0.61195300  1
  C  608  1  0.62841300  0.44393000  0.68262800  1
  C  609  1  0.65529300  0.46970900  0.65631900  1
  C  610  1  0.69720300  0.45860300  0.64664200  1
  C  611  1  0.72093600  0.48253300  0.62201200  1
  C  612  1  0.70362400  0.51835100  0.60480900  1
  C  613  1  0.66102000  0.52813000  0.61241200  1
  C  614  1  0.63738400  0.50390500  0.63687900  1
  C  615  1  0.60271200  0.47087800  0.70892500  1
  C  616  1  0.65416700  0.41690800  0.70881400  1
  C  617  1  0.68850900  0.43463200  0.72823000  1
  C  618  1  0.71329500  0.41050700  0.75194200  1
  C  619  1  0.70396400  0.36760400  0.75821800  1
  C  620  1  0.64323100  0.37475500  0.71797600  1
  C  621  1  0.56858100  0.45301500  0.72851800  1
  C  622  1  0.54376700  0.47706200  0.75226400  1
  C  623  1  0.55278600  0.52007000  0.75838400  1
  C  624  1  0.58888400  0.53735500  0.74177600  1
  C  625  1  0.61352200  0.51306500  0.71808000  1
  C  640  1  0.05413000  0.01834600  0.76060100  1
  C  641  1  0.06068600  0.95773600  0.71987500  1
  C  642  1  0.10193200  0.96972900  0.70895100  1
  C  643  1  0.11967400  0.00473598  0.72745600  1
  C  644  1  0.09631600  0.02883500  0.75221300  1
  C  645  1  0.12831900  0.94402800  0.68225500  1
  C  646  1  0.15508700  0.91779700  0.70827400  1
  C  647  1  0.19633100  0.92983100  0.71916300  1
  C  648  1  0.22018700  0.90558000  0.74347100  1
  C  649  1  0.20337400  0.86872500  0.75934100  1
  C  650  1  0.16132500  0.85792800  0.75067400  1
  C  651  1  0.13771800  0.88223500  0.72623400  1
  C  652  1  0.10243800  0.91746600  0.65585400  1
  C  653  1  0.15400600  0.97103700  0.65603400  1
  C  654  1  0.18950400  0.95405300  0.63768200  1
  C  655  1  0.21406400  0.97839800  0.61397600  1
  C  656  1  0.20343000  0.02076500  0.60664400  1
  C  657  1  0.16606100  0.03698600  0.62194700  1
  C  658  1  0.14167300  0.01238600  0.64561300  1
  C  659  1  0.06630600  0.93439100  0.63841300  1
  C  660  1  0.05428300  0.86930600  0.60426400  1
  C  661  1  0.09207100  0.85327600  0.61901900  1
  C  662  1  0.11564500  0.87697200  0.64390700  1
  C  677  1  0.70373100  0.86776700  0.25812400  1
  C  678  1  0.71483100  0.90982500  0.25006700  1
  C  679  1  0.69017700  0.93407200  0.22635900  1
  C  680  1  0.65414200  0.91723500  0.20868000  1
  C  681  1  0.64142100  0.87626500  0.21981700  1
  C  682  1  0.66588600  0.85176900  0.24350700  1
  C  683  1  0.62823600  0.94408100  0.18249700  1
  C  684  1  0.60240000  0.97055800  0.20898300  1
  C  685  1  0.56583500  0.95391100  0.22595700  1
  C  686  1  0.54165100  0.97776400  0.25031300  1
  C  687  1  0.55438800  0.01869300  0.26064000  1
  C  688  1  0.59259200  0.03436300  0.24640300  1
  C  689  1  0.61609200  0.01066400  0.22146900  1
  C  690  1  0.65479500  0.97034400  0.15636300  1
  C  691  1  0.60180400  0.91829800  0.15590000  1
  C  692  1  0.56095600  0.93090600  0.14441200  1
  C  693  1  0.53712500  0.90682900  0.11995500  1
  C  694  1  0.55373800  0.86973100  0.10435900  1
  C  695  1  0.59561900  0.85861500  0.11329100  1
  C  696  1  0.61913800  0.88271100  0.13794400  1
  C  697  1  0.69560100  0.95779300  0.14473300  1
  C  698  1  0.71940000  0.98207500  0.12041100  1
  C  699  1  0.70292700  0.01949700  0.10525100  1
  C  700  1  0.66120900  0.03079900  0.11460900  1
  C  701  1  0.63764900  0.00644498  0.13904900  1
  C  718  1  0.95439300  0.77046600  0.50798300  1
  C  719  1  0.91842700  0.78779700  0.49118400  1
  C  720  1  0.89366300  0.76344000  0.46763100  1
  C  721  1  0.90422100  0.72110400  0.45878400  1
  C  722  1  0.93826600  0.70324200  0.47848700  1
  C  723  1  0.96310900  0.72732600  0.50218000  1
  C  724  1  0.87850400  0.69406900  0.43256600  1
  C  725  1  0.85273300  0.66720400  0.45886500  1
  C  726  1  0.86368200  0.62512100  0.46824900  1
  C  727  1  0.83915100  0.60095400  0.49211400  1
  C  728  1  0.80292400  0.61824800  0.50847500  1
  C  729  1  0.79349200  0.66106100  0.50191700  1
  C  730  1  0.81834100  0.68504400  0.47814900  1
  C  731  1  0.85160400  0.71966900  0.40613500  1
  C  732  1  0.90546000  0.66822000  0.40636100  1
  C  733  1  0.88752600  0.63408300  0.38684600  1
  C  734  1  0.91115800  0.60985300  0.36237900  1
  C  735  1  0.95388800  0.61937700  0.35514500  1
  C  736  1  0.97139000  0.65492500  0.37257800  1
  C  737  1  0.94755300  0.67904300  0.39700400  1
  C  738  1  0.86945300  0.75377400  0.38653400  1
  C  739  1  0.84574500  0.77787000  0.36202500  1
  C  740  1  0.80311300  0.76805900  0.35459400  1
  C  741  1  0.78582300  0.73236500  0.37197900  1
  C  742  1  0.80966300  0.70851200  0.39658500  1
  C  759  1  0.80238200  0.11929600  0.00895423  1
  C  760  1  0.84040600  0.10309000  0.99484200  1
  C  761  1  0.86514900  0.12717300  0.97107700  1
  C  762  1  0.85245600  0.16784400  0.95914800  1
  C  763  1  0.81631400  0.18505600  0.97638800  1
  C  764  1  0.79147700  0.16127200  0.00032323  1
  C  765  1  0.87847900  0.19409700  0.93260500  1
  C  766  1  0.90447900  0.22084800  0.95876100  1
  C  767  1  0.89200100  0.26190600  0.96983000  1
  C  768  1  0.91672100  0.28637400  0.99333500  1
  C  769  1  0.95450300  0.27024100  0.00799023  1
  C  770  1  0.96524400  0.22802800  0.00006223  1
  C  771  1  0.94052400  0.20388800  0.97631800  1
  C  772  1  0.90534300  0.16809300  0.90650200  1
  C  773  1  0.85189100  0.21966200  0.90599700  1
  C  774  1  0.86871200  0.25572200  0.88839000  1
  C  775  1  0.84497900  0.27957500  0.86374300  1
  C  776  1  0.80348200  0.26765500  0.85424100  1
  C  777  1  0.78745900  0.23009700  0.86953000  1
  C  778  1  0.81141000  0.20636700  0.89415800  1
  C  779  1  0.88939600  0.13089100  0.89006600  1
  C  780  1  0.91410400  0.10609500  0.86679500  1
  C  781  1  0.95538000  0.11859200  0.85720400  1
  C  782  1  0.96980700  0.15798900  0.86999200  1
  C  783  1  0.94530700  0.18209800  0.89393500  1
  C  800  1  0.45310400  0.61923600  0.85473000  1
  C  801  1  0.41331900  0.60509500  0.86691100  1
  C  802  1  0.38960500  0.62893900  0.89158900  1
  C  803  1  0.40471000  0.66753900  0.90613200  1
  C  804  1  0.44324300  0.68276100  0.89154900  1
  C  805  1  0.46739200  0.65884100  0.86721100  1
  C  806  1  0.37836600  0.69383200  0.93235500  1
  C  807  1  0.35221400  0.71995000  0.90580400  1
  C  808  1  0.36669800  0.75911300  0.89187100  1
  C  809  1  0.34214200  0.78354600  0.86820000  1
  C  810  1  0.30256500  0.76898000  0.85596500  1
  C  811  1  0.28988300  0.72805700  0.86634100  1
  C  812  1  0.31441100  0.70405000  0.89033500  1
  C  813  1  0.35200900  0.66760200  0.95862400  1
  C  814  1  0.40459300  0.71998100  0.95881800  1
  C  815  1  0.38972200  0.75877600  0.97319400  1
  C  816  1  0.41434700  0.78343600  0.99663900  1
  C  817  1  0.45434600  0.76938700  0.00832623  1
  C  818  1  0.46740200  0.72869100  0.99761700  1
  C  819  1  0.44289600  0.70454800  0.97371500  1
  C  820  1  0.36771600  0.62968200  0.97399700  1
  C  821  1  0.34405300  0.60575600  0.99865700  1
  C  822  1  0.30364300  0.61914000  0.00988123  1
  C  823  1  0.28864900  0.65811000  0.99661800  1
  C  824  1  0.31280200  0.68217100  0.97237400  1
  C  841  1  0.30271700  0.26913400  0.35589100  1
  C  842  1  0.34031300  0.28554200  0.37065900  1
  C  843  1  0.36498200  0.26134200  0.39439000  1
  C  844  1  0.35263300  0.22029600  0.40562500  1
  C  845  1  0.31698900  0.20295200  0.38774300  1
  C  846  1  0.29224800  0.22685200  0.36382200  1
  C  847  1  0.37841600  0.19385400  0.43220900  1
  C  848  1  0.40443300  0.16699900  0.40613000  1
  C  849  1  0.39245900  0.12559600  0.39561000  1
  C  850  1  0.41731800  0.10112800  0.37221500  1
  C  851  1  0.45474300  0.11754900  0.35711900  1
  C  852  1  0.46493600  0.16003600  0.36452100  1
  C  853  1  0.44008900  0.18418500  0.38816200  1
  C  854  1  0.40527800  0.21972500  0.45841900  1
  C  855  1  0.35158000  0.16837000  0.45870100  1
  C  856  1  0.36853000  0.13274800  0.47686700  1
  C  857  1  0.34470200  0.10897700  0.50150600  1
  C  858  1  0.30292700  0.12054800  0.51042200  1
  C  859  1  0.28667900  0.15764800  0.49451300  1
  C  860  1  0.31071900  0.18129000  0.46988500  1
  C  861  1  0.38895500  0.25643800  0.47539500  1
  C  862  1  0.41353000  0.28121800  0.49877600  1
  C  863  1  0.45505900  0.26914000  0.50794500  1
  C  864  1  0.46995600  0.23019800  0.49456400  1
  C  865  1  0.44557600  0.20611800  0.47051600  1
  C  882  1  0.96242800  0.31220400  0.06260720  1
  C  883  1  0.98045300  0.29545600  0.03088020  1
  C  887  1  0.79458000  0.57799000  0.56380400  1
  C  888  1  0.77058800  0.55350400  0.58773400  1
  C  889  1  0.72808500  0.54324800  0.58026800  1
  C  890  1  0.71072500  0.55852200  0.54771700  1
  C  891  1  0.73431700  0.58310500  0.52300900  1
  C  892  1  0.77699300  0.59328800  0.53142600  1
  C  899  1  0.29381100  0.80835800  0.80002300  1
  C  900  1  0.26991600  0.83285100  0.77602100  1
  C  901  1  0.22774800  0.84388800  0.78385500  1
  C  902  1  0.21065300  0.82979500  0.81684400  1
  C  903  1  0.23441600  0.80581000  0.84186900  1
  C  904  1  0.27671100  0.79431200  0.83304400  1
  C  911  1  0.46251000  0.07445300  0.30310800  1
  C  912  1  0.48649000  0.04993100  0.27919400  1
  C  913  1  0.52989800  0.04307300  0.28520500  1
  C  914  1  0.54826000  0.06097800  0.31626300  1
  C  915  1  0.52442900  0.08481900  0.34132800  1
  C  916  1  0.48080700  0.09237700  0.33426500  1
  C  923  1  0.21161200  0.06193000  0.55168300  1
  C  924  1  0.23561500  0.08647100  0.52779100  1
  C  925  1  0.27830900  0.09602000  0.53503100  1
  C  926  1  0.29581500  0.08032500  0.56735300  1
  C  927  1  0.27211000  0.05597400  0.59214200  1
  C  928  1  0.22927600  0.04615400  0.58388700  1
  C  935  1  0.71232100  0.82806100  0.31378500  1
  C  936  1  0.73633800  0.80367200  0.33777300  1
  C  937  1  0.77859800  0.79278600  0.32999800  1
  C  938  1  0.79566100  0.80718800  0.29706400  1
  C  939  1  0.77197200  0.83150500  0.27223100  1
  C  940  1  0.72956700  0.84249800  0.28097600  1
  C  947  1  0.54507200  0.56310700  0.81236000  1
  C  948  1  0.52105200  0.58762900  0.83624600  1
  C  949  1  0.47766000  0.59471200  0.83018000  1
  C  950  1  0.45938900  0.57675100  0.79906900  1
  C  951  1  0.48314400  0.55258300  0.77418100  1
  C  952  1  0.52674100  0.54510200  0.78127900  1
  C  959  1  0.96195800  0.81476000  0.56127600  1
  C  960  1  0.98601600  0.83928700  0.58513000  1
  C  961  1  0.04831000  0.82573700  0.54932400  1
  C  962  1  0.98053200  0.79551700  0.53082700  1
  C  968  1  0.79386400  0.07889000  0.06431820  1
  C  969  1  0.76990400  0.05432100  0.08821120  1
  C  970  1  0.72732200  0.04447300  0.08084020  1
  C  971  1  0.70983300  0.05996300  0.04845020  1
  C  972  1  0.73357500  0.08418500  0.02358020  1
  C  973  1  0.77633400  0.09430700  0.03192220  1
  C  980  1  0.29462700  0.31102200  0.30125000  1
  C  981  1  0.23348600  0.30312600  0.34076300  1
  C  982  1  0.27667500  0.29423900  0.33299400  1
  C  987  1  0.21271800  0.56022200  0.05094320  1
  C  988  1  0.23659800  0.58485500  0.02703220  1
  C  989  1  0.27917700  0.59455900  0.03438820  1
  C  990  1  0.29671900  0.57931000  0.06680020  1
  C  991  1  0.27288500  0.55544500  0.09185520  1
  C  992  1  0.23018300  0.54498400  0.08346120  1
  C  999  1  0.73597200  0.30114200  0.83660600  1
  C  1000  1  0.77890700  0.29233700  0.82970400  1
  C  1001  1  0.79668300  0.30895600  0.79782600  1
  C  1005  1  0.46445900  0.30618800  0.56501300  1
  C  1006  1  0.52179600  0.30907900  0.52116300  1
  C  1007  1  0.48063700  0.29476600  0.53091800  1
  C  1012  1  0.96463500  0.08050100  0.80060300  1
  C  1013  1  0.98836800  0.05583200  0.77662300  1
  C  1014  1  0.04647500  0.05577500  0.81872200  1
  C  1015  1  0.98111200  0.09297300  0.83433100  1
  C  1020  1  0.04384700  0.55767700  0.31502300  1
  C  1021  1  0.97828300  0.59451200  0.33061900  1
  C  1022  1  0.96163300  0.58140800  0.29716300  1
  C  1023  1  0.98533500  0.55722300  0.27223700  1
  C  1029  1  0.46327000  0.80908000  0.06411720  1
  C  1030  1  0.48719900  0.83376200  0.08795520  1
  C  1031  1  0.52929500  0.84486000  0.07994120  1
  C  1032  1  0.54628300  0.83069100  0.04694520  1
  C  1033  1  0.52245200  0.80657900  0.02205420  1
  C  1034  1  0.48023600  0.79494600  0.03106220  1
  C  1041  1  0.02942800  0.66027900  0.13370200  1
  C  1042  1  0.09389000  0.67083200  0.17015000  1
  C  1043  1  0.16292000  0.67067100  0.30191800  1
  C  1046  1  0.66777800  0.66576600  0.79542600  1
  C  1049  1  0.98635300  0.65207400  0.14029000  1
  C  1050  1  0.04746000  0.64354000  0.10201400  1
  C  1053  1  0.27068000  0.65103600  0.33114900  1
  C  1054  1  0.22766800  0.65943000  0.33789600  1
  C  1055  1  0.20972400  0.64265400  0.36961200  1
  C  1058  1  0.71197400  0.64112800  0.86652100  1
  C  1059  1  0.77302600  0.64885400  0.82687800  1
  C  1060  1  0.72992700  0.65782100  0.83477600  1
  C  1064  1  0.48810100  0.64615200  0.64283200  1
  C  1065  1  0.52920700  0.65984500  0.63405200  1
  C  1066  1  0.54545100  0.64834200  0.60004300  1
  C  1069  1  0.03937100  0.72413800  0.17106500  1
  C  1070  1  0.03962800  0.79391000  0.30151300  1
  C  1073  1  0.03698600  0.29722600  0.79810700  1
  C  1074  1  0.04205000  0.22591600  0.66781700  1
  C  1077  1  0.02370700  0.61956300  0.07698950  1
  C  1079  1  0.02971600  0.16027900  0.63345900  1
  C  1080  1  0.02447500  0.11709800  0.57809700  1
  C  1082  1  0.02988500  0.35856100  0.83885500  1
  C  1083  1  0.02270900  0.39503100  0.89753700  1
  C  1086  1  0.01999100  0.89763300  0.39270000  1
  C  1087  1  0.02714500  0.85994400  0.33530500  1
  C  1089  1  0.20431600  0.83483600  0.16001200  1
  C  1090  1  0.21694800  0.79380300  0.17015200  1
  C  1091  1  0.19251200  0.76968200  0.19412700  1
  C  1092  1  0.15467100  0.78543900  0.20962100  1
  C  1093  1  0.14015000  0.82466400  0.19585000  1
  C  1094  1  0.16473200  0.84929300  0.17234900  1
  C  1095  1  0.12854300  0.75917700  0.23607700  1
  C  1096  1  0.10221700  0.73298000  0.20976700  1
  C  1097  1  0.06349300  0.74804300  0.19543600  1
  C  1098  1  0.05391000  0.68476200  0.15829300  1
  C  1099  1  0.11754300  0.69463000  0.19490100  1
  C  1100  1  0.15489400  0.73281200  0.26224600  1
  C  1101  1  0.10239900  0.78523400  0.26266700  1
  C  1102  1  0.06406600  0.76981300  0.27752100  1
  C  1103  1  0.05290400  0.83443800  0.31246000  1
  C  1104  1  0.09293000  0.84845200  0.30083900  1
  C  1105  1  0.11740000  0.82390500  0.27719200  1
  C  1106  1  0.19396900  0.74743100  0.27621200  1
  C  1107  1  0.21805200  0.72331400  0.30046100  1
  C  1108  1  0.20318900  0.68415100  0.31345200  1
  C  1109  1  0.13926900  0.69470000  0.27732500  1
  C  1122  1  0.55340700  0.68466700  0.65868300  1
  C  1123  1  0.53559900  0.71985500  0.67639500  1
  C  1124  1  0.55934800  0.74403700  0.70084000  1
  C  1125  1  0.60156400  0.73349600  0.71002600  1
  C  1126  1  0.61972200  0.69965700  0.69026900  1
  C  1127  1  0.59624100  0.67545600  0.66568400  1
  C  1128  1  0.62841300  0.75928000  0.73635900  1
  C  1129  1  0.65529300  0.78505900  0.71005000  1
  C  1130  1  0.69720300  0.77395300  0.70037300  1
  C  1131  1  0.72093600  0.79788300  0.67574300  1
  C  1132  1  0.70362400  0.83370100  0.65854000  1
  C  1133  1  0.66102000  0.84348000  0.66614300  1
  C  1134  1  0.63738400  0.81925500  0.69061000  1
  C  1135  1  0.60271200  0.78622800  0.76265600  1
  C  1136  1  0.65416700  0.73225800  0.76254500  1
  C  1137  1  0.68850900  0.74998200  0.78196100  1
  C  1138  1  0.71329500  0.72585700  0.80567300  1
  C  1139  1  0.70396400  0.68295400  0.81194900  1
  C  1140  1  0.64323100  0.69010500  0.77170700  1
  C  1141  1  0.56858100  0.76836500  0.78224900  1
  C  1142  1  0.54376700  0.79241200  0.80599500  1
  C  1143  1  0.55278600  0.83542000  0.81211500  1
  C  1144  1  0.58888400  0.85270500  0.79550700  1
  C  1145  1  0.61352200  0.82841500  0.77181100  1
  C  1160  1  0.05413000  0.33369600  0.81433200  1
  C  1161  1  0.06068600  0.27308600  0.77360600  1
  C  1162  1  0.10193200  0.28507900  0.76268200  1
  C  1163  1  0.11967400  0.32008600  0.78118700  1
  C  1164  1  0.09631600  0.34418500  0.80594400  1
  C  1165  1  0.12831900  0.25937800  0.73598600  1
  C  1166  1  0.15508700  0.23314700  0.76200500  1
  C  1167  1  0.19633100  0.24518100  0.77289400  1
  C  1168  1  0.22018700  0.22093000  0.79720200  1
  C  1169  1  0.20337400  0.18407500  0.81307200  1
  C  1170  1  0.16132500  0.17327800  0.80440500  1
  C  1171  1  0.13771800  0.19758500  0.77996500  1
  C  1172  1  0.10243800  0.23281600  0.70958500  1
  C  1173  1  0.15400600  0.28638700  0.70976500  1
  C  1174  1  0.18950400  0.26940300  0.69141300  1
  C  1175  1  0.21406400  0.29374800  0.66770700  1
  C  1176  1  0.20343000  0.33611500  0.66037500  1
  C  1177  1  0.16606100  0.35233600  0.67567800  1
  C  1178  1  0.14167300  0.32773600  0.69934400  1
  C  1179  1  0.06630600  0.24974100  0.69214400  1
  C  1180  1  0.05428300  0.18465600  0.65799500  1
  C  1181  1  0.09207100  0.16862600  0.67275000  1
  C  1182  1  0.11564500  0.19232200  0.69763800  1
  C  1197  1  0.70373100  0.18311700  0.31185500  1
  C  1198  1  0.71483100  0.22517500  0.30379800  1
  C  1199  1  0.69017700  0.24942200  0.28009000  1
  C  1200  1  0.65414200  0.23258500  0.26241100  1
  C  1201  1  0.64142100  0.19161500  0.27354800  1
  C  1202  1  0.66588600  0.16711900  0.29723800  1
  C  1203  1  0.62823600  0.25943100  0.23622800  1
  C  1204  1  0.60240000  0.28590800  0.26271400  1
  C  1205  1  0.56583500  0.26926100  0.27968800  1
  C  1206  1  0.54165100  0.29311400  0.30404400  1
  C  1207  1  0.55438800  0.33404300  0.31437100  1
  C  1208  1  0.59259200  0.34971300  0.30013400  1
  C  1209  1  0.61609200  0.32601400  0.27520000  1
  C  1210  1  0.65479500  0.28569400  0.21009400  1
  C  1211  1  0.60180400  0.23364800  0.20963100  1
  C  1212  1  0.56095600  0.24625600  0.19814300  1
  C  1213  1  0.53712500  0.22217900  0.17368600  1
  C  1214  1  0.55373800  0.18508100  0.15809000  1
  C  1215  1  0.59561900  0.17396500  0.16702200  1
  C  1216  1  0.61913800  0.19806100  0.19167500  1
  C  1217  1  0.69560100  0.27314300  0.19846400  1
  C  1218  1  0.71940000  0.29742500  0.17414200  1
  C  1219  1  0.70292700  0.33484700  0.15898200  1
  C  1220  1  0.66120900  0.34614900  0.16834000  1
  C  1221  1  0.63764900  0.32179500  0.19278000  1
  C  1238  1  0.95439300  0.08581600  0.56171400  1
  C  1239  1  0.91842700  0.10314700  0.54491500  1
  C  1240  1  0.89366300  0.07879000  0.52136200  1
  C  1241  1  0.90422100  0.03645400  0.51251500  1
  C  1242  1  0.93826600  0.01859200  0.53221800  1
  C  1243  1  0.96310900  0.04267600  0.55591100  1
  C  1244  1  0.87850400  0.00941895  0.48629700  1
  C  1245  1  0.85273300  0.98255400  0.51259600  1
  C  1246  1  0.86368200  0.94047100  0.52198000  1
  C  1247  1  0.83915100  0.91630400  0.54584500  1
  C  1248  1  0.80292400  0.93359800  0.56220600  1
  C  1249  1  0.79349200  0.97641100  0.55564800  1
  C  1250  1  0.81834100  0.00039395  0.53188000  1
  C  1251  1  0.85160400  0.03501900  0.45986600  1
  C  1252  1  0.90546000  0.98357000  0.46009200  1
  C  1253  1  0.88752600  0.94943300  0.44057700  1
  C  1254  1  0.91115800  0.92520300  0.41611000  1
  C  1255  1  0.95388800  0.93472700  0.40887600  1
  C  1256  1  0.97139000  0.97027500  0.42630900  1
  C  1257  1  0.94755300  0.99439300  0.45073500  1
  C  1258  1  0.86945300  0.06912400  0.44026500  1
  C  1259  1  0.84574500  0.09322000  0.41575600  1
  C  1260  1  0.80311300  0.08340900  0.40832500  1
  C  1261  1  0.78582300  0.04771500  0.42571000  1
  C  1262  1  0.80966300  0.02386200  0.45031600  1
  C  1279  1  0.80238200  0.43464600  0.06268550  1
  C  1280  1  0.84040600  0.41844000  0.04857350  1
  C  1281  1  0.86514900  0.44252300  0.02480850  1
  C  1282  1  0.85245600  0.48319400  0.01287950  1
  C  1283  1  0.81631400  0.50040600  0.03011950  1
  C  1284  1  0.79147700  0.47662200  0.05405450  1
  C  1285  1  0.87847900  0.50944700  0.98633600  1
  C  1286  1  0.90447900  0.53619800  0.01249250  1
  C  1287  1  0.89200100  0.57725600  0.02356150  1
  C  1288  1  0.91672100  0.60172400  0.04706650  1
  C  1289  1  0.95450300  0.58559100  0.06172150  1
  C  1290  1  0.96524400  0.54337800  0.05379350  1
  C  1291  1  0.94052400  0.51923800  0.03004950  1
  C  1292  1  0.90534300  0.48344300  0.96023300  1
  C  1293  1  0.85189100  0.53501200  0.95972800  1
  C  1294  1  0.86871200  0.57107200  0.94212100  1
  C  1295  1  0.84497900  0.59492500  0.91747400  1
  C  1296  1  0.80348200  0.58300500  0.90797200  1
  C  1297  1  0.78745900  0.54544700  0.92326100  1
  C  1298  1  0.81141000  0.52171700  0.94788900  1
  C  1299  1  0.88939600  0.44624100  0.94379700  1
  C  1300  1  0.91410400  0.42144500  0.92052600  1
  C  1301  1  0.95538000  0.43394200  0.91093500  1
  C  1302  1  0.96980700  0.47333900  0.92372300  1
  C  1303  1  0.94530700  0.49744800  0.94766600  1
  C  1320  1  0.45310400  0.93458600  0.90846100  1
  C  1321  1  0.41331900  0.92044500  0.92064200  1
  C  1322  1  0.38960500  0.94428900  0.94532000  1
  C  1323  1  0.40471000  0.98288900  0.95986300  1
  C  1324  1  0.44324300  0.99811100  0.94528000  1
  C  1325  1  0.46739200  0.97419100  0.92094200  1
  C  1326  1  0.37836600  0.00918195  0.98608600  1
  C  1327  1  0.35221400  0.03530000  0.95953500  1
  C  1328  1  0.36669800  0.07446300  0.94560200  1
  C  1329  1  0.34214200  0.09889600  0.92193100  1
  C  1330  1  0.30256500  0.08433000  0.90969600  1
  C  1331  1  0.28988300  0.04340700  0.92007200  1
  C  1332  1  0.31441100  0.01940000  0.94406600  1
  C  1333  1  0.35200900  0.98295200  0.01235550  1
  C  1334  1  0.40459300  0.03533100  0.01254950  1
  C  1335  1  0.38972200  0.07412600  0.02692550  1
  C  1336  1  0.41434700  0.09878600  0.05037050  1
  C  1337  1  0.45434600  0.08473700  0.06205750  1
  C  1338  1  0.46740200  0.04404100  0.05134850  1
  C  1339  1  0.44289600  0.01989800  0.02744650  1
  C  1340  1  0.36771600  0.94503200  0.02772850  1
  C  1341  1  0.34405300  0.92110600  0.05238850  1
  C  1342  1  0.30364300  0.93449000  0.06361250  1
  C  1343  1  0.28864900  0.97346000  0.05034950  1
  C  1344  1  0.31280200  0.99752100  0.02610550  1
  C  1361  1  0.30271700  0.58448400  0.40962200  1
  C  1362  1  0.34031300  0.60089200  0.42439000  1
  C  1363  1  0.36498200  0.57669200  0.44812100  1
  C  1364  1  0.35263300  0.53564600  0.45935600  1
  C  1365  1  0.31698900  0.51830200  0.44147400  1
  C  1366  1  0.29224800  0.54220200  0.41755300  1
  C  1367  1  0.37841600  0.50920400  0.48594000  1
  C  1368  1  0.40443300  0.48234900  0.45986100  1
  C  1369  1  0.39245900  0.44094600  0.44934100  1
  C  1370  1  0.41731800  0.41647800  0.42594600  1
  C  1371  1  0.45474300  0.43289900  0.41085000  1
  C  1372  1  0.46493600  0.47538600  0.41825200  1
  C  1373  1  0.44008900  0.49953500  0.44189300  1
  C  1374  1  0.40527800  0.53507500  0.51215000  1
  C  1375  1  0.35158000  0.48372000  0.51243200  1
  C  1376  1  0.36853000  0.44809800  0.53059800  1
  C  1377  1  0.34470200  0.42432700  0.55523700  1
  C  1378  1  0.30292700  0.43589800  0.56415300  1
  C  1379  1  0.28667900  0.47299800  0.54824400  1
  C  1380  1  0.31071900  0.49664000  0.52361600  1
  C  1381  1  0.38895500  0.57178800  0.52912600  1
  C  1382  1  0.41353000  0.59656800  0.55250700  1
  C  1383  1  0.45505900  0.58449000  0.56167600  1
  C  1384  1  0.46995600  0.54554800  0.54829500  1
  C  1385  1  0.44557600  0.52146800  0.52424700  1
  C  1402  1  0.96242800  0.62755400  0.11633800  1
  C  1403  1  0.98045300  0.61080600  0.08461150  1
  C  1407  1  0.79458000  0.89334000  0.61753500  1
  C  1408  1  0.77058800  0.86885400  0.64146500  1
  C  1409  1  0.72808500  0.85859800  0.63399900  1
  C  1410  1  0.71072500  0.87387200  0.60144800  1
  C  1411  1  0.73431700  0.89845500  0.57674000  1
  C  1412  1  0.77699300  0.90863800  0.58515700  1
  C  1419  1  0.29381100  0.12370800  0.85375400  1
  C  1420  1  0.26991600  0.14820100  0.82975200  1
  C  1421  1  0.22774800  0.15923800  0.83758600  1
  C  1422  1  0.21065300  0.14514500  0.87057500  1
  C  1423  1  0.23441600  0.12116000  0.89560000  1
  C  1424  1  0.27671100  0.10966200  0.88677500  1
  C  1431  1  0.46251000  0.38980300  0.35683900  1
  C  1432  1  0.48649000  0.36528100  0.33292500  1
  C  1433  1  0.52989800  0.35842300  0.33893600  1
  C  1434  1  0.54826000  0.37632800  0.36999400  1
  C  1435  1  0.52442900  0.40016900  0.39505900  1
  C  1436  1  0.48080700  0.40772700  0.38799600  1
  C  1443  1  0.21161200  0.37728000  0.60541400  1
  C  1444  1  0.23561500  0.40182100  0.58152200  1
  C  1445  1  0.27830900  0.41137000  0.58876200  1
  C  1446  1  0.29581500  0.39567500  0.62108400  1
  C  1447  1  0.27211000  0.37132400  0.64587300  1
  C  1448  1  0.22927600  0.36150400  0.63761800  1
  C  1455  1  0.71232100  0.14341100  0.36751600  1
  C  1456  1  0.73633800  0.11902200  0.39150400  1
  C  1457  1  0.77859800  0.10813600  0.38372900  1
  C  1458  1  0.79566100  0.12253800  0.35079500  1
  C  1459  1  0.77197200  0.14685500  0.32596200  1
  C  1460  1  0.72956700  0.15784800  0.33470700  1
  C  1467  1  0.54507200  0.87845700  0.86609100  1
  C  1468  1  0.52105200  0.90297900  0.88997700  1
  C  1469  1  0.47766000  0.91006200  0.88391100  1
  C  1470  1  0.45938900  0.89210100  0.85280000  1
  C  1471  1  0.48314400  0.86793300  0.82791200  1
  C  1472  1  0.52674100  0.86045200  0.83501000  1
  C  1479  1  0.96195800  0.13011000  0.61500700  1
  C  1480  1  0.98601600  0.15463700  0.63886100  1
  C  1481  1  0.04831000  0.14108700  0.60305500  1
  C  1482  1  0.98053200  0.11086700  0.58455800  1
  C  1488  1  0.79386400  0.39424000  0.11804900  1
  C  1489  1  0.76990400  0.36967100  0.14194200  1
  C  1490  1  0.72732200  0.35982300  0.13457100  1
  C  1491  1  0.70983300  0.37531300  0.10218100  1
  C  1492  1  0.73357500  0.39953500  0.07731150  1
  C  1493  1  0.77633400  0.40965700  0.08565350  1
  C  1500  1  0.29462700  0.62637200  0.35498100  1
  C  1501  1  0.23348600  0.61847600  0.39449400  1
  C  1502  1  0.27667500  0.60958900  0.38672500  1
  C  1507  1  0.21271800  0.87557200  0.10467400  1
  C  1508  1  0.23659800  0.90020500  0.08076350  1
  C  1509  1  0.27917700  0.90990900  0.08811950  1
  C  1510  1  0.29671900  0.89466000  0.12053100  1
  C  1511  1  0.27288500  0.87079500  0.14558600  1
  C  1512  1  0.23018300  0.86033400  0.13719200  1
  C  1519  1  0.73597200  0.61649200  0.89033700  1
  C  1520  1  0.77890700  0.60768700  0.88343500  1
  C  1521  1  0.79668300  0.62430600  0.85155700  1
  C  1525  1  0.46445900  0.62153800  0.61874400  1
  C  1526  1  0.52179600  0.62442900  0.57489400  1
  C  1527  1  0.48063700  0.61011600  0.58464900  1
  C  1532  1  0.96463500  0.39585100  0.85433400  1
  C  1533  1  0.98836800  0.37118200  0.83035400  1
  C  1534  1  0.04647500  0.37112500  0.87245300  1
  C  1535  1  0.98111200  0.40832300  0.88806200  1
  C  1540  1  0.04384700  0.87302700  0.36875400  1
  C  1541  1  0.97828300  0.90986200  0.38435000  1
  C  1542  1  0.96163300  0.89675800  0.35089400  1
  C  1543  1  0.98533500  0.87257300  0.32596800  1
  C  1549  1  0.46327000  0.12443000  0.11784800  1
  C  1550  1  0.48719900  0.14911200  0.14168600  1
  C  1551  1  0.52929500  0.16021000  0.13367200  1
  C  1552  1  0.54628300  0.14604100  0.10067600  1
  C  1553  1  0.52245200  0.12192900  0.07578550  1
  C  1554  1  0.48023600  0.11029600  0.08479350  1
  N  22  1  0.79231600  0.03116400  0.68865200  1
  N  44  1  0.04038000  0.77220900  0.82275700  1
  N  365  1  0.04309300  0.97637200  0.93864700  1
  N  376  1  0.71542100  0.27968300  0.43802500  1
  N  388  1  0.21603600  0.48065900  0.82015100  1
  N  400  1  0.54413600  0.78295000  0.31802200  1
  N  412  1  0.29109800  0.72864700  0.56961600  1
  N  424  1  0.79052100  0.52697100  0.18680200  1
  N  436  1  0.46341900  0.22324600  0.69020200  1
  N  446  1  0.04451900  0.47142900  0.44088100  1
  N  457  1  0.71471800  0.78024700  0.93843500  1
  N  464  1  0.21418200  0.97523700  0.31793300  1
  N  476  1  0.29164700  0.22945700  0.06978200  1
  N  489  1  0.53911800  0.98679200  0.43446000  1
  N  506  1  0.96739400  0.23293800  0.18613000  1
  N  518  1  0.54069800  0.48147200  0.93624600  1
  N  542  1  0.79231600  0.34651400  0.74238300  1
  N  564  1  0.04038000  0.08755900  0.87648800  1
  N  885  1  0.04309300  0.29172200  0.99237800  1
  N  896  1  0.71542100  0.59503300  0.49175600  1
  N  908  1  0.21603600  0.79600900  0.87388200  1
  N  920  1  0.54413600  0.09830000  0.37175300  1
  N  932  1  0.29109800  0.04399700  0.62334700  1
  N  944  1  0.79052100  0.84232100  0.24053300  1
  N  956  1  0.46341900  0.53859600  0.74393300  1
  N  966  1  0.04451900  0.78677900  0.49461200  1
  N  977  1  0.71471800  0.09559700  0.99216600  1
  N  984  1  0.21418200  0.29058700  0.37166400  1
  N  996  1  0.29164700  0.54480700  0.12351300  1
  N  1009  1  0.53911800  0.30214200  0.48819100  1
  N  1026  1  0.96739400  0.54828800  0.23986100  1
  N  1038  1  0.54069800  0.79682200  0.98997700  1
  N  1062  1  0.79231600  0.66186400  0.79611400  1
  N  1084  1  0.04038000  0.40290900  0.93021900  1
  N  1405  1  0.04309300  0.60707200  0.04610950  1
  N  1416  1  0.71542100  0.91038300  0.54548700  1
  N  1428  1  0.21603600  0.11135900  0.92761300  1
  N  1440  1  0.54413600  0.41365000  0.42548400  1
  N  1452  1  0.29109800  0.35934700  0.67707800  1
  N  1464  1  0.79052100  0.15767100  0.29426400  1
  N  1476  1  0.46341900  0.85394600  0.79766400  1
  N  1486  1  0.04451900  0.10212900  0.54834300  1
  N  1497  1  0.71471800  0.41094700  0.04589750  1
  N  1504  1  0.21418200  0.60593700  0.42539500  1
  N  1516  1  0.29164700  0.86015700  0.17724400  1
  N  1529  1  0.53911800  0.61749200  0.54192200  1
  N  1546  1  0.96739400  0.86363800  0.29359200  1
  N  1558  1  0.54069800  0.11217200  0.04370850  1
