# generated using pymatgen
data_H13(C10N)2
_symmetry_space_group_name_H-M   'P 1'
_cell_length_a   32.49940000
_cell_length_b   55.96680000
_cell_length_c   55.96680000
_cell_angle_alpha   90.00000000
_cell_angle_beta   90.00000000
_cell_angle_gamma   90.00000000
_symmetry_Int_Tables_number   1
_chemical_formula_structural   H13(C10N)2
_chemical_formula_sum   'H416 C640 N64'
_cell_volume   101797.30845318
_cell_formula_units_Z   32
loop_
 _symmetry_equiv_pos_site_id
 _symmetry_equiv_pos_as_xyz
  1  'x, y, z'
loop_
 _atom_site_type_symbol
 _atom_site_label
 _atom_site_symmetry_multiplicity
 _atom_site_fract_x
 _atom_site_fract_y
 _atom_site_fract_z
 _atom_site_occupancy
  H  7  1  0.81285600  0.15509400  0.37782900  1
  H  8  1  0.93234700  0.13539200  0.39846600  1
  H  9  1  0.87142300  0.19087900  0.43404600  1
  H  16  1  0.85191200  0.14698500  0.33955600  1
  H  17  1  0.87378600  0.07594300  0.31904300  1
  H  18  1  0.89427900  0.09683500  0.39011000  1
  H  25  1  0.31284900  0.33893300  0.60180300  1
  H  26  1  0.43236800  0.35859300  0.58117800  1
  H  27  1  0.37142600  0.30310600  0.54561400  1
  H  34  1  0.35190800  0.34706800  0.64008300  1
  H  35  1  0.37386900  0.41812100  0.66053900  1
  H  36  1  0.39431800  0.39716400  0.58948700  1
  H  43  1  0.06414600  0.85955000  0.89798900  1
  H  44  1  0.18372000  0.83847500  0.87892400  1
  H  45  1  0.12191100  0.80341300  0.93439300  1
  H  52  1  0.10392300  0.89769800  0.88953200  1
  H  53  1  0.12817600  0.91736700  0.81849000  1
  H  54  1  0.14560800  0.84622400  0.84013100  1
  H  61  1  0.56408800  0.63449000  0.08174500  1
  H  62  1  0.68365300  0.65558600  0.10080000  1
  H  63  1  0.62180600  0.69064500  0.04534400  1
  H  70  1  0.60386700  0.59635100  0.09015200  1
  H  71  1  0.62811000  0.57661700  0.16117500  1
  H  72  1  0.64558200  0.64777300  0.13959600  1
  H  79  1  0.68239800  0.33860200  0.37822200  1
  H  80  1  0.56285700  0.35899300  0.39807700  1
  H  81  1  0.62171000  0.30274900  0.43363400  1
  H  88  1  0.64412900  0.34716500  0.33973300  1
  H  89  1  0.62249500  0.41821200  0.31915700  1
  H  90  1  0.60162100  0.39736200  0.39019900  1
  H  97  1  0.18229100  0.15548600  0.60146700  1
  H  98  1  0.06275900  0.13505000  0.58163600  1
  H  99  1  0.12155200  0.19129700  0.54604700  1
  H  106  1  0.14405500  0.14688900  0.63996300  1
  H  107  1  0.12249900  0.07582400  0.66051400  1
  H  108  1  0.10158700  0.09669500  0.58948100  1
  H  115  1  0.43107600  0.63483300  0.89843900  1
  H  116  1  0.31151100  0.65517200  0.87858100  1
  H  117  1  0.37118200  0.69021900  0.93483900  1
  H  124  1  0.39200700  0.59648000  0.88952700  1
  H  125  1  0.36822500  0.57673600  0.81845400  1
  H  126  1  0.35047700  0.64787800  0.84000300  1
  H  133  1  0.93105800  0.85919300  0.08123700  1
  H  134  1  0.81148900  0.83887500  0.10111200  1
  H  135  1  0.87114900  0.80379600  0.04486900  1
  H  142  1  0.89206000  0.89755300  0.09013000  1
  H  143  1  0.86827500  0.91735600  0.16118700  1
  H  144  1  0.85042500  0.84620800  0.13968200  1
  H  151  1  0.17981600  0.83886300  0.60243900  1
  H  152  1  0.06023700  0.85788800  0.58133400  1
  H  153  1  0.12217200  0.80248800  0.54624500  1
  H  160  1  0.14018300  0.84729100  0.64056200  1
  H  161  1  0.11578500  0.91830300  0.66031400  1
  H  162  1  0.09811600  0.89666700  0.58918600  1
  H  169  1  0.67990800  0.65513800  0.37728600  1
  H  170  1  0.56027200  0.63618600  0.39835200  1
  H  171  1  0.62226700  0.69155100  0.43345900  1
  H  178  1  0.64029800  0.64673700  0.33915300  1
  H  179  1  0.61576300  0.57574500  0.31938200  1
  H  180  1  0.59807900  0.59738600  0.39050800  1
  H  187  1  0.93111300  0.13517700  0.08169200  1
  H  188  1  0.81143400  0.15562100  0.10121600  1
  H  189  1  0.87239200  0.19126500  0.04576700  1
  H  196  1  0.89156500  0.09681000  0.08966300  1
  H  197  1  0.87013700  0.07640600  0.16083600  1
  H  198  1  0.85007800  0.14754500  0.13986900  1
  H  205  1  0.43119000  0.35886800  0.89790900  1
  H  206  1  0.31151400  0.33839900  0.87840100  1
  H  207  1  0.37250900  0.30277200  0.93384800  1
  H  214  1  0.39155800  0.39723200  0.88997400  1
  H  215  1  0.37016100  0.41765300  0.81880500  1
  H  216  1  0.35017900  0.34649600  0.83973700  1
  H  223  1  0.31304600  0.65558600  0.60204000  1
  H  224  1  0.43262400  0.63581000  0.58164300  1
  H  225  1  0.37276100  0.69199900  0.54660200  1
  H  232  1  0.35199700  0.64671900  0.64036100  1
  H  233  1  0.37607200  0.57569100  0.66019500  1
  H  234  1  0.39396100  0.59723400  0.58905600  1
  H  241  1  0.81303400  0.83842700  0.37765000  1
  H  242  1  0.93264200  0.85821900  0.39798000  1
  H  243  1  0.87282300  0.80205400  0.43308900  1
  H  250  1  0.85190900  0.84730200  0.33931200  1
  H  251  1  0.87594300  0.91832600  0.31945900  1
  H  252  1  0.89395900  0.89679200  0.39058800  1
  H  259  1  0.56166600  0.35852100  0.08132700  1
  H  260  1  0.68137300  0.33888500  0.10160900  1
  H  261  1  0.62257800  0.30323500  0.04538500  1
  H  268  1  0.60040800  0.39711000  0.08975200  1
  H  269  1  0.62151600  0.41761900  0.16092500  1
  H  270  1  0.64196000  0.34648900  0.14005300  1
  H  277  1  0.06174800  0.13550900  0.89835500  1
  H  278  1  0.18144500  0.15516100  0.87807000  1
  H  279  1  0.12261500  0.19082600  0.93427500  1
  H  286  1  0.10053500  0.09691700  0.88994700  1
  H  287  1  0.12157800  0.07641300  0.81876500  1
  H  288  1  0.14198900  0.14754600  0.83962600  1
  H  295  1  0.69282600  0.29764600  0.44259400  1
  H  304  1  0.76483300  0.22783100  0.46574900  1
  H  305  1  0.72728500  0.26486400  0.46579400  1
  H  306  1  0.80006500  0.19538200  0.44249200  1
  H  308  1  0.64852000  0.29310200  0.35921300  1
  H  309  1  0.68963200  0.27688500  0.34663200  1
  H  310  1  0.69588100  0.30756300  0.35222300  1
  H  312  1  0.80482800  0.21700400  0.34673200  1
  H  313  1  0.79901200  0.18624800  0.35203700  1
  H  314  1  0.84598500  0.20092800  0.35944100  1
  H  321  1  0.19265500  0.19641300  0.53707000  1
  H  330  1  0.26476800  0.26618800  0.51389700  1
  H  331  1  0.22719600  0.22915900  0.51386300  1
  H  332  1  0.30005500  0.29862200  0.53714500  1
  H  334  1  0.14835800  0.20100100  0.62044600  1
  H  335  1  0.18946900  0.21721800  0.63302500  1
  H  336  1  0.19570200  0.18653500  0.62746100  1
  H  338  1  0.30475900  0.27703600  0.63291200  1
  H  339  1  0.29897600  0.30779100  0.62760000  1
  H  340  1  0.34593600  0.29309300  0.62020500  1
  H  347  1  0.94232300  0.79491500  0.04022400  1
  H  356  1  0.01490000  0.77178400  0.97063900  1
  H  357  1  0.97707700  0.77174100  0.00757400  1
  H  358  1  0.05045300  0.79501500  0.93833100  1
  H  360  1  0.89800500  0.87830400  0.03556800  1
  H  361  1  0.93938400  0.89091700  0.01960500  1
  H  362  1  0.94515000  0.88521700  0.05029600  1
  H  364  1  0.05481500  0.89083700  0.95977400  1
  H  365  1  0.04957100  0.88539000  0.92900600  1
  H  366  1  0.09629900  0.87810000  0.94400000  1
  H  373  1  0.44237200  0.69909600  0.93944000  1
  H  382  1  0.51486800  0.72224200  0.00904800  1
  H  383  1  0.47710500  0.72227800  0.97209400  1
  H  384  1  0.55037400  0.69902100  0.04137500  1
  H  386  1  0.39807500  0.61568200  0.94408200  1
  H  387  1  0.43946400  0.60308400  0.96004900  1
  H  388  1  0.44525200  0.60881200  0.92936500  1
  H  390  1  0.55479800  0.60319700  0.01997000  1
  H  391  1  0.54944400  0.60867300  0.05072500  1
  H  392  1  0.59624200  0.61592400  0.03578200  1
  H  399  1  0.30157900  0.69659500  0.53777000  1
  H  408  1  0.22910000  0.76621100  0.51465300  1
  H  409  1  0.26688100  0.72926200  0.51460500  1
  H  410  1  0.19360300  0.79852800  0.53788100  1
  H  412  1  0.34597300  0.70125500  0.62115400  1
  H  413  1  0.30458600  0.71720300  0.63377700  1
  H  414  1  0.29883400  0.68651600  0.62806300  1
  H  416  1  0.18916800  0.77706700  0.63369300  1
  H  417  1  0.19443000  0.80783600  0.62826000  1
  H  418  1  0.14769900  0.79285000  0.62095300  1
  H  425  1  0.80165200  0.79743700  0.44194200  1
  H  434  1  0.72917100  0.72781900  0.46506700  1
  H  435  1  0.76690700  0.76478700  0.46511100  1
  H  436  1  0.69369300  0.69549400  0.44183800  1
  H  438  1  0.84603500  0.79275900  0.35856100  1
  H  439  1  0.80465800  0.77679900  0.34594100  1
  H  440  1  0.79889800  0.80749100  0.35163100  1
  H  442  1  0.68931800  0.71692100  0.34601900  1
  H  443  1  0.69458900  0.68615600  0.35146700  1
  H  444  1  0.64784300  0.70113800  0.35875200  1
  H  451  1  0.05145600  0.19989700  0.93926900  1
  H  460  1  0.97921900  0.22309800  0.00901300  1
  H  461  1  0.01687300  0.22313200  0.97201000  1
  H  462  1  0.94383600  0.19982500  0.04142800  1
  H  464  1  0.09564200  0.11649900  0.94390700  1
  H  465  1  0.05447600  0.10394400  0.96009700  1
  H  466  1  0.04831800  0.10950800  0.92940900  1
  H  468  1  0.93929800  0.10405200  0.01979800  1
  H  469  1  0.94497500  0.10935700  0.05056200  1
  H  470  1  0.89805400  0.11674100  0.03581500  1
  H  477  1  0.55140100  0.29416000  0.04040900  1
  H  486  1  0.47927100  0.27095500  0.97062800  1
  H  487  1  0.51685600  0.27092500  0.00765300  1
  H  488  1  0.44393200  0.29422400  0.93820000  1
  H  490  1  0.59554700  0.37759300  0.03583000  1
  H  491  1  0.55439500  0.39013100  0.01961700  1
  H  492  1  0.54815800  0.38452100  0.05029100  1
  H  494  1  0.43935900  0.39000200  0.95979500  1
  H  495  1  0.44512900  0.38466200  0.92904300  1
  H  496  1  0.39814300  0.37732500  0.94374600  1
  H  503  1  0.19296400  0.79776700  0.94353600  1
  H  512  1  0.26477600  0.72782200  0.96679200  1
  H  513  1  0.22730500  0.76489800  0.96682300  1
  H  514  1  0.29988700  0.69527100  0.94346900  1
  H  516  1  0.14872200  0.79316400  0.86017200  1
  H  517  1  0.18948900  0.77660100  0.84767500  1
  H  518  1  0.19631700  0.80728000  0.85300300  1
  H  520  1  0.30486100  0.71721600  0.84779700  1
  H  521  1  0.29849400  0.68646000  0.85286000  1
  H  522  1  0.34569600  0.70081300  0.86042400  1
  H  529  1  0.69285000  0.69629300  0.03618200  1
  H  538  1  0.76471300  0.76621600  0.01292200  1
  H  539  1  0.72725100  0.72913500  0.01289600  1
  H  540  1  0.79984900  0.79876100  0.03623800  1
  H  542  1  0.64863400  0.70091300  0.11954500  1
  H  543  1  0.68941300  0.71746400  0.13204200  1
  H  544  1  0.69621000  0.68678200  0.12672300  1
  H  546  1  0.80480300  0.77684200  0.13191900  1
  H  547  1  0.79845200  0.80759800  0.12684200  1
  H  548  1  0.84565000  0.79323400  0.11929000  1
  H  555  1  0.44251300  0.29411000  0.54035200  1
  H  564  1  0.51495400  0.27093700  0.47065600  1
  H  565  1  0.47718100  0.27088700  0.50761800  1
  H  566  1  0.55036100  0.29422800  0.43825200  1
  H  568  1  0.39822300  0.37747900  0.53572100  1
  H  569  1  0.43925800  0.39003100  0.51942200  1
  H  570  1  0.44560500  0.38456200  0.55011200  1
  H  572  1  0.55498000  0.38995600  0.46000800  1
  H  573  1  0.54912700  0.38474900  0.42924000  1
  H  574  1  0.59611900  0.37730000  0.44388100  1
  H  581  1  0.94251000  0.19985900  0.43928900  1
  H  590  1  0.01483600  0.22305900  0.50901400  1
  H  591  1  0.97712300  0.22309300  0.47203100  1
  H  592  1  0.05022000  0.19978600  0.54143300  1
  H  594  1  0.89824800  0.11646100  0.44388800  1
  H  595  1  0.93927900  0.10393000  0.46020600  1
  H  596  1  0.94568900  0.10944300  0.42952900  1
  H  598  1  0.05488800  0.10403900  0.51973600  1
  H  599  1  0.04895500  0.10929300  0.55049000  1
  H  600  1  0.09600200  0.11669500  0.53588500  1
  H  607  1  0.80126100  0.19643400  0.03672700  1
  H  616  1  0.72920500  0.26626700  0.01353100  1
  H  617  1  0.76677500  0.22923000  0.01348400  1
  H  618  1  0.69394600  0.29872200  0.03683600  1
  H  620  1  0.84555200  0.20107800  0.12011100  1
  H  621  1  0.80452300  0.21738900  0.13265000  1
  H  622  1  0.79814100  0.18670500  0.12717200  1
  H  624  1  0.68930900  0.27694600  0.13256700  1
  H  625  1  0.69517300  0.30771100  0.12735500  1
  H  626  1  0.64817200  0.29307700  0.11991300  1
  H  633  1  0.30138500  0.29760800  0.94291000  1
  H  642  1  0.22926100  0.22780500  0.96612600  1
  H  643  1  0.26682700  0.26484400  0.96616000  1
  H  644  1  0.19398600  0.19534800  0.94283200  1
  H  646  1  0.34565300  0.29292000  0.85953200  1
  H  647  1  0.30461000  0.27661700  0.84699400  1
  H  648  1  0.29826400  0.30730900  0.85245100  1
  H  650  1  0.18935000  0.21709100  0.84709100  1
  H  651  1  0.19522500  0.18632800  0.85231200  1
  H  652  1  0.14821900  0.20095800  0.85975000  1
  H  659  1  0.55120400  0.70076000  0.43909800  1
  H  668  1  0.47927400  0.72400700  0.50900900  1
  H  669  1  0.51679100  0.72404300  0.47194900  1
  H  670  1  0.44409500  0.70067900  0.54154200  1
  H  672  1  0.59531900  0.61737100  0.44366500  1
  H  673  1  0.55452400  0.60488100  0.46021000  1
  H  674  1  0.54772700  0.61022900  0.42953300  1
  H  676  1  0.43916500  0.60500300  0.51959700  1
  H  677  1  0.44553200  0.61007000  0.55035100  1
  H  678  1  0.39832500  0.61762300  0.53600100  1
  H  685  1  0.05110200  0.79331800  0.54060600  1
  H  694  1  0.97927100  0.77006500  0.47066400  1
  H  695  1  0.01673000  0.77003300  0.50774500  1
  H  696  1  0.94413200  0.79338200  0.43811700  1
  H  698  1  0.09528700  0.87671700  0.53606900  1
  H  699  1  0.05453000  0.88919800  0.51948800  1
  H  700  1  0.04763500  0.88382000  0.55015300  1
  H  702  1  0.93928600  0.88908500  0.45998700  1
  H  703  1  0.94570100  0.88395900  0.42924500  1
  H  704  1  0.89843900  0.87648000  0.44357700  1
  H  711  1  0.89733100  0.14300900  0.18035000  1
  H  720  1  0.92386100  0.16076300  0.26091700  1
  H  721  1  0.92270700  0.16116800  0.21811100  1
  H  722  1  0.90020800  0.14205400  0.29884700  1
  H  724  1  0.78568600  0.08965600  0.16161800  1
  H  725  1  0.75493100  0.09605700  0.18671400  1
  H  726  1  0.79077500  0.07216300  0.18782700  1
  H  728  1  0.76407900  0.08508700  0.28685200  1
  H  729  1  0.77146700  0.10010600  0.31430200  1
  H  730  1  0.80129800  0.07447100  0.30717700  1
  H  737  1  0.39743500  0.35105400  0.79926400  1
  H  746  1  0.42391000  0.33329000  0.71868600  1
  H  747  1  0.42273700  0.33285800  0.76150500  1
  H  748  1  0.40027200  0.35202300  0.68076400  1
  H  750  1  0.28574800  0.40438600  0.81801100  1
  H  751  1  0.25500000  0.39798700  0.79291400  1
  H  752  1  0.29083800  0.42188400  0.79180500  1
  H  754  1  0.26418100  0.40901400  0.69278500  1
  H  755  1  0.27153200  0.39398700  0.66533500  1
  H  756  1  0.30139200  0.41961500  0.67244600  1
  H  763  1  0.14833500  0.05681800  0.88544200  1
  H  772  1  0.17587400  0.97633700  0.90324700  1
  H  773  1  0.17405300  0.01914900  0.90368700  1
  H  774  1  0.15289000  0.93824300  0.88450200  1
  H  776  1  0.03706400  0.07501000  0.83163500  1
  H  777  1  0.00675200  0.04967000  0.83778200  1
  H  778  1  0.04294000  0.04891700  0.81405000  1
  H  780  1  0.01792300  0.94973700  0.82650000  1
  H  781  1  0.02514400  0.92235500  0.84166600  1
  H  782  1  0.05553100  0.92946700  0.81624600  1
  H  789  1  0.64824000  0.43720400  0.09426600  1
  H  798  1  0.67578800  0.51767600  0.07643900  1
  H  799  1  0.67397900  0.47486500  0.07602300  1
  H  800  1  0.65283400  0.55576800  0.09518900  1
  H  802  1  0.53697000  0.41902500  0.14807100  1
  H  803  1  0.50665600  0.44436300  0.14192100  1
  H  804  1  0.54284400  0.44512100  0.16565300  1
  H  806  1  0.51783800  0.54430500  0.15317700  1
  H  807  1  0.52506500  0.57168700  0.13801000  1
  H  808  1  0.55546000  0.56456700  0.16342600  1
  H  815  1  0.59494100  0.35109000  0.18092700  1
  H  824  1  0.57078000  0.33333333  0.26176400  1
  H  825  1  0.57064200  0.33295300  0.21895100  1
  H  826  1  0.59552200  0.35205900  0.29943400  1
  H  828  1  0.70603500  0.40445600  0.16111900  1
  H  829  1  0.73747900  0.39805400  0.18592300  1
  H  830  1  0.70168400  0.42195700  0.18736600  1
  H  832  1  0.73132800  0.40899200  0.28613200  1
  H  833  1  0.72474900  0.39396000  0.31364300  1
  H  834  1  0.69471500  0.41959900  0.30683000  1
  H  841  1  0.09491900  0.14292900  0.79876800  1
  H  850  1  0.07074400  0.16069700  0.71792900  1
  H  851  1  0.07065400  0.16110500  0.76075400  1
  H  852  1  0.09545800  0.14196300  0.68025800  1
  H  854  1  0.20608300  0.08959300  0.81855300  1
  H  855  1  0.23751400  0.09601000  0.79374900  1
  H  856  1  0.20173700  0.07210100  0.79229800  1
  H  858  1  0.23131900  0.08507100  0.69354600  1
  H  859  1  0.22472300  0.10010700  0.66603700  1
  H  860  1  0.19471400  0.07445700  0.67284800  1
  H  867  1  0.34388300  0.43770700  0.88538000  1
  H  876  1  0.31862500  0.51845900  0.90319900  1
  H  877  1  0.31916600  0.47563300  0.90359800  1
  H  878  1  0.34274500  0.55631700  0.88448500  1
  H  880  1  0.45475300  0.41849400  0.83163700  1
  H  881  1  0.48574200  0.44354300  0.83782800  1
  H  882  1  0.44965500  0.44464500  0.81406100  1
  H  884  1  0.47760300  0.54356500  0.82666100  1
  H  885  1  0.47112000  0.57100100  0.84184300  1
  H  886  1  0.44062700  0.56420900  0.81637800  1
  H  893  1  0.84391800  0.05633200  0.09427300  1
  H  902  1  0.81871700  0.97558300  0.07644400  1
  H  903  1  0.81921600  0.01840600  0.07606100  1
  H  904  1  0.84281900  0.93773600  0.09517400  1
  H  906  1  0.95474400  0.07557100  0.14803100  1
  H  907  1  0.98575400  0.05052700  0.14185200  1
  H  908  1  0.94964600  0.04942200  0.16561200  1
  H  910  1  0.97765300  0.95049500  0.15301700  1
  H  911  1  0.97119400  0.92305600  0.13783400  1
  H  912  1  0.94066700  0.92984900  0.16328500  1
  H  919  1  0.09917600  0.85045700  0.79975800  1
  H  928  1  0.06942600  0.83329700  0.71947800  1
  H  929  1  0.07246700  0.83247000  0.76224800  1
  H  930  1  0.09148100  0.85229400  0.68134600  1
  H  932  1  0.21174700  0.90346200  0.81744500  1
  H  933  1  0.24144100  0.89732400  0.79185500  1
  H  934  1  0.20560900  0.92124900  0.79149900  1
  H  936  1  0.22700200  0.91001800  0.69204000  1
  H  937  1  0.21891600  0.89514300  0.66457800  1
  H  938  1  0.18876600  0.92049000  0.67227700  1
  H  945  1  0.59915000  0.64353500  0.17994800  1
  H  954  1  0.56952800  0.66075600  0.26023600  1
  H  955  1  0.57256200  0.66158800  0.21745400  1
  H  956  1  0.59156500  0.64174400  0.29836200  1
  H  958  1  0.71166300  0.59047600  0.16224800  1
  H  959  1  0.74138000  0.59660900  0.18783100  1
  H  960  1  0.70551500  0.57270200  0.18820100  1
  H  962  1  0.72697100  0.58393500  0.28764200  1
  H  963  1  0.71897100  0.59884200  0.31509600  1
  H  964  1  0.68874900  0.57351100  0.30743900  1
  H  971  1  0.39675800  0.64355400  0.79925700  1
  H  980  1  0.42421400  0.66073400  0.71866300  1
  H  981  1  0.42241700  0.66155400  0.76146500  1
  H  982  1  0.40105700  0.64172300  0.68075100  1
  H  984  1  0.28457500  0.59061900  0.81797400  1
  H  985  1  0.25422600  0.59677300  0.79265000  1
  H  986  1  0.28998300  0.57281800  0.79198500  1
  H  988  1  0.26569400  0.58413700  0.69274100  1
  H  989  1  0.27300500  0.59903500  0.66521700  1
  H  990  1  0.30330400  0.57365000  0.67258400  1
  H  997  1  0.89675300  0.85055700  0.18040700  1
  H  1006  1  0.92410400  0.83332000  0.26100100  1
  H  1007  1  0.92238100  0.83254700  0.21819700  1
  H  1008  1  0.90093400  0.85232100  0.29890900  1
  H  1010  1  0.78460600  0.90351400  0.16167700  1
  H  1011  1  0.75422400  0.89734800  0.18698400  1
  H  1012  1  0.78997500  0.92130500  0.18767500  1
  H  1014  1  0.76559000  0.90992500  0.28691800  1
  H  1015  1  0.77286100  0.89500700  0.31443600  1
  H  1016  1  0.80319400  0.92038600  0.30709300  1
  H  1023  1  0.64450200  0.55684100  0.38614500  1
  H  1032  1  0.67229000  0.47647100  0.40393000  1
  H  1033  1  0.67046200  0.51926500  0.40433800  1
  H  1034  1  0.64916000  0.43843300  0.38524400  1
  H  1036  1  0.53201900  0.57505300  0.33324600  1
  H  1037  1  0.50158500  0.54987200  0.33983500  1
  H  1038  1  0.53713600  0.54881400  0.31579100  1
  H  1040  1  0.51228400  0.44965900  0.32873400  1
  H  1041  1  0.52035800  0.42222100  0.34365400  1
  H  1042  1  0.54980700  0.42961700  0.31794700  1
  H  1049  1  0.14460000  0.93720700  0.59355300  1
  H  1058  1  0.17233200  0.01758800  0.57574600  1
  H  1059  1  0.17048800  0.97478300  0.57531800  1
  H  1060  1  0.14919400  0.05561800  0.59444800  1
  H  1062  1  0.03205000  0.91899100  0.64641700  1
  H  1063  1  0.00160900  0.94416500  0.63981100  1
  H  1064  1  0.03714100  0.94523700  0.66386300  1
  H  1066  1  0.01229700  0.04436300  0.65093200  1
  H  1067  1  0.02034600  0.07179900  0.63600300  1
  H  1068  1  0.04979500  0.06442300  0.66171700  1
  H  1075  1  0.84766900  0.93771300  0.38612000  1
  H  1084  1  0.82215100  0.01838700  0.40387700  1
  H  1085  1  0.82274800  0.97557400  0.40430200  1
  H  1086  1  0.84638200  0.05618800  0.38515800  1
  H  1088  1  0.95976600  0.91845100  0.33333333  1
  H  1089  1  0.99084400  0.94336200  0.33991200  1
  H  1090  1  0.95539400  0.94471500  0.31583200  1
  H  1092  1  0.98310800  0.04362700  0.32881600  1
  H  1093  1  0.97579400  0.07113200  0.34374300  1
  H  1094  1  0.94622700  0.06405000  0.31799400  1
  H  1101  1  0.34766500  0.55631700  0.59356000  1
  H  1110  1  0.32214500  0.47564600  0.57578400  1
  H  1111  1  0.32270800  0.51846100  0.57539100  1
  H  1112  1  0.34640400  0.43785000  0.59447900  1
  H  1114  1  0.45988300  0.57557300  0.64628300  1
  H  1115  1  0.49095400  0.55066700  0.63965400  1
  H  1116  1  0.45556600  0.54930600  0.66376500  1
  H  1118  1  0.48320300  0.45039200  0.65076400  1
  H  1119  1  0.47590100  0.42289300  0.63582300  1
  H  1120  1  0.44633200  0.42995600  0.66157600  1
  C  1  1  0.87267800  0.14258000  0.38546000  1
  C  2  1  0.83823100  0.15769500  0.38830100  1
  C  3  1  0.83840700  0.17663600  0.40492900  1
  C  4  1  0.87174900  0.17800000  0.42108300  1
  C  5  1  0.90551000  0.16213400  0.41993100  1
  C  6  1  0.90665700  0.14565100  0.40087800  1
  C  10  1  0.87310600  0.12463400  0.36753200  1
  C  11  1  0.86048400  0.12992100  0.34393900  1
  C  12  1  0.85992700  0.11211500  0.32612500  1
  C  13  1  0.87366900  0.08891800  0.33195200  1
  C  14  1  0.88713400  0.08323900  0.35524100  1
  C  15  1  0.88602600  0.10112800  0.37296900  1
  C  19  1  0.37268400  0.35142800  0.59417500  1
  C  20  1  0.33822200  0.33632600  0.59133100  1
  C  21  1  0.33840600  0.31737000  0.57471900  1
  C  22  1  0.37175500  0.31599100  0.55857200  1
  C  23  1  0.40553100  0.33184300  0.55972600  1
  C  24  1  0.40667500  0.34833800  0.57876800  1
  C  28  1  0.37311500  0.36939000  0.61208800  1
  C  29  1  0.36049300  0.36412800  0.63568400  1
  C  30  1  0.35996400  0.38194800  0.65348500  1
  C  31  1  0.37372400  0.40513600  0.64763900  1
  C  32  1  0.38719500  0.41078800  0.62434300  1
  C  33  1  0.38605700  0.39288800  0.60662900  1
  C  37  1  0.12404400  0.85165300  0.88577100  1
  C  38  1  0.08941000  0.84903700  0.90078000  1
  C  39  1  0.08924800  0.83252500  0.91982900  1
  C  40  1  0.12247900  0.81631200  0.92144900  1
  C  41  1  0.15641800  0.81727700  0.90571100  1
  C  42  1  0.15790900  0.83621700  0.88911900  1
  C  46  1  0.12484100  0.86933100  0.86759800  1
  C  47  1  0.11271100  0.89307000  0.87256900  1
  C  48  1  0.11306200  0.91070200  0.85457900  1
  C  49  1  0.12711900  0.90453600  0.83153700  1
  C  50  1  0.13964000  0.88100000  0.82611600  1
  C  51  1  0.13779200  0.86348800  0.84419500  1
  C  55  1  0.62398700  0.64239300  0.09395500  1
  C  56  1  0.58934400  0.64500700  0.07895100  1
  C  57  1  0.58916500  0.66152400  0.05990800  1
  C  58  1  0.62238100  0.67774600  0.05828600  1
  C  59  1  0.65632300  0.67678700  0.07402400  1
  C  60  1  0.65783400  0.65784300  0.09061200  1
  C  64  1  0.62481200  0.62469500  0.11210900  1
  C  65  1  0.61267600  0.60096100  0.10711700  1
  C  66  1  0.61301200  0.58331700  0.12509000  1
  C  67  1  0.62707700  0.58945800  0.14813700  1
  C  68  1  0.63962800  0.61298400  0.15358300  1
  C  69  1  0.63777200  0.63051100  0.13551700  1
  C  73  1  0.62271300  0.35152200  0.38552500  1
  C  74  1  0.65673900  0.33611200  0.38848500  1
  C  75  1  0.65572000  0.31701300  0.40492200  1
  C  76  1  0.62197500  0.31575300  0.42079600  1
  C  77  1  0.58858000  0.33187200  0.41951500  1
  C  78  1  0.58827900  0.34854600  0.40061900  1
  C  82  1  0.62300600  0.36956200  0.36768700  1
  C  83  1  0.63578800  0.36426600  0.34412700  1
  C  84  1  0.63646400  0.38205800  0.32629500  1
  C  85  1  0.62275000  0.40526900  0.33209800  1
  C  86  1  0.60917500  0.41095900  0.35536000  1
  C  87  1  0.61015600  0.39308600  0.37310100  1
  C  91  1  0.12261800  0.14254200  0.59417500  1
  C  92  1  0.15662900  0.15795900  0.59120000  1
  C  93  1  0.15557300  0.17706000  0.57476500  1
  C  94  1  0.12182500  0.17830200  0.55889400  1
  C  95  1  0.08844700  0.16217300  0.56018500  1
  C  96  1  0.08817000  0.14550600  0.57908800  1
  C  100  1  0.12294600  0.12449500  0.61200400  1
  C  101  1  0.13573000  0.12978700  0.63556400  1
  C  102  1  0.13643000  0.11198700  0.65338900  1
  C  103  1  0.12273900  0.08877300  0.64757800  1
  C  104  1  0.10916600  0.08308900  0.62431300  1
  C  105  1  0.11012700  0.10096800  0.60657900  1
  C  109  1  0.37134600  0.64242300  0.88576700  1
  C  110  1  0.40553400  0.64515400  0.90109600  1
  C  111  1  0.40483200  0.66148500  0.92029700  1
  C  112  1  0.37121300  0.67743700  0.92177800  1
  C  113  1  0.33767400  0.67634900  0.90575800  1
  C  114  1  0.33703700  0.65755700  0.88898400  1
  C  118  1  0.37128700  0.62482700  0.86750800  1
  C  119  1  0.38350300  0.60111000  0.87251500  1
  C  120  1  0.38331800  0.58345800  0.85454400  1
  C  121  1  0.36937600  0.58959700  0.83146900  1
  C  122  1  0.35680700  0.61311500  0.82601100  1
  C  123  1  0.35851100  0.63064900  0.84406800  1
  C  127  1  0.87132700  0.85161900  0.09391600  1
  C  128  1  0.90550700  0.84887800  0.07858400  1
  C  129  1  0.90480500  0.83253600  0.05939400  1
  C  130  1  0.87118300  0.81658400  0.05792200  1
  C  131  1  0.83764400  0.81768400  0.07394300  1
  C  132  1  0.83701600  0.83648500  0.09071000  1
  C  136  1  0.87127800  0.86922900  0.11216200  1
  C  137  1  0.88353100  0.89293600  0.10714100  1
  C  138  1  0.88337700  0.91060000  0.12510300  1
  C  139  1  0.86941400  0.90448600  0.14818000  1
  C  140  1  0.85681000  0.88097700  0.15365200  1
  C  141  1  0.85848400  0.86343100  0.13560600  1
  C  145  1  0.11990000  0.85105400  0.59454100  1
  C  146  1  0.15455700  0.83606100  0.59192400  1
  C  147  1  0.15478100  0.81703600  0.57538700  1
  C  148  1  0.12157100  0.81541500  0.55915800  1
  C  149  1  0.08761500  0.83114000  0.56012300  1
  C  150  1  0.08606100  0.84770400  0.57908600  1
  C  154  1  0.11905900  0.86920900  0.61224100  1
  C  155  1  0.13129000  0.86424400  0.63596200  1
  C  156  1  0.13094600  0.88221700  0.65360900  1
  C  157  1  0.11680000  0.90525600  0.64748200  1
  C  158  1  0.10416400  0.91067100  0.62396100  1
  C  159  1  0.10600900  0.89260200  0.60643800  1
  C  163  1  0.61996300  0.64298100  0.38516600  1
  C  164  1  0.65465300  0.65794700  0.38780300  1
  C  165  1  0.65488600  0.67697800  0.40433400  1
  C  166  1  0.62166100  0.67862200  0.42054900  1
  C  167  1  0.58767300  0.66291900  0.41957000  1
  C  168  1  0.58611300  0.64635200  0.40060900  1
  C  172  1  0.61910100  0.62482900  0.36746200  1
  C  173  1  0.63136600  0.62978900  0.34374600  1
  C  174  1  0.63099700  0.61181800  0.32609700  1
  C  175  1  0.61679600  0.58878800  0.33221600  1
  C  176  1  0.60412500  0.58338300  0.35573400  1
  C  177  1  0.60599600  0.60144700  0.37326000  1
  C  181  1  0.87120100  0.14273500  0.09410100  1
  C  182  1  0.90571300  0.14562100  0.07905500  1
  C  183  1  0.90549100  0.16221900  0.06009200  1
  C  184  1  0.87207500  0.17830900  0.05865500  1
  C  185  1  0.83825000  0.17709700  0.07446800  1
  C  186  1  0.83713300  0.15806700  0.09097300  1
  C  190  1  0.87080700  0.12484800  0.11206200  1
  C  191  1  0.88311500  0.10121600  0.10674400  1
  C  192  1  0.88354600  0.08340900  0.12455700  1
  C  193  1  0.87026300  0.08930900  0.14783600  1
  C  194  1  0.85725300  0.11269300  0.15352500  1
  C  195  1  0.85821900  0.13038000  0.13559800  1
  C  199  1  0.37127500  0.35129700  0.88550800  1
  C  200  1  0.40579200  0.34842100  0.90055300  1
  C  201  1  0.40558900  0.33182200  0.91951400  1
  C  202  1  0.37218200  0.31572400  0.92095800  1
  C  203  1  0.33835400  0.31692900  0.90514700  1
  C  204  1  0.33722200  0.33595800  0.88864100  1
  C  208  1  0.37085600  0.36919200  0.86755700  1
  C  209  1  0.38312100  0.39282700  0.87289000  1
  C  210  1  0.38354600  0.41064000  0.85508500  1
  C  211  1  0.37029000  0.40474500  0.83179800  1
  C  212  1  0.35731500  0.38135800  0.82609500  1
  C  213  1  0.35829000  0.36366400  0.84401600  1
  C  217  1  0.37279800  0.64296100  0.59443600  1
  C  218  1  0.33857300  0.65826300  0.59171500  1
  C  219  1  0.33917900  0.67744600  0.57535900  1
  C  220  1  0.37277600  0.67894700  0.55939200  1
  C  221  1  0.40634600  0.66295000  0.56046600  1
  C  222  1  0.40706900  0.64619500  0.57927500  1
  C  226  1  0.37293600  0.62472000  0.61205500  1
  C  227  1  0.36062500  0.62971900  0.63575500  1
  C  228  1  0.36086200  0.61176600  0.65342400  1
  C  229  1  0.37491800  0.58869900  0.64732600  1
  C  230  1  0.38758900  0.58325300  0.62382100  1
  C  231  1  0.38585000  0.60129700  0.60627300  1
  C  235  1  0.87279500  0.85106300  0.38522500  1
  C  236  1  0.83857000  0.83576500  0.38797400  1
  C  237  1  0.83921600  0.81658400  0.40433100  1
  C  238  1  0.87282600  0.81509700  0.42028800  1
  C  239  1  0.90639600  0.83109400  0.41918600  1
  C  240  1  0.90709100  0.84783600  0.40036600  1
  C  244  1  0.87290000  0.86930100  0.36760200  1
  C  245  1  0.86054000  0.86430100  0.34391100  1
  C  246  1  0.86073000  0.88225500  0.32623800  1
  C  247  1  0.87481100  0.90531800  0.33232700  1
  C  248  1  0.88753100  0.91076400  0.35582500  1
  C  249  1  0.88581700  0.89272500  0.37337500  1
  C  253  1  0.62142100  0.35130300  0.09417800  1
  C  254  1  0.58735600  0.34828500  0.07882000  1
  C  255  1  0.58845700  0.33187500  0.05970300  1
  C  256  1  0.62228600  0.31606900  0.05839400  1
  C  257  1  0.65571700  0.31742200  0.07447700  1
  C  258  1  0.65595400  0.33629900  0.09116700  1
  C  262  1  0.62107000  0.36910800  0.11222100  1
  C  263  1  0.60861800  0.39270800  0.10687200  1
  C  264  1  0.60805200  0.41054100  0.12466100  1
  C  265  1  0.62127600  0.40467900  0.14796300  1
  C  266  1  0.63437500  0.38132200  0.15368500  1
  C  267  1  0.63355100  0.36361000  0.13578300  1
  C  271  1  0.12150300  0.14273200  0.88550700  1
  C  272  1  0.08743900  0.14574500  0.90086600  1
  C  273  1  0.08851700  0.16217000  0.91997000  1
  C  274  1  0.12233600  0.17798300  0.92127400  1
  C  275  1  0.15577300  0.17662900  0.90519500  1
  C  276  1  0.15602300  0.15774500  0.88851200  1
  C  280  1  0.12115800  0.12492300  0.86746900  1
  C  281  1  0.10873500  0.10132000  0.87282600  1
  C  282  1  0.10814500  0.08348900  0.85503500  1
  C  283  1  0.12134800  0.08935200  0.83172800  1
  C  284  1  0.13443600  0.11271000  0.82599800  1
  C  285  1  0.13360700  0.13042100  0.84390000  1
  C  289  1  0.68603800  0.29855400  0.40481800  1
  C  290  1  0.69733000  0.28614300  0.38352400  1
  C  292  1  0.73486600  0.25712900  0.40623700  1
  C  293  1  0.72389100  0.26817300  0.42804100  1
  C  294  1  0.70071800  0.28940700  0.42691700  1
  C  296  1  0.75830700  0.23607000  0.40621900  1
  C  297  1  0.80766800  0.19486000  0.40476100  1
  C  299  1  0.79660300  0.20739800  0.38349900  1
  C  300  1  0.79233200  0.20370600  0.42683300  1
  C  301  1  0.76893200  0.22485300  0.42799300  1
  C  302  1  0.75695600  0.23548900  0.44980600  1
  C  303  1  0.73540500  0.25732600  0.44983400  1
  C  307  1  0.68195500  0.29124600  0.35908100  1
  C  311  1  0.81252300  0.20258800  0.35911400  1
  C  315  1  0.18587300  0.19553000  0.57484600  1
  C  316  1  0.19719500  0.20792900  0.59614200  1
  C  318  1  0.23477200  0.23691700  0.57341800  1
  C  319  1  0.22379200  0.22586400  0.55161800  1
  C  320  1  0.20061900  0.20463200  0.55274500  1
  C  322  1  0.25823100  0.25796900  0.57342900  1
  C  323  1  0.30764400  0.29915900  0.57487400  1
  C  325  1  0.29655900  0.28663600  0.59614400  1
  C  326  1  0.29229900  0.29030900  0.55280800  1
  C  327  1  0.26886700  0.26917500  0.55165400  1
  C  328  1  0.25690100  0.25852800  0.52984200  1
  C  329  1  0.23529700  0.23671000  0.52982100  1
  C  333  1  0.18179400  0.20284900  0.62058500  1
  C  337  1  0.31247400  0.29144600  0.62052800  1
  C  341  1  0.93543900  0.83267900  0.04111400  1
  C  342  1  0.94687700  0.85399100  0.02877700  1
  C  344  1  0.98468000  0.83130500  0.99984800  1
  C  345  1  0.97364000  0.80949500  0.01086100  1
  C  346  1  0.95030400  0.81060000  0.03202900  1
  C  348  1  0.00829100  0.83132400  0.97885100  1
  C  349  1  0.05815400  0.83273600  0.93785000  1
  C  351  1  0.04688000  0.85402400  0.95027700  1
  C  352  1  0.04264700  0.81068000  0.94662300  1
  C  353  1  0.01900200  0.80954400  0.96767100  1
  C  354  1  0.00697600  0.78772700  0.97828300  1
  C  355  1  0.98521300  0.78770000  0.00004100  1
  C  359  1  0.93146700  0.87842400  0.03388400  1
  C  363  1  0.06280900  0.87840100  0.94545800  1
  C  367  1  0.43547300  0.66132900  0.93857600  1
  C  368  1  0.44689500  0.64001800  0.95091500  1
  C  370  1  0.48470800  0.66271200  0.97983200  1
  C  371  1  0.47367400  0.68452100  0.96881300  1
  C  372  1  0.45034700  0.68341400  0.94764200  1
  C  374  1  0.50829600  0.66270000  0.00084000  1
  C  375  1  0.55807200  0.66130200  0.04188800  1
  C  377  1  0.54689000  0.64002200  0.02941700  1
  C  378  1  0.54254300  0.68335100  0.03310300  1
  C  379  1  0.51897900  0.68448400  0.01202200  1
  C  380  1  0.50697000  0.70629700  0.00140000  1
  C  381  1  0.48524000  0.70631800  0.97963000  1
  C  385  1  0.43153700  0.61558200  0.94577800  1
  C  389  1  0.56275800  0.61564000  0.03428300  1
  C  393  1  0.30851400  0.69571000  0.57553700  1
  C  394  1  0.29708800  0.70804800  0.59684800  1
  C  396  1  0.25928800  0.73698500  0.57417200  1
  C  397  1  0.27030600  0.72596700  0.55235900  1
  C  398  1  0.29364100  0.70479800  0.55346000  1
  C  400  1  0.23570500  0.75799400  0.57419400  1
  C  401  1  0.18588000  0.79901800  0.57560000  1
  C  403  1  0.19713200  0.78657500  0.59688400  1
  C  404  1  0.20142100  0.79025000  0.55355100  1
  C  405  1  0.22501000  0.76917700  0.55241300  1
  C  406  1  0.23704500  0.75857400  0.53059600  1
  C  407  1  0.25871700  0.73678300  0.53056600  1
  C  411  1  0.31250800  0.70293200  0.62127700  1
  C  415  1  0.18118800  0.79138700  0.62126100  1
  C  419  1  0.80857500  0.79830500  0.40417700  1
  C  420  1  0.79713500  0.78598000  0.38286100  1
  C  422  1  0.75934100  0.75704700  0.40554600  1
  C  423  1  0.77034400  0.76807500  0.42735500  1
  C  424  1  0.79364600  0.78925700  0.42625400  1
  C  426  1  0.73578300  0.73602900  0.40552800  1
  C  427  1  0.68601000  0.69497900  0.40411800  1
  C  429  1  0.69725000  0.70743000  0.38283400  1
  C  430  1  0.70152100  0.70376700  0.42616800  1
  C  431  1  0.72509400  0.72484400  0.42730700  1
  C  432  1  0.73709100  0.73546400  0.44912300  1
  C  433  1  0.75877800  0.75725000  0.44915000  1
  C  437  1  0.81257200  0.79107900  0.35843200  1
  C  441  1  0.68133300  0.70260500  0.35845300  1
  C  445  1  0.05815800  0.16212000  0.93839000  1
  C  446  1  0.04683200  0.14082900  0.95079900  1
  C  448  1  0.00927200  0.16358000  0.97976200  1
  C  449  1  0.02028100  0.18537600  0.96872200  1
  C  450  1  0.04348300  0.18423200  0.94750200  1
  C  452  1  0.98578200  0.16356700  0.00079600  1
  C  453  1  0.93628900  0.16209300  0.04191400  1
  C  455  1  0.94743000  0.14082200  0.02941700  1
  C  456  1  0.95161500  0.18417500  0.03310000  1
  C  457  1  0.97512000  0.18534200  0.01199600  1
  C  458  1  0.98709600  0.20715300  0.00135600  1
  C  459  1  0.00876900  0.20717400  0.97956100  1
  C  463  1  0.06220200  0.11637800  0.94573200  1
  C  467  1  0.93152200  0.11642900  0.03420300  1
  C  471  1  0.55811500  0.33193900  0.04127200  1
  C  472  1  0.54682900  0.35322900  0.02885400  1
  C  474  1  0.50926500  0.33047800  0.99989300  1
  C  475  1  0.52026200  0.30867900  0.01094000  1
  C  476  1  0.54344100  0.30982300  0.03216800  1
  C  478  1  0.48580300  0.33048700  0.97884900  1
  C  479  1  0.43639600  0.33195600  0.93768600  1
  C  481  1  0.44744900  0.35321800  0.95022700  1
  C  482  1  0.45174100  0.30987800  0.94650900  1
  C  483  1  0.47516600  0.30871300  0.96764300  1
  C  484  1  0.48712300  0.28690000  0.97829200  1
  C  485  1  0.50876000  0.28688100  0.00009800  1
  C  489  1  0.56211200  0.37768600  0.03397300  1
  C  493  1  0.43160800  0.37761500  0.94539400  1
  C  497  1  0.18636500  0.79863200  0.90574700  1
  C  498  1  0.19749900  0.78611200  0.88448500  1
  C  500  1  0.23485500  0.75711600  0.90728700  1
  C  501  1  0.22389800  0.76819400  0.92907200  1
  C  502  1  0.20083500  0.78946900  0.92788700  1
  C  504  1  0.25823300  0.73605000  0.90727500  1
  C  505  1  0.30728300  0.69475400  0.90572200  1
  C  507  1  0.29635200  0.70738300  0.88448600  1
  C  508  1  0.29216300  0.70363600  0.92783200  1
  C  509  1  0.26885800  0.72482000  0.92903800  1
  C  510  1  0.25691200  0.73548400  0.95084700  1
  C  511  1  0.23539600  0.75734000  0.95086900  1
  C  515  1  0.18212200  0.79111000  0.86001800  1
  C  519  1  0.31226400  0.70266400  0.86007900  1
  C  523  1  0.68625900  0.69543700  0.07397100  1
  C  524  1  0.69743200  0.70794100  0.09523600  1
  C  526  1  0.73480800  0.73692400  0.07243100  1
  C  527  1  0.72384800  0.72584200  0.05064800  1
  C  528  1  0.70079200  0.70456500  0.05183100  1
  C  530  1  0.75818700  0.75799000  0.07243900  1
  C  531  1  0.80724300  0.79928400  0.07398500  1
  C  533  1  0.79631100  0.78666200  0.09522500  1
  C  534  1  0.79212000  0.79039800  0.05187700  1
  C  535  1  0.76880500  0.76921800  0.05067600  1
  C  536  1  0.75687300  0.75854700  0.02886700  1
  C  537  1  0.73532200  0.73670200  0.02885000  1
  C  541  1  0.68203500  0.70295600  0.11970300  1
  C  545  1  0.81221900  0.79138800  0.11963200  1
  C  549  1  0.43575300  0.33188800  0.54121500  1
  C  550  1  0.44707300  0.35318100  0.52880800  1
  C  552  1  0.48474800  0.33043900  0.49988000  1
  C  553  1  0.47371700  0.30864000  0.51091000  1
  C  554  1  0.45045500  0.30977600  0.53211200  1
  C  556  1  0.50832400  0.33046000  0.47887600  1
  C  557  1  0.55788800  0.33196100  0.43776500  1
  C  559  1  0.54674300  0.35321800  0.45029200  1
  C  560  1  0.54259200  0.30987500  0.44658900  1
  C  561  1  0.51904400  0.30869400  0.46768100  1
  C  562  1  0.50704400  0.28687900  0.47830600  1
  C  563  1  0.48529500  0.28684800  0.50008000  1
  C  567  1  0.43165100  0.37762900  0.53383600  1
  C  571  1  0.56265700  0.37762000  0.44555100  1
  C  575  1  0.93574400  0.16208200  0.43843500  1
  C  576  1  0.94701200  0.14079800  0.45087400  1
  C  578  1  0.98469000  0.16354400  0.47979300  1
  C  579  1  0.97366500  0.18534000  0.46875100  1
  C  580  1  0.95043400  0.18419500  0.44754000  1
  C  582  1  0.00824400  0.16353200  0.50080400  1
  C  583  1  0.05776000  0.16205100  0.54193200  1
  C  585  1  0.04668700  0.14079300  0.52938900  1
  C  586  1  0.04242500  0.18413400  0.53311800  1
  C  587  1  0.01894100  0.18530300  0.51200000  1
  C  588  1  0.00694700  0.20711400  0.50136100  1
  C  589  1  0.98523100  0.20713700  0.47957900  1
  C  593  1  0.93167300  0.11634100  0.44580200  1
  C  597  1  0.06254600  0.11639200  0.53418200  1
  C  601  1  0.80798200  0.19556400  0.07450900  1
  C  602  1  0.79673800  0.20801200  0.09579200  1
  C  604  1  0.75923600  0.23698700  0.07303300  1
  C  605  1  0.77019900  0.22593000  0.05123700  1
  C  606  1  0.79335700  0.20469400  0.05239000  1
  C  608  1  0.73580500  0.25803500  0.07305400  1
  C  609  1  0.68646200  0.29921800  0.07457700  1
  C  611  1  0.69753600  0.28665700  0.09582400  1
  C  612  1  0.70173300  0.29039200  0.05248100  1
  C  613  1  0.72514600  0.26925200  0.05128900  1
  C  614  1  0.73710600  0.25861200  0.02947200  1
  C  615  1  0.75867000  0.23677600  0.02944300  1
  C  619  1  0.81212600  0.20297600  0.12024700  1
  C  623  1  0.68163100  0.29140100  0.12022800  1
  C  627  1  0.30809200  0.29845700  0.90512900  1
  C  628  1  0.29681300  0.28602100  0.88384500  1
  C  630  1  0.25927800  0.25707200  0.90661400  1
  C  631  1  0.27024800  0.26813400  0.92840700  1
  C  632  1  0.29340200  0.28937100  0.92724900  1
  C  634  1  0.23584300  0.23602400  0.90660100  1
  C  635  1  0.18650900  0.19483900  0.90509000  1
  C  637  1  0.19757800  0.20739100  0.88383600  1
  C  638  1  0.20177400  0.20367400  0.92718300  1
  C  639  1  0.22519000  0.22481200  0.92836900  1
  C  640  1  0.23713700  0.23546400  0.95018200  1
  C  641  1  0.25873800  0.25728800  0.95020400  1
  C  645  1  0.31222100  0.29103700  0.85938900  1
  C  649  1  0.18167800  0.20263800  0.85943400  1
  C  653  1  0.55776100  0.66297100  0.43823500  1
  C  654  1  0.54656100  0.64170000  0.45071700  1
  C  656  1  0.50920000  0.66450400  0.47971100  1
  C  657  1  0.52019500  0.68629000  0.46864700  1
  C  658  1  0.54327800  0.68511300  0.44737900  1
  C  660  1  0.48579100  0.66449200  0.50076600  1
  C  661  1  0.43669400  0.66293700  0.54203700  1
  C  663  1  0.44765500  0.64169400  0.52942800  1
  C  664  1  0.45180600  0.68504900  0.53316000  1
  C  665  1  0.47516300  0.68625300  0.51199600  1
  C  666  1  0.48710800  0.70806400  0.50133600  1
  C  667  1  0.50871400  0.70808700  0.47951100  1
  C  671  1  0.56191800  0.61723000  0.44571000  1
  C  675  1  0.43175300  0.61728500  0.53414800  1
  C  679  1  0.05770700  0.83110700  0.54145600  1
  C  680  1  0.04659700  0.85237100  0.52893500  1
  C  682  1  0.00921400  0.82957200  0.49995000  1
  C  683  1  0.02016900  0.80778600  0.51102900  1
  C  684  1  0.04321700  0.80896500  0.53231000  1
  C  686  1  0.98582500  0.82958200  0.47888700  1
  C  687  1  0.93675900  0.83113200  0.43760900  1
  C  689  1  0.94768000  0.85237100  0.45022900  1
  C  690  1  0.95189200  0.80901800  0.44647500  1
  C  691  1  0.97519100  0.80782000  0.46766100  1
  C  692  1  0.98710500  0.78600800  0.47833700  1
  C  693  1  0.00868000  0.78598900  0.50017300  1
  C  697  1  0.06189300  0.87684400  0.53398400  1
  C  701  1  0.93186700  0.87678700  0.44545100  1
  C  705  1  0.84762200  0.11864300  0.17750400  1
  C  706  1  0.81689300  0.10659300  0.19099700  1
  C  708  1  0.84232700  0.12401900  0.22731000  1
  C  709  1  0.87210900  0.13742000  0.21452900  1
  C  710  1  0.87414900  0.13466700  0.18954600  1
  C  712  1  0.84286200  0.12387900  0.25248900  1
  C  713  1  0.85036400  0.11784400  0.30208800  1
  C  715  1  0.81864000  0.10626300  0.28898700  1
  C  716  1  0.87660800  0.13387700  0.28986800  1
  C  717  1  0.87340400  0.13699100  0.26496900  1
  C  718  1  0.90139900  0.15141300  0.25217600  1
  C  719  1  0.90070300  0.15166400  0.22707400  1
  C  723  1  0.78546400  0.09020100  0.18108400  1
  C  727  1  0.78715700  0.09057000  0.29993800  1
  C  731  1  0.34773600  0.37542100  0.80210400  1
  C  732  1  0.31696300  0.38745400  0.78863000  1
  C  734  1  0.34241300  0.37004600  0.75231300  1
  C  735  1  0.37217600  0.35662700  0.76509400  1
  C  736  1  0.37417300  0.35933600  0.79008200  1
  C  738  1  0.34295700  0.37020100  0.72713200  1
  C  739  1  0.35043100  0.37623400  0.67753000  1
  C  741  1  0.31872300  0.38782300  0.69063800  1
  C  742  1  0.37667800  0.36020300  0.68974800  1
  C  743  1  0.37349000  0.35708600  0.71464800  1
  C  744  1  0.40150900  0.34267800  0.72743600  1
  C  745  1  0.40080500  0.34241400  0.75253900  1
  C  749  1  0.28553000  0.40384500  0.79854400  1
  C  753  1  0.28724000  0.40352100  0.67969400  1
  C  757  1  0.09895000  0.05941800  0.86083700  1
  C  758  1  0.06865300  0.04577500  0.84858500  1
  C  760  1  0.09458200  0.00957200  0.86598100  1
  C  761  1  0.12388400  0.02249300  0.87960000  1
  C  762  1  0.12544300  0.04749700  0.87696900  1
  C  764  1  0.09554000  0.98440100  0.86579800  1
  C  765  1  0.10356900  0.93481400  0.85996800  1
  C  767  1  0.07201300  0.94779700  0.84810200  1
  C  768  1  0.12947300  0.94716300  0.87608300  1
  C  769  1  0.12598100  0.97205600  0.87911700  1
  C  770  1  0.15356500  0.98498000  0.89368600  1
  C  771  1  0.15248000  0.01007800  0.89395400  1
  C  775  1  0.03724300  0.05554000  0.83209300  1
  C  779  1  0.04095600  0.93672300  0.83220700  1
  C  783  1  0.59881800  0.43460600  0.11885000  1
  C  784  1  0.56855500  0.44825800  0.13111700  1
  C  786  1  0.59447600  0.48445500  0.11370500  1
  C  787  1  0.62379000  0.47153100  0.10010000  1
  C  788  1  0.62534400  0.44652700  0.10273400  1
  C  790  1  0.59542700  0.50962700  0.11387200  1
  C  791  1  0.60346700  0.55921200  0.11968900  1
  C  793  1  0.57191600  0.54623600  0.13156600  1
  C  794  1  0.62934100  0.54686700  0.10355400  1
  C  795  1  0.62587700  0.52196600  0.10055500  1
  C  796  1  0.65348000  0.50903700  0.08600400  1
  C  797  1  0.65240000  0.48394000  0.08574700  1
  C  801  1  0.53714600  0.43849400  0.14761100  1
  C  805  1  0.54087500  0.55731400  0.14746600  1
  C  809  1  0.64452600  0.37547400  0.17761200  1
  C  810  1  0.67563800  0.38753300  0.19079700  1
  C  812  1  0.65128300  0.37010000  0.22735300  1
  C  813  1  0.62112000  0.35670400  0.21486700  1
  C  814  1  0.61835000  0.35945400  0.18990700  1
  C  816  1  0.65152600  0.37022100  0.25253500  1
  C  817  1  0.64549800  0.37624100  0.30220800  1
  C  819  1  0.67684100  0.38781500  0.28879600  1
  C  820  1  0.61889500  0.36021500  0.29023800  1
  C  821  1  0.62136300  0.35710400  0.26531200  1
  C  822  1  0.59297400  0.34269400  0.25280000  1
  C  823  1  0.59291300  0.34245300  0.22769400  1
  C  827  1  0.70679500  0.40391400  0.18058000  1
  C  831  1  0.70864100  0.40350500  0.29944200  1
  C  835  1  0.14451600  0.11855400  0.80205900  1
  C  836  1  0.17566700  0.10652000  0.78888300  1
  C  838  1  0.15126900  0.12394600  0.75233300  1
  C  839  1  0.12112000  0.13734700  0.76483000  1
  C  840  1  0.11840600  0.13463300  0.78979600  1
  C  842  1  0.15148800  0.12381600  0.72715200  1
  C  843  1  0.14545800  0.11780000  0.67748000  1
  C  845  1  0.17681400  0.10623200  0.69088600  1
  C  846  1  0.11884400  0.13381600  0.68945100  1
  C  847  1  0.12131200  0.13692800  0.71437800  1
  C  848  1  0.09289500  0.15131300  0.72689700  1
  C  849  1  0.09285700  0.15156100  0.75200100  1
  C  853  1  0.20683700  0.09014100  0.79909100  1
  C  857  1  0.20862600  0.09055500  0.68023700  1
  C  861  1  0.39322000  0.43466300  0.86079700  1
  C  862  1  0.42392500  0.44801500  0.84856900  1
  C  864  1  0.39901400  0.48445100  0.86597700  1
  C  865  1  0.36929300  0.47181000  0.87955100  1
  C  866  1  0.36701900  0.44682400  0.87691000  1
  C  868  1  0.39883200  0.50962900  0.86583100  1
  C  869  1  0.39228400  0.55929700  0.86003400  1
  C  871  1  0.42350300  0.54601400  0.84820200  1
  C  872  1  0.36596700  0.54718700  0.87611000  1
  C  873  1  0.36872100  0.52226300  0.87913100  1
  C  874  1  0.34070200  0.50960200  0.89365200  1
  C  875  1  0.34103400  0.48449600  0.89389500  1
  C  879  1  0.45511000  0.43796300  0.83210500  1
  C  883  1  0.45492900  0.55679800  0.83235200  1
  C  887  1  0.89326900  0.05939300  0.11884500  1
  C  888  1  0.92394700  0.04604100  0.13109700  1
  C  890  1  0.89907900  0.00960100  0.11367900  1
  C  891  1  0.86934300  0.02223600  0.10010600  1
  C  892  1  0.86705700  0.04722100  0.10274700  1
  C  894  1  0.89891600  0.98442200  0.11381600  1
  C  895  1  0.89238900  0.93475400  0.11960200  1
  C  897  1  0.92358400  0.94804000  0.13145200  1
  C  898  1  0.86610600  0.94685400  0.10350000  1
  C  899  1  0.86881700  0.97178600  0.10051200  1
  C  900  1  0.84077900  0.98444200  0.08599800  1
  C  901  1  0.84109000  0.00954600  0.08576300  1
  C  905  1  0.95511400  0.05610300  0.14756600  1
  C  909  1  0.95498700  0.93726000  0.14731700  1
  C  913  1  0.14904700  0.87476600  0.80215900  1
  C  914  1  0.17930300  0.88686100  0.78834400  1
  C  916  1  0.15224500  0.86984400  0.75223800  1
  C  917  1  0.12310800  0.85625900  0.76532100  1
  C  918  1  0.12209500  0.85880500  0.79034500  1
  C  920  1  0.15047200  0.87032300  0.72708200  1
  C  921  1  0.14079700  0.87679600  0.67766700  1
  C  923  1  0.17283100  0.88845700  0.69043600  1
  C  924  1  0.11522100  0.86057400  0.69010300  1
  C  925  1  0.11948400  0.85725900  0.71492300  1
  C  926  1  0.09220200  0.84261300  0.72797800  1
  C  927  1  0.09401300  0.84210900  0.75305700  1
  C  931  1  0.21116500  0.90313700  0.79797300  1
  C  935  1  0.20356400  0.90445200  0.67920900  1
  C  939  1  0.64897200  0.61919500  0.17755500  1
  C  940  1  0.67925900  0.60710600  0.19134900  1
  C  942  1  0.65223700  0.62414100  0.22745400  1
  C  943  1  0.62312900  0.63775300  0.21437300  1
  C  944  1  0.62214100  0.63524200  0.18934400  1
  C  946  1  0.65047700  0.62366400  0.25261200  1
  C  947  1  0.64088000  0.61724100  0.30204300  1
  C  949  1  0.67285300  0.60553900  0.28925900  1
  C  950  1  0.61529200  0.63345200  0.28960000  1
  C  951  1  0.61952300  0.63675200  0.26477600  1
  C  952  1  0.59222400  0.65138800  0.25172400  1
  C  953  1  0.59403000  0.65189100  0.22664500  1
  C  957  1  0.71109400  0.59080900  0.18172000  1
  C  961  1  0.70357000  0.58953100  0.30048200  1
  C  965  1  0.34696700  0.61925600  0.80209600  1
  C  966  1  0.31629200  0.60718300  0.78857600  1
  C  968  1  0.34237600  0.62417500  0.75222400  1
  C  969  1  0.37189600  0.63774700  0.76502800  1
  C  970  1  0.37357600  0.63523200  0.79004500  1
  C  972  1  0.34338800  0.62371600  0.72705400  1
  C  973  1  0.35155100  0.61728500  0.67753700  1
  C  975  1  0.31986500  0.60565000  0.69061600  1
  C  976  1  0.37755800  0.63345900  0.68973900  1
  C  977  1  0.37402600  0.63677500  0.71459600  1
  C  978  1  0.40175500  0.65136600  0.72738800  1
  C  979  1  0.40068200  0.65186100  0.75248300  1
  C  983  1  0.28464600  0.59093700  0.79850000  1
  C  987  1  0.28876200  0.58969400  0.67968100  1
  C  991  1  0.84694800  0.87485200  0.17757100  1
  C  992  1  0.81628300  0.88694100  0.19108300  1
  C  994  1  0.84231100  0.86991300  0.22743300  1
  C  995  1  0.87186000  0.85635400  0.21463200  1
  C  996  1  0.87356700  0.85888000  0.18961800  1
  C  998  1  0.84328400  0.87034400  0.25260500  1
  C  999  1  0.85138900  0.87672800  0.30212900  1
  C  1001  1  0.81973600  0.88838900  0.28904600  1
  C  1002  1  0.87737400  0.86053800  0.28993200  1
  C  1003  1  0.87390600  0.85727400  0.26506600  1
  C  1004  1  0.90166600  0.84270100  0.25227300  1
  C  1005  1  0.90063300  0.84223300  0.22717700  1
  C  1009  1  0.78465200  0.90318700  0.18115000  1
  C  1013  1  0.78864000  0.90435200  0.29997900  1
  C  1017  1  0.59446700  0.55946700  0.36197900  1
  C  1018  1  0.56371200  0.54582300  0.35012000  1
  C  1020  1  0.58978700  0.50963900  0.36750900  1
  C  1021  1  0.61953800  0.52257600  0.38078400  1
  C  1022  1  0.62126400  0.54755600  0.37795400  1
  C  1024  1  0.59075000  0.48446000  0.36735100  1
  C  1025  1  0.59915300  0.43491500  0.36119100  1
  C  1027  1  0.56707900  0.44783700  0.34973400  1
  C  1028  1  0.62530100  0.44727400  0.37716600  1
  C  1029  1  0.62165200  0.47214600  0.38034000  1
  C  1030  1  0.64956900  0.48508700  0.39467800  1
  C  1031  1  0.64847100  0.51018400  0.39493200  1
  C  1035  1  0.53198600  0.55558600  0.33383500  1
  C  1039  1  0.53566900  0.43671600  0.33410900  1
  C  1043  1  0.09455400  0.93459500  0.61771000  1
  C  1044  1  0.06374200  0.94821900  0.62953900  1
  C  1046  1  0.08983400  0.98440300  0.61215700  1
  C  1047  1  0.11958000  0.97146500  0.59887600  1
  C  1048  1  0.12127200  0.94647700  0.60167100  1
  C  1050  1  0.09079900  0.00958100  0.61232500  1
  C  1051  1  0.09915700  0.05913500  0.61848100  1
  C  1053  1  0.06709500  0.04619900  0.62993600  1
  C  1054  1  0.12533400  0.04677400  0.60251900  1
  C  1055  1  0.12170200  0.02190000  0.59934400  1
  C  1056  1  0.14966100  0.00896000  0.58503000  1
  C  1057  1  0.14856000  0.98386500  0.58476800  1
  C  1061  1  0.03200800  0.93845800  0.64582000  1
  C  1065  1  0.03567000  0.05731400  0.64555600  1
  C  1069  1  0.89762900  0.93463900  0.36197300  1
  C  1070  1  0.92879900  0.94797900  0.35013100  1
  C  1072  1  0.90367900  0.98440800  0.36746900  1
  C  1073  1  0.87354900  0.97176100  0.38073600  1
  C  1074  1  0.87116400  0.94679100  0.37795100  1
  C  1076  1  0.90347000  0.00959300  0.36731600  1
  C  1077  1  0.89655900  0.05922300  0.36116000  1
  C  1079  1  0.92830100  0.04598500  0.34975000  1
  C  1080  1  0.86999200  0.04711000  0.37709800  1
  C  1081  1  0.87291800  0.02221100  0.38029000  1
  C  1082  1  0.84455500  0.00954200  0.39457700  1
  C  1083  1  0.84492100  0.98443800  0.39483600  1
  C  1087  1  0.96031100  0.93791600  0.33388700  1
  C  1091  1  0.96008900  0.05680000  0.33416900  1
  C  1095  1  0.39770300  0.55938100  0.61766000  1
  C  1096  1  0.42888500  0.54604300  0.62948900  1
  C  1098  1  0.40374300  0.50962000  0.61214800  1
  C  1099  1  0.37357000  0.52226800  0.59891400  1
  C  1100  1  0.37118200  0.54723700  0.60170800  1
  C  1102  1  0.40354600  0.48443200  0.61228600  1
  C  1103  1  0.39667200  0.43479500  0.61840900  1
  C  1105  1  0.42839900  0.44803700  0.62982800  1
  C  1106  1  0.37009600  0.44690900  0.60247500  1
  C  1107  1  0.37297000  0.47181900  0.59932800  1
  C  1108  1  0.34456000  0.48449100  0.58507500  1
  C  1109  1  0.34490800  0.50959300  0.58483400  1
  C  1113  1  0.46043300  0.55611000  0.64570600  1
  C  1117  1  0.46019300  0.43721800  0.64540400  1
  N  291  1  0.72131500  0.26644200  0.38538500  1
  N  298  1  0.77236900  0.22699300  0.38537600  1
  N  317  1  0.22120600  0.22761700  0.59427300  1
  N  324  1  0.27229800  0.26704900  0.59426800  1
  N  343  1  0.97104900  0.85215100  0.00914600  1
  N  350  1  0.02242200  0.85216200  0.96978900  1
  N  369  1  0.47108300  0.64186400  0.97053900  1
  N  376  1  0.52243500  0.64186800  0.00990500  1
  N  395  1  0.27292500  0.72768500  0.59501500  1
  N  402  1  0.22157300  0.76705600  0.59502900  1
  N  421  1  0.77297500  0.76634300  0.38469900  1
  N  428  1  0.72166900  0.72695600  0.38469200  1
  N  447  1  0.02281500  0.14271500  0.97047800  1
  N  454  1  0.97172600  0.14271700  0.00985300  1
  N  473  1  0.52280100  0.35134400  0.00917800  1
  N  480  1  0.47174100  0.35133500  0.96979000  1
  N  499  1  0.22134900  0.76637700  0.88641100  1
  N  506  1  0.27223700  0.72700700  0.88641400  1
  N  525  1  0.72130000  0.72766800  0.09331000  1
  N  532  1  0.77219300  0.76703800  0.09329800  1
  N  551  1  0.47114100  0.35129700  0.50914600  1
  N  558  1  0.52241000  0.35131200  0.46983900  1
  N  577  1  0.97108900  0.14268200  0.47053000  1
  N  584  1  0.02234100  0.14268400  0.50984500  1
  N  603  1  0.77278100  0.22771200  0.09389800  1
  N  610  1  0.72177400  0.26707800  0.09391200  1
  N  629  1  0.27282900  0.26633500  0.88574400  1
  N  636  1  0.22181300  0.22697400  0.88574600  1
  N  655  1  0.52268700  0.64362600  0.47044300  1
  N  662  1  0.47178100  0.64362900  0.50980700  1
  N  681  1  0.02272000  0.85044800  0.50921100  1
  N  688  1  0.97182800  0.85044500  0.46984100  1
  N  707  1  0.81610200  0.10966300  0.21506300  1
  N  714  1  0.81676900  0.10964200  0.26497500  1
  N  733  1  0.31617500  0.38439200  0.76456400  1
  N  740  1  0.31686100  0.38444200  0.71465200  1
  N  759  1  0.06830800  0.02169300  0.85155100  1
  N  766  1  0.06985400  0.97180800  0.85141300  1
  N  785  1  0.56820800  0.47233900  0.12814300  1
  N  792  1  0.56974600  0.52222400  0.12825800  1
  N  811  1  0.67713600  0.38446200  0.21485000  1
  N  818  1  0.67799800  0.38444600  0.26476600  1
  N  837  1  0.17714900  0.10959500  0.76483000  1
  N  844  1  0.17797200  0.10960100  0.71491800  1
  N  863  1  0.42496200  0.47208700  0.85155400  1
  N  870  1  0.42494400  0.52198100  0.85149200  1
  N  889  1  0.92500200  0.02196900  0.12811100  1
  N  896  1  0.92502100  0.97207400  0.12816300  1
  N  915  1  0.17904000  0.88404900  0.76424200  1
  N  922  1  0.17579200  0.88483300  0.71437700  1
  N  941  1  0.67901300  0.60992600  0.21544900  1
  N  948  1  0.67578800  0.60914600  0.26531600  1
  N  967  1  0.31588300  0.60999300  0.76447600  1
  N  974  1  0.31763700  0.60925200  0.71458800  1
  N  993  1  0.81584600  0.88411100  0.21517900  1
  N  1000  1  0.81752900  0.88480600  0.26507100  1
  N  1019  1  0.56323800  0.52175700  0.35324100  1
  N  1026  1  0.56477100  0.47183100  0.35317000  1
  N  1045  1  0.06326700  0.97228500  0.62641200  1
  N  1052  1  0.06480500  0.02220500  0.62650100  1
  N  1071  1  0.92993200  0.97203800  0.35323600  1
  N  1078  1  0.92987900  0.02196900  0.35317700  1
  N  1097  1  0.43001700  0.52198600  0.62637100  1
  N  1104  1  0.42997100  0.47205500  0.62641000  1
