# generated using pymatgen
data_H28C41(N4O)2
_symmetry_space_group_name_H-M   'P 1'
_cell_length_a   60.48170000
_cell_length_b   60.48170000
_cell_length_c   60.48170000
_cell_angle_alpha   90.00000000
_cell_angle_beta   90.00000000
_cell_angle_gamma   90.00000000
_symmetry_Int_Tables_number   1
_chemical_formula_structural   H28C41(N4O)2
_chemical_formula_sum   'H672 C984 N192 O48'
_cell_volume   221244.23805141
_cell_formula_units_Z   24
loop_
 _symmetry_equiv_pos_site_id
 _symmetry_equiv_pos_as_xyz
  1  'x, y, z'
loop_
 _atom_site_type_symbol
 _atom_site_label
 _atom_site_symmetry_multiplicity
 _atom_site_fract_x
 _atom_site_fract_y
 _atom_site_fract_z
 _atom_site_occupancy
  H  25  1  0.33546200  0.41555200  0.96104000  1
  H  26  1  0.36698200  0.40892200  0.98320100  1
  H  27  1  0.40889700  0.36702500  0.03717500  1
  H  28  1  0.41555200  0.33550100  0.05932800  1
  H  29  1  0.35470000  0.30826800  0.03966100  1
  H  30  1  0.30826300  0.35468700  0.98069900  1
  H  31  1  0.32701300  0.37484000  0.03934900  1
  H  32  1  0.26542600  0.34793000  0.05736000  1
  H  33  1  0.27277200  0.31616600  0.03572900  1
  H  34  1  0.37484500  0.32701300  0.98101800  1
  H  35  1  0.31616800  0.27277500  0.98462100  1
  H  36  1  0.34794500  0.26541900  0.96301300  1
  H  39  1  0.39085200  0.37639300  0.99968400  1
  H  40  1  0.37636000  0.39086800  0.02068500  1
  H  42  1  0.30582100  0.29207200  0.02116200  1
  H  43  1  0.29207300  0.30581600  0.99919600  1
  H  72  1  0.68491600  0.60479400  0.96107400  1
  H  73  1  0.65340100  0.61142300  0.98323600  1
  H  74  1  0.61147700  0.65332300  0.03719800  1
  H  75  1  0.60480600  0.68486100  0.05933200  1
  H  76  1  0.66565000  0.71210700  0.03964800  1
  H  77  1  0.71209800  0.66568000  0.98069800  1
  H  78  1  0.69334800  0.64553200  0.03936000  1
  H  79  1  0.75494500  0.67243600  0.05734900  1
  H  80  1  0.74760100  0.70419100  0.03571000  1
  H  81  1  0.64551400  0.69335600  0.98101700  1
  H  82  1  0.70420100  0.74758400  0.98460800  1
  H  83  1  0.67242600  0.75494200  0.96300000  1
  H  86  1  0.62951900  0.64393500  0.99971300  1
  H  87  1  0.64403600  0.62949400  0.02072100  1
  H  89  1  0.71455600  0.72829100  0.02114500  1
  H  90  1  0.72829100  0.71453300  0.99917900  1
  H  119  1  0.68489600  0.41556700  0.05930000  1
  H  120  1  0.65336600  0.40891700  0.03716000  1
  H  121  1  0.61145900  0.36702300  0.98318300  1
  H  122  1  0.60479200  0.33549000  0.96104500  1
  H  123  1  0.66565500  0.30826000  0.98070400  1
  H  124  1  0.71210300  0.35469500  0.03964900  1
  H  125  1  0.69334300  0.37483700  0.98099900  1
  H  126  1  0.75493500  0.34792800  0.96299300  1
  H  127  1  0.74758900  0.31616800  0.98462900  1
  H  128  1  0.64551400  0.32701400  0.03933200  1
  H  129  1  0.70419600  0.27278200  0.03574500  1
  H  130  1  0.67241800  0.26542600  0.05735100  1
  H  133  1  0.62950400  0.37638800  0.02067600  1
  H  134  1  0.64399300  0.39086300  0.99967200  1
  H  136  1  0.71455300  0.29207500  0.99920200  1
  H  137  1  0.72828400  0.30582900  0.02117300  1
  H  166  1  0.33549100  0.60482200  0.05933700  1
  H  167  1  0.36701000  0.61146700  0.03718000  1
  H  168  1  0.40892000  0.65339100  0.98321400  1
  H  169  1  0.41555400  0.68491100  0.96105500  1
  H  170  1  0.35467600  0.71210100  0.98069800  1
  H  171  1  0.30825700  0.66566700  0.03965500  1
  H  172  1  0.32699800  0.64552400  0.98100800  1
  H  173  1  0.26542100  0.67244800  0.96298200  1
  H  174  1  0.27277300  0.70421300  0.98460800  1
  H  175  1  0.37482700  0.69334600  0.03935100  1
  H  176  1  0.31618100  0.74761200  0.03569400  1
  H  177  1  0.34794100  0.75495300  0.05733200  1
  H  180  1  0.39085800  0.64400800  0.02069100  1
  H  181  1  0.37638800  0.62951700  0.99968700  1
  H  183  1  0.30582800  0.72829900  0.99917300  1
  H  184  1  0.29207300  0.71456800  0.02114300  1
  H  213  1  0.96103600  0.33547800  0.41556000  1
  H  214  1  0.98316900  0.36701300  0.40889900  1
  H  215  1  0.03712900  0.40892800  0.36696900  1
  H  216  1  0.05928900  0.41556200  0.33544800  1
  H  217  1  0.03964700  0.35468400  0.30826000  1
  H  218  1  0.98070600  0.30825000  0.35470200  1
  H  219  1  0.03934800  0.32700800  0.37484000  1
  H  220  1  0.05734200  0.26541100  0.34794000  1
  H  221  1  0.03570900  0.27275700  0.31617800  1
  H  222  1  0.98100800  0.37483700  0.32700800  1
  H  223  1  0.98463100  0.31616500  0.27277000  1
  H  224  1  0.96300500  0.34793000  0.26541900  1
  H  227  1  0.99964100  0.39086000  0.37634800  1
  H  228  1  0.02065600  0.37640600  0.39084200  1
  H  230  1  0.02115700  0.30580500  0.29207800  1
  H  231  1  0.99918400  0.29206800  0.30582300  1
  H  260  1  0.96105900  0.68489900  0.60479100  1
  H  261  1  0.98320100  0.65336700  0.61144100  1
  H  262  1  0.03716600  0.61144400  0.65334900  1
  H  263  1  0.05931100  0.60479200  0.68487800  1
  H  264  1  0.03965500  0.66565200  0.71209600  1
  H  265  1  0.98071400  0.71210300  0.66566500  1
  H  266  1  0.03936800  0.69334600  0.64552500  1
  H  267  1  0.05735400  0.75494500  0.67243100  1
  H  268  1  0.03571300  0.74759600  0.70418800  1
  H  269  1  0.98101800  0.64551500  0.69334000  1
  H  270  1  0.98462400  0.70418800  0.74758300  1
  H  271  1  0.96300600  0.67241600  0.75493200  1
  H  274  1  0.99967500  0.62950700  0.64396800  1
  H  275  1  0.02069300  0.64398100  0.62949700  1
  H  277  1  0.02115600  0.71455000  0.72828300  1
  H  278  1  0.99918400  0.72828400  0.71453100  1
  H  307  1  0.05932000  0.68487900  0.41556300  1
  H  308  1  0.03717800  0.65334900  0.40891400  1
  H  309  1  0.98318300  0.61145100  0.36702000  1
  H  310  1  0.96104200  0.60479400  0.33548800  1
  H  311  1  0.98070300  0.66565700  0.30826700  1
  H  312  1  0.03965400  0.71209300  0.35469700  1
  H  313  1  0.98099500  0.69333300  0.37483200  1
  H  314  1  0.96300800  0.75493700  0.34794000  1
  H  315  1  0.98464300  0.74759100  0.31617800  1
  H  316  1  0.03935500  0.64551700  0.32701900  1
  H  317  1  0.03575500  0.70420100  0.27279000  1
  H  318  1  0.05737000  0.67242800  0.26543400  1
  H  321  1  0.02068800  0.62950200  0.37639000  1
  H  322  1  0.99967200  0.64397500  0.39086300  1
  H  324  1  0.99921100  0.71455500  0.29208300  1
  H  325  1  0.02118200  0.72828600  0.30583600  1
  H  354  1  0.05929400  0.33546300  0.60478400  1
  H  355  1  0.03714500  0.36699300  0.61143400  1
  H  356  1  0.98315800  0.40889400  0.65332300  1
  H  357  1  0.96102900  0.41556200  0.68486100  1
  H  358  1  0.98070900  0.35470900  0.71210100  1
  H  359  1  0.03965600  0.30826500  0.66566400  1
  H  360  1  0.98101200  0.32701800  0.64551900  1
  H  361  1  0.96300300  0.26542700  0.67242600  1
  H  362  1  0.98461900  0.27278300  0.70419800  1
  H  363  1  0.03935500  0.37484400  0.69334500  1
  H  364  1  0.03574200  0.31616600  0.74758100  1
  H  365  1  0.05736000  0.34793800  0.75493700  1
  H  368  1  0.02066100  0.39085000  0.64395000  1
  H  369  1  0.99964900  0.37635700  0.62948900  1
  H  371  1  0.99919400  0.30582800  0.72828600  1
  H  372  1  0.02116100  0.29207800  0.71454600  1
  H  401  1  0.41554500  0.96103400  0.33546500  1
  H  402  1  0.40891500  0.98319600  0.36698300  1
  H  403  1  0.36701700  0.03716600  0.40890400  1
  H  404  1  0.33549300  0.05932000  0.41555700  1
  H  405  1  0.30826500  0.03966300  0.35470000  1
  H  406  1  0.35468200  0.98069800  0.30826300  1
  H  407  1  0.37483400  0.03935300  0.32701400  1
  H  408  1  0.34792300  0.05736700  0.26542900  1
  H  409  1  0.31616200  0.03573400  0.27277300  1
  H  410  1  0.32701100  0.98101700  0.37484400  1
  H  411  1  0.27277200  0.98462100  0.31616600  1
  H  412  1  0.26541700  0.96301100  0.34794100  1
  H  415  1  0.37638300  0.99967700  0.39085200  1
  H  416  1  0.39086300  0.02067900  0.37636600  1
  H  418  1  0.29206800  0.02116400  0.30582100  1
  H  419  1  0.30581300  0.99919900  0.29207200  1
  H  448  1  0.60479400  0.96107200  0.68491300  1
  H  449  1  0.61142300  0.98323600  0.65339700  1
  H  450  1  0.65332300  0.03719600  0.61147100  1
  H  451  1  0.68486300  0.05932700  0.60479600  1
  H  452  1  0.71210700  0.03965000  0.66564600  1
  H  453  1  0.66568000  0.98069900  0.71209300  1
  H  454  1  0.64552900  0.03935600  0.69334100  1
  H  455  1  0.67242900  0.05735200  0.75493900  1
  H  456  1  0.70418900  0.03571600  0.74759400  1
  H  457  1  0.69335500  0.98102200  0.64551100  1
  H  458  1  0.74758300  0.98461000  0.70419900  1
  H  459  1  0.75494000  0.96300500  0.67242100  1
  H  462  1  0.64393300  0.99971300  0.62951600  1
  H  463  1  0.62949400  0.02072200  0.64403100  1
  H  465  1  0.72829100  0.02114900  0.71455100  1
  H  466  1  0.71453100  0.99918400  0.72828900  1
  H  495  1  0.41556300  0.05929800  0.68489100  1
  H  496  1  0.40891000  0.03716000  0.65335900  1
  H  497  1  0.36701300  0.98318300  0.61145600  1
  H  498  1  0.33548000  0.96104400  0.60479200  1
  H  499  1  0.30825300  0.98070800  0.66565500  1
  H  500  1  0.35469200  0.03965100  0.71210100  1
  H  501  1  0.37483200  0.98100700  0.69334000  1
  H  502  1  0.34792600  0.96299500  0.75493000  1
  H  503  1  0.31616300  0.98462600  0.74758600  1
  H  504  1  0.32700600  0.03934000  0.64551400  1
  H  505  1  0.27277300  0.03574300  0.70419600  1
  H  506  1  0.26541600  0.05735400  0.67242100  1
  H  509  1  0.37637800  0.02067900  0.62949900  1
  H  510  1  0.39085400  0.99967500  0.64398800  1
  H  512  1  0.29206800  0.99920200  0.71455000  1
  H  513  1  0.30582100  0.02117100  0.72828400  1
  H  542  1  0.60482100  0.05933800  0.33549100  1
  H  543  1  0.61146900  0.03718700  0.36701500  1
  H  544  1  0.65339200  0.98321900  0.40892300  1
  H  545  1  0.68490900  0.96105900  0.41555700  1
  H  546  1  0.71210400  0.98070600  0.35468100  1
  H  547  1  0.66566500  0.03965800  0.30825800  1
  H  548  1  0.64552200  0.98102500  0.32700800  1
  H  549  1  0.67243800  0.96299300  0.26542900  1
  H  550  1  0.70420800  0.98461500  0.27278000  1
  H  551  1  0.69335500  0.03936600  0.37483200  1
  H  552  1  0.74761700  0.03569600  0.31618500  1
  H  553  1  0.75496200  0.05733700  0.34794000  1
  H  556  1  0.64400900  0.02069900  0.39086500  1
  H  557  1  0.62951900  0.99969500  0.37639100  1
  H  559  1  0.72829900  0.99917600  0.30583100  1
  H  560  1  0.71456900  0.02115000  0.29207800  1
  H  589  1  0.83899200  0.91304100  0.45650300  1
  H  590  1  0.86950500  0.90730500  0.48027200  1
  H  591  1  0.90733500  0.86947200  0.54005900  1
  H  592  1  0.91305900  0.83896600  0.56384000  1
  H  593  1  0.85490800  0.80904700  0.54018500  1
  H  594  1  0.80905900  0.85490300  0.48016600  1
  H  595  1  0.82711700  0.87558300  0.53881200  1
  H  596  1  0.76649100  0.84766900  0.55849700  1
  H  597  1  0.77375400  0.81604500  0.53662800  1
  H  598  1  0.87562300  0.82707100  0.48159500  1
  H  599  1  0.81602000  0.77377700  0.48367200  1
  H  600  1  0.84766900  0.76648100  0.46185200  1
  H  603  1  0.89171700  0.87642300  0.50022400  1
  H  604  1  0.87646900  0.89169400  0.52010200  1
  H  606  1  0.80635100  0.79241100  0.52099500  1
  H  607  1  0.79240100  0.80639200  0.49930400  1
  H  636  1  0.18136500  0.10732300  0.45649100  1
  H  637  1  0.15086300  0.11304200  0.48028000  1
  H  638  1  0.11304500  0.15085500  0.54008400  1
  H  639  1  0.10731900  0.18136100  0.56386600  1
  H  640  1  0.16545700  0.21129400  0.54020100  1
  H  641  1  0.21130000  0.16545700  0.48016600  1
  H  642  1  0.19327800  0.14474100  0.53877600  1
  H  643  1  0.25388300  0.17268000  0.55849700  1
  H  644  1  0.24659200  0.20432600  0.53667100  1
  H  645  1  0.14477500  0.19323800  0.48155000  1
  H  646  1  0.20431500  0.24660000  0.48372500  1
  H  647  1  0.17268700  0.25386500  0.46186300  1
  H  650  1  0.12865200  0.14390700  0.50024700  1
  H  651  1  0.14391600  0.12864500  0.52012100  1
  H  653  1  0.21398000  0.22795000  0.52105100  1
  H  654  1  0.22794500  0.21400000  0.49935200  1
  H  683  1  0.18136400  0.91302900  0.56387400  1
  H  684  1  0.15086100  0.90731000  0.54008700  1
  H  685  1  0.11305000  0.86950400  0.48027200  1
  H  686  1  0.10733200  0.83900700  0.45647700  1
  H  687  1  0.16546000  0.80906200  0.48015500  1
  H  688  1  0.21129200  0.85489100  0.54020300  1
  H  689  1  0.19323700  0.87557500  0.48154000  1
  H  690  1  0.25386800  0.84766400  0.46186000  1
  H  691  1  0.24660700  0.81604300  0.48373300  1
  H  692  1  0.14473900  0.82707900  0.53876800  1
  H  693  1  0.20434400  0.77378600  0.53670700  1
  H  694  1  0.17268700  0.76648800  0.55851600  1
  H  697  1  0.12865000  0.87644300  0.52011700  1
  H  698  1  0.14391300  0.89170900  0.50024700  1
  H  700  1  0.21401300  0.79241400  0.49936900  1
  H  701  1  0.22795800  0.80639000  0.52106500  1
  H  730  1  0.83898500  0.10731600  0.56386100  1
  H  731  1  0.86948900  0.11303400  0.54007000  1
  H  732  1  0.90730400  0.15084800  0.48026700  1
  H  733  1  0.91302800  0.18135200  0.45648000  1
  H  734  1  0.85490100  0.21129500  0.48016100  1
  H  735  1  0.80906400  0.16546200  0.54020300  1
  H  736  1  0.82708800  0.14474200  0.48160200  1
  H  737  1  0.76649200  0.17268400  0.46185700  1
  H  738  1  0.77378400  0.20433800  0.48367500  1
  H  739  1  0.87561500  0.19327700  0.53877600  1
  H  740  1  0.81602300  0.24658400  0.53668100  1
  H  741  1  0.84767200  0.25387800  0.55850100  1
  H  744  1  0.89170500  0.14389900  0.52010600  1
  H  745  1  0.87643100  0.12864300  0.50023700  1
  H  747  1  0.80637700  0.22795300  0.49933400  1
  H  748  1  0.79240600  0.21399000  0.52102200  1
  H  777  1  0.45649800  0.83898700  0.91304100  1
  H  778  1  0.48027200  0.86949900  0.90731400  1
  H  779  1  0.54006700  0.90732200  0.86949700  1
  H  780  1  0.56385600  0.91304700  0.83899400  1
  H  781  1  0.54020800  0.85489900  0.80906900  1
  H  782  1  0.48017500  0.80905400  0.85490900  1
  H  783  1  0.53876800  0.82708400  0.87562100  1
  H  784  1  0.55851600  0.76649200  0.84767600  1
  H  785  1  0.53669600  0.77378200  0.81602500  1
  H  786  1  0.48154500  0.87558300  0.82711700  1
  H  787  1  0.48371800  0.81603600  0.77376200  1
  H  788  1  0.46185800  0.84766600  0.76649200  1
  H  791  1  0.50023500  0.89171000  0.87644100  1
  H  792  1  0.52010600  0.87645300  0.89171000  1
  H  794  1  0.52105800  0.80639500  0.79240300  1
  H  795  1  0.49937100  0.79241100  0.80635100  1
  H  824  1  0.45649800  0.18137400  0.10731700  1
  H  825  1  0.48028400  0.15087100  0.11303900  1
  H  826  1  0.54007500  0.11304600  0.15085800  1
  H  827  1  0.56386300  0.10732100  0.18136100  1
  H  828  1  0.54019400  0.16545700  0.21129800  1
  H  829  1  0.48016000  0.21130000  0.16546000  1
  H  830  1  0.53880700  0.19324800  0.14477100  1
  H  831  1  0.55849400  0.25387700  0.17268500  1
  H  832  1  0.53663300  0.24661000  0.20431100  1
  H  833  1  0.48155200  0.14476800  0.19325200  1
  H  834  1  0.48368800  0.20433400  0.24658800  1
  H  835  1  0.46184500  0.17269500  0.25386700  1
  H  838  1  0.50024500  0.12865400  0.14390300  1
  H  839  1  0.52011700  0.14392600  0.12864900  1
  H  841  1  0.52101000  0.21400700  0.22794800  1
  H  842  1  0.49931600  0.22795800  0.21397700  1
  H  871  1  0.56386300  0.18137000  0.91303900  1
  H  872  1  0.54008000  0.15086600  0.90731500  1
  H  873  1  0.48028200  0.11304700  0.86950200  1
  H  874  1  0.45649000  0.10732400  0.83900400  1
  H  875  1  0.48016100  0.16545700  0.80906100  1
  H  876  1  0.54019600  0.21130200  0.85490100  1
  H  877  1  0.48155400  0.19324800  0.87558800  1
  H  878  1  0.46186700  0.25387700  0.84767600  1
  H  879  1  0.48372800  0.24661000  0.81604800  1
  H  880  1  0.53879900  0.14476300  0.82710400  1
  H  881  1  0.53666600  0.20432800  0.77376600  1
  H  882  1  0.55850700  0.17268800  0.76648800  1
  H  885  1  0.52011700  0.12864900  0.87644500  1
  H  886  1  0.50025000  0.14391800  0.89170900  1
  H  888  1  0.49934400  0.21401000  0.79241100  1
  H  889  1  0.52104800  0.22795100  0.80637900  1
  H  918  1  0.56386900  0.83899900  0.10732400  1
  H  919  1  0.54009400  0.86950900  0.11305300  1
  H  920  1  0.48030000  0.90733300  0.15087600  1
  H  921  1  0.45651600  0.91305700  0.18138000  1
  H  922  1  0.48016500  0.85490100  0.21129700  1
  H  923  1  0.54019400  0.80906100  0.16545500  1
  H  924  1  0.48155200  0.82711200  0.14476600  1
  H  925  1  0.46183200  0.76650400  0.17270200  1
  H  926  1  0.48368300  0.77377700  0.20433300  1
  H  927  1  0.53881600  0.87558800  0.19324200  1
  H  928  1  0.53662000  0.81606100  0.24661500  1
  H  929  1  0.55848600  0.84768400  0.25388000  1
  H  932  1  0.52013100  0.89171700  0.14392700  1
  H  933  1  0.50025700  0.87646300  0.12865500  1
  H  935  1  0.49930900  0.80639000  0.22795600  1
  H  936  1  0.52100700  0.79241900  0.21401000  1
  H  965  1  0.91303300  0.45648300  0.83900000  1
  H  966  1  0.90730900  0.48026700  0.86950500  1
  H  967  1  0.86948400  0.54006200  0.90732700  1
  H  968  1  0.83897600  0.56384300  0.91305100  1
  H  969  1  0.80905100  0.54018000  0.85490800  1
  H  970  1  0.85489900  0.48015300  0.80906400  1
  H  971  1  0.87558800  0.53880400  0.82711600  1
  H  972  1  0.84767600  0.55848400  0.76648400  1
  H  973  1  0.81605300  0.53661800  0.77374900  1
  H  974  1  0.82707300  0.48159200  0.87562300  1
  H  975  1  0.77377900  0.48366800  0.81602100  1
  H  976  1  0.76648100  0.46185000  0.84767200  1
  H  979  1  0.87643300  0.50022700  0.89171500  1
  H  980  1  0.89170100  0.52010200  0.87646000  1
  H  982  1  0.79241600  0.52098900  0.80634400  1
  H  983  1  0.80639500  0.49929400  0.79240300  1
  H  1012  1  0.10731600  0.45650100  0.18137200  1
  H  1013  1  0.11303700  0.48028700  0.15086900  1
  H  1014  1  0.15085700  0.54008200  0.11304600  1
  H  1015  1  0.18136700  0.56385900  0.10731800  1
  H  1016  1  0.21129800  0.54019400  0.16545500  1
  H  1017  1  0.16545700  0.48016500  0.21130200  1
  H  1018  1  0.14474400  0.53877600  0.19328100  1
  H  1019  1  0.17268500  0.55849700  0.25388500  1
  H  1020  1  0.20432900  0.53666800  0.24659200  1
  H  1021  1  0.19323800  0.48154900  0.14477600  1
  H  1022  1  0.24660000  0.48371800  0.20431600  1
  H  1023  1  0.25386500  0.46185700  0.17268800  1
  H  1026  1  0.14390400  0.50024900  0.12865600  1
  H  1027  1  0.12864600  0.52012400  0.14392000  1
  H  1029  1  0.22795100  0.52104700  0.21397900  1
  H  1030  1  0.21400200  0.49935100  0.22794800  1
  H  1059  1  0.91302900  0.56388400  0.18136100  1
  H  1060  1  0.90731400  0.54009400  0.15085900  1
  H  1061  1  0.86951000  0.48027700  0.11304800  1
  H  1062  1  0.83901200  0.45648500  0.10732700  1
  H  1063  1  0.80906700  0.48016000  0.16545500  1
  H  1064  1  0.85489100  0.54020900  0.21128900  1
  H  1065  1  0.87558000  0.48154500  0.19323200  1
  H  1066  1  0.84767200  0.46187000  0.25386800  1
  H  1067  1  0.81605100  0.48374300  0.24660700  1
  H  1068  1  0.82708300  0.53877400  0.14473600  1
  H  1069  1  0.77378900  0.53671100  0.20434100  1
  H  1070  1  0.76649100  0.55852100  0.17268400  1
  H  1073  1  0.87645000  0.52012200  0.12864800  1
  H  1074  1  0.89171400  0.50025200  0.14391200  1
  H  1076  1  0.79241900  0.49937700  0.21402000  1
  H  1077  1  0.80640000  0.52107600  0.22795300  1
  H  1106  1  0.10731500  0.56385900  0.83898900  1
  H  1107  1  0.11303200  0.54006500  0.86949100  1
  H  1108  1  0.15084200  0.48025700  0.90730000  1
  H  1109  1  0.18134600  0.45647000  0.91302400  1
  H  1110  1  0.21129400  0.48015600  0.85490300  1
  H  1111  1  0.16546200  0.54020100  0.80906600  1
  H  1112  1  0.14474300  0.48159800  0.82708400  1
  H  1113  1  0.17268800  0.46185800  0.76648900  1
  H  1114  1  0.20434100  0.48367700  0.77378600  1
  H  1115  1  0.19327200  0.53877100  0.87561800  1
  H  1116  1  0.24657900  0.53668400  0.81602600  1
  H  1117  1  0.25387200  0.55850600  0.84767700  1
  H  1120  1  0.14389500  0.52009700  0.89170500  1
  H  1121  1  0.12863900  0.50023000  0.87642800  1
  H  1123  1  0.22795500  0.49933300  0.80638200  1
  H  1124  1  0.21399400  0.52102000  0.79240900  1
  H  1135  1  0.42763200  0.29752800  0.91239800  1
  H  1138  1  0.40858000  0.21537600  0.95462500  1
  H  1139  1  0.43535600  0.20891100  0.94533800  1
  H  1140  1  0.39523200  0.20542600  0.92038200  1
  H  1142  1  0.45156900  0.21264100  0.90730200  1
  H  1144  1  0.40423900  0.30844200  0.94663300  1
  H  1151  1  0.59267300  0.72283500  0.91242900  1
  H  1154  1  0.61174500  0.80497500  0.95465200  1
  H  1155  1  0.58499300  0.81145800  0.94531200  1
  H  1156  1  0.62517400  0.81493900  0.92044500  1
  H  1158  1  0.56928100  0.80790500  0.90697600  1
  H  1160  1  0.61613100  0.71192900  0.94661000  1
  H  1167  1  0.59272900  0.29752900  0.10796400  1
  H  1170  1  0.61177500  0.21537900  0.06573000  1
  H  1171  1  0.58500000  0.20891400  0.07501900  1
  H  1172  1  0.62512600  0.20542700  0.09997100  1
  H  1174  1  0.56879300  0.21264100  0.11305900  1
  H  1176  1  0.61612100  0.30844400  0.07373300  1
  H  1183  1  0.42761800  0.72283600  0.10796500  1
  H  1186  1  0.40858600  0.80498800  0.06572500  1
  H  1187  1  0.43536300  0.81144800  0.07501400  1
  H  1188  1  0.39523500  0.81494200  0.09996600  1
  H  1190  1  0.45157600  0.80771800  0.11304900  1
  H  1192  1  0.40422000  0.71192100  0.07374200  1
  H  1199  1  0.91238100  0.42760800  0.29751800  1
  H  1202  1  0.95463400  0.40858300  0.21537100  1
  H  1203  1  0.94535100  0.43536300  0.20891300  1
  H  1204  1  0.92038900  0.39524300  0.20541200  1
  H  1206  1  0.90736500  0.45164900  0.21266900  1
  H  1208  1  0.94661500  0.40422300  0.30843900  1
  H  1215  1  0.91240400  0.59271600  0.72283000  1
  H  1218  1  0.95462400  0.61178000  0.80498200  1
  H  1219  1  0.94534000  0.58500300  0.81144800  1
  H  1220  1  0.92037900  0.62512600  0.81492900  1
  H  1222  1  0.90730400  0.56878700  0.80771800  1
  H  1224  1  0.94665300  0.61609700  0.71191900  1
  H  1231  1  0.10795100  0.59268600  0.29753300  1
  H  1234  1  0.06570500  0.61174500  0.21540400  1
  H  1235  1  0.07503600  0.58498800  0.20892100  1
  H  1236  1  0.09991200  0.62516200  0.20542700  1
  H  1238  1  0.11332300  0.56923600  0.21249400  1
  H  1240  1  0.07376000  0.61613300  0.30844500  1
  H  1247  1  0.10795100  0.42767600  0.72283300  1
  H  1250  1  0.06571400  0.40861400  0.80496700  1
  H  1251  1  0.07504800  0.43536900  0.81144800  1
  H  1252  1  0.09992100  0.39519200  0.81493900  1
  H  1254  1  0.11336200  0.45111800  0.80788800  1
  H  1256  1  0.07376300  0.40422800  0.71192200  1
  H  1263  1  0.29752100  0.91238000  0.42761000  1
  H  1266  1  0.21537200  0.95462900  0.40858300  1
  H  1267  1  0.20891400  0.94534500  0.43536100  1
  H  1268  1  0.20541600  0.92038400  0.39524200  1
  H  1270  1  0.21267200  0.90735800  0.45164500  1
  H  1272  1  0.30843900  0.94663100  0.40423600  1
  H  1279  1  0.72283600  0.91239800  0.59272900  1
  H  1282  1  0.80499000  0.95462500  0.61177600  1
  H  1283  1  0.81145300  0.94533700  0.58500100  1
  H  1284  1  0.81493900  0.92038400  0.62512800  1
  H  1286  1  0.80772300  0.90730000  0.56879000  1
  H  1288  1  0.71192400  0.94663800  0.61612000  1
  H  1295  1  0.29752600  0.10794300  0.59268800  1
  H  1298  1  0.21539400  0.06569500  0.61173500  1
  H  1299  1  0.20891400  0.07503000  0.58498000  1
  H  1300  1  0.20541900  0.09990100  0.62515700  1
  H  1302  1  0.21248900  0.11331900  0.56923300  1
  H  1304  1  0.30843700  0.07375800  0.61613600  1
  H  1311  1  0.72284100  0.10794100  0.42767500  1
  H  1314  1  0.80498000  0.06570600  0.40862300  1
  H  1315  1  0.81145800  0.07504200  0.43537800  1
  H  1316  1  0.81494800  0.09991300  0.39520000  1
  H  1318  1  0.80789300  0.11335500  0.45112800  1
  H  1320  1  0.71193200  0.07377100  0.40421000  1
  H  1327  1  0.29752100  0.42762000  0.10796800  1
  H  1330  1  0.21537100  0.40857600  0.06573100  1
  H  1331  1  0.20890900  0.43535600  0.07501000  1
  H  1332  1  0.20541900  0.39524000  0.09997900  1
  H  1334  1  0.21266700  0.45164200  0.11299700  1
  H  1336  1  0.30844000  0.40423300  0.07373000  1
  H  1343  1  0.72283500  0.59269100  0.10793800  1
  H  1346  1  0.80497400  0.61175300  0.06570700  1
  H  1347  1  0.81145200  0.58499600  0.07503900  1
  H  1348  1  0.81494200  0.62517100  0.09991700  1
  H  1350  1  0.80788700  0.56923800  0.11334800  1
  H  1352  1  0.71192600  0.61615100  0.07375900  1
  H  1359  1  0.29752100  0.59269100  0.91241900  1
  H  1362  1  0.21538200  0.61174800  0.95465200  1
  H  1363  1  0.20890300  0.58499100  0.94531800  1
  H  1364  1  0.20541400  0.62516700  0.92044300  1
  H  1366  1  0.21247100  0.56923300  0.90700900  1
  H  1368  1  0.30842900  0.61614800  0.94659800  1
  H  1375  1  0.72282600  0.42767800  0.91241600  1
  H  1378  1  0.80496000  0.40861800  0.95465700  1
  H  1379  1  0.81144000  0.43537400  0.94532800  1
  H  1380  1  0.81493400  0.39520200  0.92044800  1
  H  1382  1  0.80786500  0.45113000  0.90704200  1
  H  1384  1  0.71191600  0.40421800  0.94659600  1
  H  1391  1  0.42761800  0.91238600  0.72283300  1
  H  1394  1  0.40857000  0.95462000  0.80498200  1
  H  1395  1  0.43534800  0.94533800  0.81144500  1
  H  1396  1  0.39523000  0.92037500  0.81493500  1
  H  1398  1  0.45160600  0.90732800  0.80770200  1
  H  1400  1  0.40422900  0.94662100  0.71191400  1
  H  1407  1  0.59273100  0.91240800  0.29752500  1
  H  1410  1  0.61178600  0.95462900  0.21537100  1
  H  1411  1  0.58501000  0.94534200  0.20890600  1
  H  1412  1  0.62513400  0.92038500  0.20542600  1
  H  1414  1  0.56880000  0.90730400  0.21263600  1
  H  1416  1  0.61613000  0.94663300  0.30843900  1
  H  1423  1  0.59273800  0.10796300  0.72283000  1
  H  1426  1  0.61178500  0.06573400  0.80498300  1
  H  1427  1  0.58500500  0.07501400  0.81144300  1
  H  1428  1  0.62512300  0.09998100  0.81493400  1
  H  1430  1  0.56875300  0.11302900  0.80770000  1
  H  1432  1  0.61613500  0.07373200  0.71191400  1
  H  1439  1  0.42762000  0.10796700  0.29752900  1
  H  1442  1  0.40857300  0.06573700  0.21537600  1
  H  1443  1  0.43535100  0.07501800  0.20891400  1
  H  1444  1  0.39523300  0.09998400  0.20542600  1
  H  1446  1  0.45160600  0.11303200  0.21265900  1
  H  1448  1  0.40422800  0.07373300  0.30844400  1
  H  1455  1  0.91241300  0.29753300  0.59268800  1
  H  1458  1  0.95464700  0.21539700  0.61175000  1
  H  1459  1  0.94531200  0.20891600  0.58499500  1
  H  1460  1  0.92044000  0.20542700  0.62517200  1
  H  1462  1  0.90700300  0.21247900  0.56924100  1
  H  1464  1  0.94660000  0.30844400  0.61613800  1
  H  1471  1  0.91240900  0.72282500  0.42767800  1
  H  1474  1  0.95465500  0.80495500  0.40861900  1
  H  1475  1  0.94532700  0.81143500  0.43537800  1
  H  1476  1  0.92044600  0.81493200  0.39520500  1
  H  1478  1  0.90704100  0.80786400  0.45113100  1
  H  1480  1  0.94661000  0.71191700  0.40423800  1
  H  1487  1  0.10796900  0.29751800  0.42761700  1
  H  1490  1  0.06572500  0.21536900  0.40858800  1
  H  1491  1  0.07500700  0.20890900  0.43536800  1
  H  1492  1  0.09997000  0.20541400  0.39524800  1
  H  1494  1  0.11299500  0.21266700  0.45164900  1
  H  1496  1  0.07373700  0.30843700  0.40422900  1
  H  1503  1  0.10795000  0.72283300  0.59269300  1
  H  1506  1  0.06570400  0.80496900  0.61174200  1
  H  1507  1  0.07503900  0.81144700  0.58498600  1
  H  1508  1  0.09991100  0.81494200  0.62516400  1
  H  1510  1  0.11335200  0.80788500  0.56923500  1
  H  1512  1  0.07377900  0.71192100  0.61615300  1
  H  1519  1  0.59547200  0.72582100  0.11975300  1
  H  1522  1  0.61120800  0.79534400  0.05788600  1
  H  1523  1  0.58383900  0.80216400  0.06488000  1
  H  1524  1  0.62290000  0.81454000  0.08865100  1
  H  1526  1  0.56126000  0.80035400  0.09838000  1
  H  1528  1  0.61731400  0.70755200  0.09094400  1
  H  1535  1  0.42489400  0.29454500  0.11975800  1
  H  1538  1  0.40915700  0.22502500  0.05788800  1
  H  1539  1  0.43652300  0.21820100  0.06488300  1
  H  1540  1  0.39746000  0.20582900  0.08865100  1
  H  1542  1  0.45910400  0.22001000  0.09838400  1
  H  1544  1  0.40303100  0.31281700  0.09095600  1
  H  1551  1  0.42488000  0.72582200  0.90059900  1
  H  1554  1  0.40917100  0.79533900  0.96248100  1
  H  1555  1  0.43654000  0.80215500  0.95548500  1
  H  1556  1  0.39748000  0.81454000  0.93171800  1
  H  1558  1  0.45911900  0.80034600  0.92198100  1
  H  1560  1  0.40298800  0.70756600  0.92937800  1
  H  1567  1  0.59546200  0.29454800  0.90060900  1
  H  1570  1  0.61120800  0.22501700  0.96246400  1
  H  1571  1  0.58383900  0.21819500  0.95547000  1
  H  1572  1  0.62290000  0.20582700  0.93169400  1
  H  1574  1  0.56125700  0.22000700  0.92197200  1
  H  1576  1  0.61730700  0.31281300  0.92941800  1
  H  1583  1  0.11975200  0.59545900  0.72581200  1
  H  1586  1  0.05790100  0.61119900  0.79534900  1
  H  1587  1  0.06489500  0.58383100  0.80216800  1
  H  1588  1  0.08867000  0.62289000  0.81453800  1
  H  1590  1  0.09839000  0.56124900  0.80034700  1
  H  1592  1  0.09094900  0.61732500  0.70754900  1
  H  1599  1  0.11975100  0.42488700  0.29454500  1
  H  1602  1  0.05788700  0.40917000  0.22501300  1
  H  1603  1  0.06488300  0.43653800  0.21819800  1
  H  1604  1  0.08865300  0.39748000  0.20581900  1
  H  1606  1  0.09838400  0.45911900  0.22001800  1
  H  1608  1  0.09096200  0.40300900  0.31279400  1
  H  1615  1  0.90060700  0.42488900  0.72581900  1
  H  1618  1  0.96246700  0.40914500  0.79534600  1
  H  1619  1  0.95547200  0.43651000  0.80216900  1
  H  1620  1  0.93170100  0.39744900  0.81453800  1
  H  1622  1  0.92197200  0.45908900  0.80036100  1
  H  1624  1  0.92942300  0.40304200  0.70754600  1
  H  1631  1  0.90060700  0.59547200  0.29454500  1
  H  1634  1  0.96244900  0.61122100  0.22500300  1
  H  1635  1  0.95545500  0.58385200  0.21818300  1
  H  1636  1  0.93168000  0.62291200  0.20581600  1
  H  1638  1  0.92196400  0.56127000  0.22000500  1
  H  1640  1  0.92942600  0.61731200  0.31281300  1
  H  1647  1  0.72580600  0.11974800  0.59545600  1
  H  1650  1  0.79534900  0.05790500  0.61120400  1
  H  1651  1  0.80216800  0.06489700  0.58383600  1
  H  1652  1  0.81453300  0.08867800  0.62289400  1
  H  1654  1  0.80034400  0.09839000  0.56124900  1
  H  1656  1  0.70754700  0.09094200  0.61730900  1
  H  1663  1  0.29454300  0.11975500  0.42489800  1
  H  1666  1  0.22501800  0.05789300  0.40915300  1
  H  1667  1  0.21819600  0.06488600  0.43652000  1
  H  1668  1  0.20582600  0.08865800  0.39746000  1
  H  1670  1  0.22000700  0.09838600  0.45910100  1
  H  1672  1  0.31281500  0.09095300  0.40303400  1
  H  1679  1  0.72582100  0.90060400  0.42488400  1
  H  1682  1  0.79534300  0.96248100  0.40917300  1
  H  1683  1  0.80215600  0.95548500  0.43654200  1
  H  1684  1  0.81454200  0.93171800  0.39748400  1
  H  1686  1  0.80034600  0.92198200  0.45911900  1
  H  1688  1  0.70756600  0.92938300  0.40299100  1
  H  1695  1  0.29454700  0.90060700  0.59546600  1
  H  1698  1  0.22500300  0.96244900  0.61121100  1
  H  1699  1  0.21818500  0.95545700  0.58384400  1
  H  1700  1  0.20581900  0.93167800  0.62290000  1
  H  1702  1  0.22000700  0.92196600  0.56125900  1
  H  1704  1  0.31280500  0.92941600  0.61731400  1
  H  1711  1  0.72581600  0.59547600  0.90060600  1
  H  1714  1  0.79534600  0.61117000  0.96247600  1
  H  1715  1  0.80215300  0.58379900  0.95548000  1
  H  1716  1  0.81454700  0.62285400  0.93171100  1
  H  1718  1  0.80032900  0.56122200  0.92197900  1
  H  1720  1  0.70756200  0.61737500  0.92939100  1
  H  1727  1  0.29452900  0.42488500  0.90059600  1
  H  1730  1  0.22501300  0.40915200  0.96247400  1
  H  1731  1  0.21819000  0.43651700  0.95547800  1
  H  1732  1  0.20581700  0.39745400  0.93171300  1
  H  1734  1  0.21998400  0.45908600  0.92197200  1
  H  1736  1  0.31279700  0.40299400  0.92938100  1
  H  1743  1  0.72582700  0.42489400  0.11974400  1
  H  1746  1  0.79535600  0.40914000  0.05788900  1
  H  1747  1  0.80218300  0.43650700  0.06488400  1
  H  1748  1  0.81454300  0.39744200  0.08865700  1
  H  1750  1  0.80037400  0.45908700  0.09838300  1
  H  1752  1  0.70755900  0.40302200  0.09094400  1
  H  1759  1  0.29454200  0.59546600  0.11976200  1
  H  1762  1  0.22502300  0.61119900  0.05788800  1
  H  1763  1  0.21820300  0.58383200  0.06488100  1
  H  1764  1  0.20582600  0.62289200  0.08865100  1
  H  1766  1  0.22001000  0.56125000  0.09838200  1
  H  1768  1  0.31280700  0.61736200  0.09098000  1
  H  1775  1  0.59546100  0.11976200  0.29454000  1
  H  1778  1  0.61120600  0.05789000  0.22502300  1
  H  1779  1  0.58383700  0.06488000  0.21820000  1
  H  1780  1  0.62289700  0.08865400  0.20582700  1
  H  1782  1  0.56125900  0.09838200  0.22000000  1
  H  1784  1  0.61736000  0.09098300  0.31280700  1
  H  1791  1  0.42489700  0.11974100  0.72582100  1
  H  1794  1  0.40914800  0.05788800  0.79535400  1
  H  1795  1  0.43651500  0.06488300  0.80217800  1
  H  1796  1  0.39745200  0.08865700  0.81454000  1
  H  1798  1  0.45909100  0.09838400  0.80037000  1
  H  1800  1  0.40302100  0.09094200  0.70755600  1
  H  1807  1  0.42487900  0.90059600  0.29454000  1
  H  1810  1  0.40918000  0.96247200  0.22501500  1
  H  1811  1  0.43655000  0.95547800  0.21820800  1
  H  1812  1  0.39749500  0.93170900  0.20581300  1
  H  1814  1  0.45913000  0.92198100  0.22002800  1
  H  1816  1  0.40297900  0.92937600  0.31279700  1
  H  1823  1  0.59547600  0.90060600  0.72582200  1
  H  1826  1  0.61119800  0.96247600  0.79534600  1
  H  1827  1  0.58382900  0.95547800  0.80216300  1
  H  1828  1  0.62288900  0.93171100  0.81454300  1
  H  1830  1  0.56125000  0.92197700  0.80034700  1
  H  1832  1  0.61737000  0.92939100  0.70755900  1
  H  1839  1  0.11975900  0.72582600  0.42487700  1
  H  1842  1  0.05789500  0.79534700  0.40912800  1
  H  1843  1  0.06488900  0.80217300  0.43649400  1
  H  1844  1  0.08866000  0.81454000  0.39743200  1
  H  1846  1  0.09838800  0.80036900  0.45907200  1
  H  1848  1  0.09094200  0.70755200  0.40304700  1
  H  1855  1  0.11974900  0.29453700  0.59547200  1
  H  1858  1  0.05789500  0.22500300  0.61121800  1
  H  1859  1  0.06488900  0.21818300  0.58385100  1
  H  1860  1  0.08866300  0.20581300  0.62291000  1
  H  1862  1  0.09838500  0.22000400  0.56126200  1
  H  1864  1  0.09092700  0.31280000  0.61729400  1
  H  1871  1  0.90061100  0.72580600  0.59547700  1
  H  1874  1  0.96247100  0.79534400  0.61117800  1
  H  1875  1  0.95547500  0.80215000  0.58380600  1
  H  1876  1  0.93170300  0.81454000  0.62286100  1
  H  1878  1  0.92197900  0.80031800  0.56122200  1
  H  1880  1  0.92940800  0.70755600  0.61735000  1
  H  1887  1  0.90060600  0.29454000  0.42490000  1
  H  1890  1  0.96246600  0.22501300  0.40914800  1
  H  1891  1  0.95547400  0.21818700  0.43651500  1
  H  1892  1  0.93169800  0.20582400  0.39745400  1
  H  1894  1  0.92197200  0.21999200  0.45909400  1
  H  1896  1  0.92940000  0.31280200  0.40302900  1
  C  1  1  0.34317100  0.32073200  0.99528700  1
  C  2  1  0.32637000  0.30434800  0.99618500  1
  C  3  1  0.30434600  0.32637000  0.02417000  1
  C  4  1  0.32073000  0.34317000  0.02507400  1
  C  5  1  0.31593700  0.36209100  0.03876500  1
  C  6  1  0.29562100  0.36445700  0.05061200  1
  C  7  1  0.28027300  0.34705200  0.04921100  1
  C  8  1  0.28461800  0.32825800  0.03649800  1
  C  9  1  0.32826800  0.28461300  0.98386900  1
  C  10  1  0.34706700  0.28026600  0.97116400  1
  C  11  1  0.36448000  0.29560700  0.96978400  1
  C  12  1  0.36209400  0.31594000  0.98159400  1
  C  13  1  0.33983500  0.36131100  0.99482100  1
  C  14  1  0.35666100  0.37766600  0.99547700  1
  C  15  1  0.37765800  0.35667800  0.02488300  1
  C  16  1  0.36131100  0.33984300  0.02553700  1
  C  17  1  0.39691800  0.35506600  0.03795100  1
  C  18  1  0.40074400  0.33652300  0.05119100  1
  C  19  1  0.38522000  0.31914400  0.05251400  1
  C  20  1  0.36567200  0.32113200  0.03951600  1
  C  21  1  0.32113300  0.36565300  0.98082500  1
  C  22  1  0.31913900  0.38519400  0.96782100  1
  C  23  1  0.33650300  0.40073600  0.96915900  1
  C  24  1  0.35505100  0.39691600  0.98239600  1
  C  37  1  0.34124200  0.34124200  0.01017900  1
  C  38  1  0.37610500  0.37612500  0.01018300  1
  C  41  1  0.30645300  0.30645100  0.01017900  1
  C  48  1  0.67719000  0.69963400  0.99528400  1
  C  49  1  0.69399500  0.71601400  0.99617800  1
  C  50  1  0.71601600  0.69399600  0.02416800  1
  C  51  1  0.69962600  0.67720100  0.02508100  1
  C  52  1  0.70442600  0.65828000  0.03877300  1
  C  53  1  0.72474300  0.65591400  0.05061800  1
  C  54  1  0.74009300  0.67331600  0.04921000  1
  C  55  1  0.73574900  0.69210500  0.03648800  1
  C  56  1  0.69210000  0.73574800  0.98385900  1
  C  57  1  0.67330100  0.74009600  0.97115400  1
  C  58  1  0.65588400  0.72475900  0.96977500  1
  C  59  1  0.65826800  0.70442700  0.98159000  1
  C  60  1  0.68052600  0.65905700  0.99482600  1
  C  61  1  0.66370800  0.64269100  0.99549100  1
  C  62  1  0.64270100  0.66368800  0.02488400  1
  C  63  1  0.65904800  0.68052800  0.02553500  1
  C  64  1  0.62344800  0.66529300  0.03796100  1
  C  65  1  0.61961000  0.68384100  0.05119000  1
  C  66  1  0.63511700  0.70123500  0.05248200  1
  C  67  1  0.65468200  0.69924100  0.03951000  1
  C  68  1  0.69923700  0.65470300  0.98084300  1
  C  69  1  0.70122800  0.63516000  0.96784100  1
  C  70  1  0.68386300  0.61962300  0.96916700  1
  C  71  1  0.66532500  0.62343400  0.98242000  1
  C  84  1  0.67911900  0.67912600  0.01018100  1
  C  85  1  0.64427000  0.64422700  0.01020400  1
  C  88  1  0.71391500  0.71390800  0.01016800  1
  C  95  1  0.67718800  0.32073300  0.02507100  1
  C  96  1  0.69398800  0.30434800  0.02416700  1
  C  97  1  0.71601300  0.32637000  0.99618700  1
  C  98  1  0.69962800  0.34317000  0.99527900  1
  C  99  1  0.70442300  0.36208900  0.98158400  1
  C  100  1  0.72473600  0.36445500  0.96973600  1
  C  101  1  0.74008800  0.34705400  0.97114300  1
  C  102  1  0.73575300  0.32827100  0.98387700  1
  C  103  1  0.69208800  0.28461300  0.03648400  1
  C  104  1  0.67329600  0.28027300  0.04920200  1
  C  105  1  0.65588100  0.29561000  0.05057600  1
  C  106  1  0.65826800  0.31594700  0.03876900  1
  C  107  1  0.68052600  0.36131400  0.02553100  1
  C  108  1  0.66369300  0.37766400  0.02488000  1
  C  109  1  0.64269500  0.35667100  0.99547900  1
  C  110  1  0.65904700  0.33984000  0.99482100  1
  C  111  1  0.62343600  0.35506300  0.98240900  1
  C  112  1  0.61960800  0.33652100  0.96916200  1
  C  113  1  0.63511600  0.31912800  0.96788200  1
  C  114  1  0.65468500  0.32112700  0.98084300  1
  C  115  1  0.69923300  0.36565900  0.03952000  1
  C  116  1  0.70123500  0.38522400  0.05248900  1
  C  117  1  0.68386100  0.40075200  0.05117900  1
  C  118  1  0.66530300  0.39691800  0.03795800  1
  C  131  1  0.67911700  0.34124300  0.01017600  1
  C  132  1  0.64424900  0.37612000  0.01017600  1
  C  135  1  0.71391000  0.30645600  0.01018300  1
  C  142  1  0.34316000  0.69962900  0.02507800  1
  C  143  1  0.32637000  0.71602400  0.02415700  1
  C  144  1  0.30434300  0.69400100  0.99617700  1
  C  145  1  0.32072000  0.67719600  0.99528100  1
  C  146  1  0.31592300  0.65827300  0.98159000  1
  C  147  1  0.29561000  0.65591200  0.96973700  1
  C  148  1  0.28026300  0.67331700  0.97113900  1
  C  149  1  0.28460500  0.69210500  0.98386600  1
  C  150  1  0.32826800  0.73576100  0.03647100  1
  C  151  1  0.34705800  0.74010100  0.04919100  1
  C  152  1  0.36445500  0.72474600  0.05060300  1
  C  153  1  0.36208600  0.70442900  0.03876200  1
  C  154  1  0.33982800  0.65905200  0.02553000  1
  C  155  1  0.35666800  0.64270800  0.02488200  1
  C  156  1  0.37765900  0.66370600  0.99548200  1
  C  157  1  0.36129900  0.68052900  0.99481900  1
  C  158  1  0.39691300  0.66532100  0.98240600  1
  C  159  1  0.40073300  0.68386600  0.96916400  1
  C  160  1  0.38519200  0.70123000  0.96783400  1
  C  161  1  0.36564900  0.69923700  0.98083300  1
  C  162  1  0.32112200  0.65469700  0.03951500  1
  C  163  1  0.31914400  0.63516400  0.05253700  1
  C  164  1  0.33651300  0.61963000  0.05120100  1
  C  165  1  0.35504900  0.62344800  0.03794600  1
  C  178  1  0.34123000  0.67912200  0.01017600  1
  C  179  1  0.37611700  0.64426200  0.01018500  1
  C  182  1  0.30645400  0.71392300  0.01016300  1
  C  189  1  0.99527100  0.34316000  0.32073800  1
  C  190  1  0.99618500  0.32636500  0.30434800  1
  C  191  1  0.02416300  0.30434000  0.32637300  1
  C  192  1  0.02507800  0.32073000  0.34316600  1
  C  193  1  0.03876200  0.31593000  0.36209300  1
  C  194  1  0.05060600  0.29561300  0.36446000  1
  C  195  1  0.04920000  0.28026100  0.34706000  1
  C  196  1  0.03647000  0.28459800  0.32827400  1
  C  197  1  0.98388200  0.32826800  0.28460500  1
  C  198  1  0.97114900  0.34705000  0.28026800  1
  C  199  1  0.96974600  0.36445400  0.29561800  1
  C  200  1  0.98158200  0.36208300  0.31593800  1
  C  201  1  0.99482400  0.33982700  0.36131600  1
  C  202  1  0.99547100  0.35666600  0.37765900  1
  C  203  1  0.02485600  0.37767100  0.35665100  1
  C  204  1  0.02552600  0.36130600  0.33983300  1
  C  205  1  0.03791100  0.39693600  0.35502100  1
  C  206  1  0.05118300  0.40073900  0.33649500  1
  C  207  1  0.05251100  0.38519900  0.31913300  1
  C  208  1  0.03951600  0.36565100  0.32112700  1
  C  209  1  0.98085000  0.32111300  0.36567600  1
  C  210  1  0.96786700  0.31912300  0.38523000  1
  C  211  1  0.96917000  0.33650300  0.40075200  1
  C  212  1  0.98241100  0.35504600  0.39692500  1
  C  225  1  0.01017400  0.34123400  0.34124200  1
  C  226  1  0.01015400  0.37612500  0.37609900  1
  C  229  1  0.01017300  0.30644500  0.30645400  1
  C  236  1  0.99528600  0.67719100  0.69961900  1
  C  237  1  0.99619000  0.69398600  0.71600800  1
  C  238  1  0.02416900  0.71601400  0.69398600  1
  C  239  1  0.02509500  0.69962100  0.67719400  1
  C  240  1  0.03878900  0.70442100  0.65827500  1
  C  241  1  0.05062600  0.72474300  0.65590900  1
  C  242  1  0.04921400  0.74009300  0.67331100  1
  C  243  1  0.03647900  0.73575400  0.69209200  1
  C  244  1  0.98387100  0.69209000  0.73574100  1
  C  245  1  0.97115900  0.67329400  0.74008600  1
  C  246  1  0.96977200  0.65588600  0.72474100  1
  C  247  1  0.98159400  0.65826800  0.70441400  1
  C  248  1  0.99484100  0.68053100  0.65904000  1
  C  249  1  0.99549400  0.66369900  0.64268700  1
  C  250  1  0.02487600  0.64268800  0.66369000  1
  C  251  1  0.02553600  0.65904200  0.68051900  1
  C  252  1  0.03793400  0.62342500  0.66531000  1
  C  253  1  0.05117800  0.61960000  0.68385100  1
  C  254  1  0.05250600  0.63512900  0.70122300  1
  C  255  1  0.03952300  0.65468700  0.69922600  1
  C  256  1  0.98086300  0.69924400  0.65468700  1
  C  257  1  0.96788200  0.70124100  0.63513100  1
  C  258  1  0.96919200  0.68386900  0.61960000  1
  C  259  1  0.98243700  0.66532800  0.62342000  1
  C  272  1  0.01018800  0.67911700  0.67911600  1
  C  273  1  0.01018400  0.64424700  0.64423700  1
  C  276  1  0.01017400  0.71391000  0.71390100  1
  C  283  1  0.02508000  0.67718800  0.32073800  1
  C  284  1  0.02417600  0.69398800  0.30435300  1
  C  285  1  0.99619700  0.71601400  0.32637900  1
  C  286  1  0.99527700  0.69961900  0.34316800  1
  C  287  1  0.98157900  0.70441400  0.36208800  1
  C  288  1  0.96975700  0.72474300  0.36446900  1
  C  289  1  0.97115800  0.74009100  0.34706300  1
  C  290  1  0.98388400  0.73575100  0.32827600  1
  C  291  1  0.03649100  0.69209000  0.28461800  1
  C  292  1  0.04921200  0.67330100  0.28027600  1
  C  293  1  0.05059300  0.65588600  0.29561500  1
  C  294  1  0.03877800  0.65826800  0.31594700  1
  C  295  1  0.02552500  0.68052400  0.36132200  1
  C  296  1  0.02486800  0.66369600  0.37767800  1
  C  297  1  0.99548700  0.64268700  0.35667100  1
  C  298  1  0.99483400  0.65903500  0.33983600  1
  C  299  1  0.98242400  0.62342500  0.35505400  1
  C  300  1  0.96918200  0.61959900  0.33651000  1
  C  301  1  0.96788100  0.63511600  0.31912600  1
  C  302  1  0.98085300  0.65467900  0.32112500  1
  C  303  1  0.03951100  0.69923300  0.36567400  1
  C  304  1  0.05248100  0.70123600  0.38523900  1
  C  305  1  0.05118300  0.68385400  0.40075700  1
  C  306  1  0.03793700  0.66531300  0.39693600  1
  C  319  1  0.01017900  0.67911400  0.34124500  1
  C  320  1  0.01017900  0.64424200  0.37612300  1
  C  323  1  0.01019200  0.71391100  0.30646300  1
  C  330  1  0.02507800  0.34317500  0.69962800  1
  C  331  1  0.02417400  0.32637500  0.71601100  1
  C  332  1  0.99618800  0.30435100  0.69399000  1
  C  333  1  0.99528200  0.32073800  0.67719300  1
  C  334  1  0.98157900  0.31595000  0.65827500  1
  C  335  1  0.96977200  0.29561300  0.65588900  1
  C  336  1  0.97115300  0.28027500  0.67330200  1
  C  337  1  0.98386900  0.28461800  0.69209500  1
  C  338  1  0.03648200  0.32827400  0.73575100  1
  C  339  1  0.04920400  0.34706300  0.74009300  1
  C  340  1  0.05059000  0.36447700  0.72475300  1
  C  341  1  0.03877600  0.36209300  0.70441900  1
  C  342  1  0.02553200  0.33984000  0.65904500  1
  C  343  1  0.02486300  0.35666000  0.64268200  1
  C  344  1  0.99547200  0.37766400  0.66368100  1
  C  345  1  0.99483200  0.36132200  0.68052400  1
  C  346  1  0.98240600  0.39692500  0.66529500  1
  C  347  1  0.96917200  0.40075700  0.68384100  1
  C  348  1  0.96788600  0.38524700  0.70123300  1
  C  349  1  0.98085500  0.36568200  0.69923700  1
  C  350  1  0.03951900  0.32113200  0.65469300  1
  C  351  1  0.05247600  0.31912100  0.63512100  1
  C  352  1  0.05117300  0.33650200  0.61960000  1
  C  353  1  0.03792800  0.35504100  0.62342000  1
  C  366  1  0.01018000  0.34124700  0.67911700  1
  C  367  1  0.01016100  0.37610500  0.64422700  1
  C  370  1  0.01017900  0.30645800  0.71390800  1
  C  377  1  0.32072800  0.99528700  0.34317000  1
  C  378  1  0.30434600  0.99618700  0.32636800  1
  C  379  1  0.32636500  0.02417400  0.30434800  1
  C  380  1  0.34316500  0.02507700  0.32073200  1
  C  381  1  0.36208600  0.03877000  0.31593800  1
  C  382  1  0.36445000  0.05061800  0.29562300  1
  C  383  1  0.34704700  0.04921700  0.28027500  1
  C  384  1  0.32825300  0.03650300  0.28462000  1
  C  385  1  0.28461200  0.98386900  0.32826400  1
  C  386  1  0.28026300  0.97116400  0.34706300  1
  C  387  1  0.29560300  0.96978400  0.36447700  1
  C  388  1  0.31593800  0.98159400  0.36209100  1
  C  389  1  0.36130700  0.99482400  0.33983300  1
  C  390  1  0.37766300  0.99547700  0.35666100  1
  C  391  1  0.35667300  0.02487900  0.37766100  1
  C  392  1  0.33983800  0.02553600  0.36131100  1
  C  393  1  0.35505900  0.03794400  0.39692100  1
  C  394  1  0.33651600  0.05118500  0.40074900  1
  C  395  1  0.31913900  0.05251100  0.38522400  1
  C  396  1  0.32112800  0.03951600  0.36567400  1
  C  397  1  0.36565700  0.98083800  0.32112500  1
  C  398  1  0.38519200  0.96782300  0.31913800  1
  C  399  1  0.40073100  0.96915700  0.33650300  1
  C  400  1  0.39691200  0.98239400  0.35505100  1
  C  413  1  0.34123900  0.01018000  0.34124000  1
  C  414  1  0.37611800  0.01017800  0.37610700  1
  C  417  1  0.30644800  0.01018100  0.30645100  1
  C  424  1  0.69963400  0.99528700  0.67718600  1
  C  425  1  0.71601300  0.99618200  0.69399300  1
  C  426  1  0.69399500  0.02417100  0.71601100  1
  C  427  1  0.67719900  0.02508200  0.69962100  1
  C  428  1  0.65827600  0.03877100  0.70441900  1
  C  429  1  0.65590900  0.05061500  0.72473600  1
  C  430  1  0.67331100  0.04921200  0.74008600  1
  C  431  1  0.69210300  0.03649300  0.73574400  1
  C  432  1  0.73574600  0.98386200  0.69209800  1
  C  433  1  0.74009600  0.97115800  0.67329700  1
  C  434  1  0.72475800  0.96978200  0.65588100  1
  C  435  1  0.70442600  0.98159500  0.65826500  1
  C  436  1  0.65905500  0.99482600  0.68052100  1
  C  437  1  0.64269100  0.99549100  0.66370300  1
  C  438  1  0.66368800  0.02488400  0.64269600  1
  C  439  1  0.68052600  0.02553600  0.65904400  1
  C  440  1  0.66529300  0.03795900  0.62344100  1
  C  441  1  0.68384300  0.05118600  0.61960000  1
  C  442  1  0.70123600  0.05247200  0.63510700  1
  C  443  1  0.69923900  0.03951000  0.65467700  1
  C  444  1  0.65470300  0.98084300  0.69923300  1
  C  445  1  0.63516200  0.96784100  0.70122500  1
  C  446  1  0.61962300  0.96916500  0.68385900  1
  C  447  1  0.62343400  0.98242000  0.66532100  1
  C  460  1  0.67912400  0.01018200  0.67911400  1
  C  461  1  0.64422700  0.01020500  0.64426600  1
  C  464  1  0.71390800  0.01017100  0.71391100  1
  C  471  1  0.32072500  0.02507500  0.67718800  1
  C  472  1  0.30434000  0.02416900  0.69398600  1
  C  473  1  0.32636500  0.99618700  0.71600900  1
  C  474  1  0.34316300  0.99528400  0.69962400  1
  C  475  1  0.36208600  0.98159000  0.70441800  1
  C  476  1  0.36445200  0.96974200  0.72473300  1
  C  477  1  0.34704900  0.97114600  0.74008300  1
  C  478  1  0.32826600  0.98387900  0.73574800  1
  C  479  1  0.28460500  0.03648400  0.69209000  1
  C  480  1  0.28026300  0.04920500  0.67329900  1
  C  481  1  0.29560200  0.05058300  0.65588400  1
  C  482  1  0.31593700  0.03877500  0.65826800  1
  C  483  1  0.36130700  0.02553400  0.68052300  1
  C  484  1  0.37765800  0.02488300  0.66369000  1
  C  485  1  0.35666300  0.99548200  0.64269100  1
  C  486  1  0.33983000  0.99482400  0.65904500  1
  C  487  1  0.35505100  0.98240900  0.62343400  1
  C  488  1  0.33651300  0.96916400  0.61960800  1
  C  489  1  0.31911900  0.96788400  0.63511700  1
  C  490  1  0.32111800  0.98084600  0.65468500  1
  C  491  1  0.36565600  0.03952200  0.69922900  1
  C  492  1  0.38522000  0.05248800  0.70123100  1
  C  493  1  0.40074700  0.05117800  0.68385600  1
  C  494  1  0.39691200  0.03795900  0.66530000  1
  C  507  1  0.34123500  0.01017900  0.67911600  1
  C  508  1  0.37611200  0.01017900  0.64424600  1
  C  511  1  0.30644800  0.01018300  0.71390800  1
  C  518  1  0.69963400  0.02508700  0.34316500  1
  C  519  1  0.71603100  0.02416100  0.32637600  1
  C  520  1  0.69400100  0.99618500  0.30435000  1
  C  521  1  0.67719600  0.99529200  0.32072800  1
  C  522  1  0.65827100  0.98160500  0.31593200  1
  C  523  1  0.65590700  0.96975400  0.29562000  1
  C  524  1  0.67331100  0.97115100  0.28027100  1
  C  525  1  0.69210100  0.98387400  0.28461200  1
  C  526  1  0.73576800  0.03647400  0.32827100  1
  C  527  1  0.74011100  0.04919700  0.34706000  1
  C  528  1  0.72475600  0.05061400  0.36445900  1
  C  529  1  0.70443700  0.03877400  0.36208900  1
  C  530  1  0.65905700  0.02554300  0.33983600  1
  C  531  1  0.64271100  0.02489300  0.35667500  1
  C  532  1  0.66370900  0.99549100  0.37766600  1
  C  533  1  0.68053300  0.99482900  0.36130600  1
  C  534  1  0.66532100  0.98241200  0.39691800  1
  C  535  1  0.68386600  0.96916900  0.40073600  1
  C  536  1  0.70123100  0.96784100  0.38519700  1
  C  537  1  0.69924100  0.98084300  0.36565400  1
  C  538  1  0.65470700  0.03953400  0.32113300  1
  C  539  1  0.63516500  0.05254300  0.31914800  1
  C  540  1  0.61963200  0.05120600  0.33651600  1
  C  541  1  0.62344900  0.03795500  0.35505400  1
  C  554  1  0.67912700  0.01018700  0.34123900  1
  C  555  1  0.64426600  0.01019500  0.37612200  1
  C  558  1  0.71392500  0.01016800  0.30645900  1
  C  565  1  0.84370600  0.82108400  0.49542400  1
  C  566  1  0.82669900  0.80490100  0.49599900  1
  C  567  1  0.80489400  0.82670600  0.52432700  1
  C  568  1  0.82109200  0.84369600  0.52492500  1
  C  569  1  0.81619800  0.86269000  0.53847300  1
  C  570  1  0.79614100  0.86475900  0.55080600  1
  C  571  1  0.78115300  0.84700600  0.55000100  1
  C  572  1  0.78542700  0.82831900  0.53710400  1
  C  573  1  0.82831000  0.78543500  0.48322000  1
  C  574  1  0.84700800  0.78114500  0.47034500  1
  C  575  1  0.86477700  0.79611500  0.46956800  1
  C  576  1  0.86271000  0.81617500  0.48189600  1
  C  577  1  0.84049200  0.86156900  0.49457400  1
  C  578  1  0.85762700  0.87761000  0.49481700  1
  C  579  1  0.87762900  0.85760600  0.52552700  1
  C  580  1  0.86157600  0.84048000  0.52578200  1
  C  581  1  0.89596500  0.85691000  0.53992300  1
  C  582  1  0.89943800  0.83877200  0.55380000  1
  C  583  1  0.88514500  0.82029900  0.55342200  1
  C  584  1  0.86576900  0.82200700  0.54012200  1
  C  585  1  0.82201000  0.86577400  0.48024700  1
  C  586  1  0.82030900  0.88514500  0.46693800  1
  C  587  1  0.83878500  0.89943300  0.46656100  1
  C  588  1  0.85693300  0.89594500  0.48041900  1
  C  601  1  0.84169200  0.84168200  0.51017700  1
  C  602  1  0.87658900  0.87656000  0.51016700  1
  C  605  1  0.80688500  0.80690300  0.51015600  1
  C  612  1  0.17665700  0.19926800  0.49544500  1
  C  613  1  0.19364700  0.21546700  0.49604100  1
  C  614  1  0.21546300  0.19365000  0.52435200  1
  C  615  1  0.19927500  0.17665000  0.52493500  1
  C  616  1  0.20418200  0.15764700  0.53846700  1
  C  617  1  0.22424500  0.15557700  0.55078900  1
  C  618  1  0.23922400  0.17333700  0.54999600  1
  C  619  1  0.23492900  0.19204300  0.53713200  1
  C  620  1  0.19204000  0.23492900  0.48325700  1
  C  621  1  0.17334000  0.23921400  0.47038000  1
  C  622  1  0.15558700  0.22422600  0.46957800  1
  C  623  1  0.15766600  0.20415700  0.48188900  1
  C  624  1  0.17987400  0.15878200  0.49458100  1
  C  625  1  0.16274000  0.14273800  0.49482500  1
  C  626  1  0.14274200  0.16273300  0.52554200  1
  C  627  1  0.15878900  0.17986300  0.52579300  1
  C  628  1  0.12440900  0.16342400  0.53994300  1
  C  629  1  0.12092500  0.18156700  0.55380700  1
  C  630  1  0.13522100  0.20003700  0.55344000  1
  C  631  1  0.15459600  0.19833400  0.54013700  1
  C  632  1  0.19834900  0.15458500  0.48024600  1
  C  633  1  0.20004200  0.13522500  0.46691900  1
  C  634  1  0.18157200  0.12092800  0.46655200  1
  C  635  1  0.16343200  0.12440700  0.48042300  1
  C  648  1  0.17867400  0.17866500  0.51018700  1
  C  649  1  0.14378500  0.14377800  0.51018400  1
  C  652  1  0.21345900  0.21346800  0.51019900  1
  C  659  1  0.17665000  0.82107900  0.52492500  1
  C  660  1  0.19366000  0.80490100  0.52436200  1
  C  661  1  0.21547300  0.82671100  0.49604400  1
  C  662  1  0.19927200  0.84369800  0.49544000  1
  C  663  1  0.20416100  0.86268700  0.48188300  1
  C  664  1  0.22422800  0.86476300  0.46957000  1
  C  665  1  0.23921800  0.84701300  0.47037500  1
  C  666  1  0.23493700  0.82831900  0.48326300  1
  C  667  1  0.19205000  0.78543700  0.53714400  1
  C  668  1  0.17334000  0.78114000  0.55000100  1
  C  669  1  0.15556600  0.79610500  0.55076500  1
  C  670  1  0.15764700  0.81617700  0.53846000  1
  C  671  1  0.17986800  0.86156700  0.52578800  1
  C  672  1  0.16273800  0.87761500  0.52554000  1
  C  673  1  0.14274100  0.85762100  0.49482000  1
  C  674  1  0.15878400  0.84048700  0.49457600  1
  C  675  1  0.12441300  0.85693300  0.48041400  1
  C  676  1  0.12093300  0.83879400  0.46654400  1
  C  677  1  0.13522900  0.82032400  0.46690600  1
  C  678  1  0.15458800  0.82201300  0.48023600  1
  C  679  1  0.19834100  0.86576000  0.54013000  1
  C  680  1  0.20003700  0.88512300  0.55345100  1
  C  681  1  0.18156900  0.89942400  0.55381700  1
  C  682  1  0.16342800  0.89594500  0.53994600  1
  C  695  1  0.17866700  0.84168200  0.51018200  1
  C  696  1  0.14378300  0.87657400  0.51018200  1
  C  699  1  0.21347800  0.80690500  0.51021000  1
  C  706  1  0.84370900  0.19927800  0.52492400  1
  C  707  1  0.82670200  0.21546200  0.52434700  1
  C  708  1  0.80489900  0.19365500  0.49601700  1
  C  709  1  0.82108600  0.17665200  0.49544200  1
  C  710  1  0.81618800  0.15765300  0.48190200  1
  C  711  1  0.79611300  0.15556700  0.46960300  1
  C  712  1  0.78114800  0.17334200  0.47036300  1
  C  713  1  0.78544400  0.19205100  0.48322200  1
  C  714  1  0.82830600  0.23492000  0.53713900  1
  C  715  1  0.84701800  0.23922300  0.54999200  1
  C  716  1  0.86479000  0.22425600  0.55076100  1
  C  717  1  0.86270800  0.20417900  0.53846200  1
  C  718  1  0.84049500  0.15879300  0.52579700  1
  C  719  1  0.85761900  0.14273900  0.52553900  1
  C  720  1  0.87761200  0.16273100  0.49481500  1
  C  721  1  0.86157200  0.17986800  0.49457600  1
  C  722  1  0.89594100  0.16342000  0.48041100  1
  C  723  1  0.89942500  0.18156200  0.46654400  1
  C  724  1  0.88512800  0.20003200  0.46690800  1
  C  725  1  0.86577000  0.19834300  0.48023900  1
  C  726  1  0.82202300  0.15460100  0.54013800  1
  C  727  1  0.82032000  0.13523000  0.55345000  1
  C  728  1  0.83878700  0.12092900  0.55381200  1
  C  729  1  0.85692800  0.12440800  0.53994300  1
  C  742  1  0.84169000  0.17867200  0.51018400  1
  C  743  1  0.87656900  0.14377500  0.51017400  1
  C  746  1  0.80689600  0.21346400  0.51018000  1
  C  753  1  0.49544400  0.84370300  0.82108700  1
  C  754  1  0.49603400  0.82670600  0.80489600  1
  C  755  1  0.52436300  0.80490400  0.82670200  1
  C  756  1  0.52492900  0.82108400  0.84371100  1
  C  757  1  0.53846000  0.81618200  0.86271500  1
  C  758  1  0.55079300  0.79612500  0.86478200  1
  C  759  1  0.55001400  0.78115100  0.84701600  1
  C  760  1  0.53716400  0.78545200  0.82830100  1
  C  761  1  0.48325000  0.82831400  0.78543200  1
  C  762  1  0.47037700  0.84701400  0.78114300  1
  C  763  1  0.46958100  0.86477200  0.79612600  1
  C  764  1  0.48188400  0.86269200  0.81620000  1
  C  765  1  0.49457200  0.84048800  0.86157400  1
  C  766  1  0.49481500  0.85762200  0.87761700  1
  C  767  1  0.52553500  0.87762000  0.85762400  1
  C  768  1  0.52579000  0.86157100  0.84049500  1
  C  769  1  0.53993500  0.89595300  0.85693300  1
  C  770  1  0.55379700  0.89944000  0.83878700  1
  C  771  1  0.55343500  0.88514300  0.82031900  1
  C  772  1  0.54012200  0.86577200  0.82201800  1
  C  773  1  0.48023300  0.82201500  0.86576500  1
  C  774  1  0.46693300  0.82030900  0.88514300  1
  C  775  1  0.46654900  0.83878700  0.89943000  1
  C  776  1  0.48040100  0.85694000  0.89593800  1
  C  789  1  0.51018400  0.84168700  0.84169200  1
  C  790  1  0.51017400  0.87657900  0.87657500  1
  C  793  1  0.51020900  0.80690500  0.80688700  1
  C  800  1  0.49543500  0.17665500  0.19927700  1
  C  801  1  0.49601300  0.19366000  0.21546200  1
  C  802  1  0.52433200  0.21546800  0.19365200  1
  C  803  1  0.52492400  0.19927300  0.17665800  1
  C  804  1  0.53847200  0.20416700  0.15766400  1
  C  805  1  0.55080300  0.22422500  0.15559700  1
  C  806  1  0.55000100  0.23921300  0.17335000  1
  C  807  1  0.53711700  0.23493000  0.19204500  1
  C  808  1  0.48322800  0.19205100  0.23492400  1
  C  809  1  0.47036300  0.17334700  0.23921800  1
  C  810  1  0.46957800  0.15558500  0.22424000  1
  C  811  1  0.48188400  0.15766300  0.20416700  1
  C  812  1  0.49456700  0.17987100  0.15879100  1
  C  813  1  0.49481500  0.16274100  0.14274400  1
  C  814  1  0.52553400  0.14274100  0.16273900  1
  C  815  1  0.52578500  0.15878800  0.17986900  1
  C  816  1  0.53994000  0.12441300  0.16342500  1
  C  817  1  0.55380200  0.12092600  0.18156900  1
  C  818  1  0.55344000  0.13522400  0.20003900  1
  C  819  1  0.54012200  0.15458900  0.19834400  1
  C  820  1  0.48023900  0.19834900  0.15459000  1
  C  821  1  0.46692300  0.20004700  0.13522300  1
  C  822  1  0.46653800  0.18156900  0.12093800  1
  C  823  1  0.48040600  0.16342700  0.12441800  1
  C  836  1  0.51017700  0.17867200  0.17867200  1
  C  837  1  0.51017900  0.14378900  0.14378000  1
  C  840  1  0.51016700  0.21347400  0.21345900  1
  C  847  1  0.52492000  0.17665200  0.82107900  1
  C  848  1  0.52433700  0.19365200  0.80488900  1
  C  849  1  0.49603100  0.21547000  0.82670900  1
  C  850  1  0.49544000  0.19927500  0.84370300  1
  C  851  1  0.48189300  0.20416900  0.86269700  1
  C  852  1  0.46956200  0.22422600  0.86476500  1
  C  853  1  0.47037200  0.23921900  0.84701800  1
  C  854  1  0.48326300  0.23494200  0.82832600  1
  C  855  1  0.53711700  0.19204100  0.78542500  1
  C  856  1  0.54999700  0.17334500  0.78114200  1
  C  857  1  0.55077800  0.15558100  0.79611800  1
  C  858  1  0.53847500  0.15766100  0.81619000  1
  C  859  1  0.52579300  0.17986800  0.86156600  1
  C  860  1  0.52554700  0.16273600  0.87761200  1
  C  861  1  0.49482200  0.14274400  0.85762200  1
  C  862  1  0.49457100  0.15879000  0.84049000  1
  C  863  1  0.48041400  0.12441600  0.85693600  1
  C  864  1  0.46653800  0.12093700  0.83880000  1
  C  865  1  0.46690600  0.13523000  0.82032700  1
  C  866  1  0.48023300  0.15459200  0.82201700  1
  C  867  1  0.54013500  0.19834100  0.86575900  1
  C  868  1  0.55344500  0.20004200  0.88513000  1
  C  869  1  0.55381200  0.18157200  0.89942700  1
  C  870  1  0.53995600  0.16342200  0.89593700  1
  C  883  1  0.51018200  0.17867000  0.84168500  1
  C  884  1  0.51018400  0.14378500  0.87657400  1
  C  887  1  0.51019000  0.21347100  0.80689800  1
  C  894  1  0.52492700  0.84370600  0.19927000  1
  C  895  1  0.52432700  0.82671700  0.21547000  1
  C  896  1  0.49601100  0.80490400  0.19365800  1
  C  897  1  0.49543500  0.82108700  0.17665500  1
  C  898  1  0.48188600  0.81619500  0.15766100  1
  C  899  1  0.46954800  0.79614100  0.15559800  1
  C  900  1  0.47035000  0.78115500  0.17335000  1
  C  901  1  0.48323200  0.78543900  0.19204600  1
  C  902  1  0.53710600  0.82832800  0.23493500  1
  C  903  1  0.54998700  0.84702300  0.23921900  1
  C  904  1  0.55080100  0.86477000  0.22422500  1
  C  905  1  0.53847300  0.86270000  0.20416600  1
  C  906  1  0.52578500  0.84049000  0.15878500  1
  C  907  1  0.52554400  0.85762700  0.14274400  1
  C  908  1  0.49482700  0.87762500  0.16274200  1
  C  909  1  0.49457200  0.86157400  0.17986900  1
  C  910  1  0.48041900  0.89595300  0.16343000  1
  C  911  1  0.46655700  0.89943700  0.18157500  1
  C  912  1  0.46693100  0.88514300  0.20004700  1
  C  913  1  0.48023800  0.86577000  0.19834400  1
  C  914  1  0.54011500  0.82201200  0.15458400  1
  C  915  1  0.55343000  0.82031400  0.13521600  1
  C  916  1  0.55380800  0.83879000  0.12092900  1
  C  917  1  0.53994600  0.85693500  0.12441300  1
  C  930  1  0.51017900  0.84169000  0.17866900  1
  C  931  1  0.51019000  0.87658500  0.14379000  1
  C  934  1  0.51016200  0.80690800  0.21347400  1
  C  941  1  0.82108600  0.49542100  0.84370600  1
  C  942  1  0.80490100  0.49599800  0.82670100  1
  C  943  1  0.82671100  0.52431900  0.80489100  1
  C  944  1  0.84370100  0.52491900  0.82109100  1
  C  945  1  0.86269700  0.53846500  0.81619500  1
  C  946  1  0.86476500  0.55079400  0.79613800  1
  C  947  1  0.84701300  0.54998900  0.78114800  1
  C  948  1  0.82832600  0.53709300  0.78542200  1
  C  949  1  0.78543500  0.48321900  0.82831100  1
  C  950  1  0.78114500  0.47034400  0.84701100  1
  C  951  1  0.79611600  0.46956700  0.86477800  1
  C  952  1  0.81617700  0.48189300  0.86271200  1
  C  953  1  0.86156900  0.49456600  0.84049200  1
  C  954  1  0.87761200  0.49481000  0.85762700  1
  C  955  1  0.85761300  0.52552600  0.87762500  1
  C  956  1  0.84048500  0.52577900  0.86157400  1
  C  957  1  0.85691800  0.53992700  0.89595600  1
  C  958  1  0.83878200  0.55380200  0.89943200  1
  C  959  1  0.82030500  0.55342200  0.88514200  1
  C  960  1  0.82201200  0.54011800  0.86576700  1
  C  961  1  0.86576900  0.48023300  0.82201500  1
  C  962  1  0.88513200  0.46691000  0.82032200  1
  C  963  1  0.89942700  0.46654200  0.83879400  1
  C  964  1  0.89594500  0.48040900  0.85693500  1
  C  977  1  0.84168400  0.51017100  0.84169200  1
  C  978  1  0.87656700  0.51016600  0.87658500  1
  C  981  1  0.80690600  0.51014900  0.80688300  1
  C  988  1  0.19926800  0.49544000  0.17665800  1
  C  989  1  0.21546500  0.49603200  0.19365000  1
  C  990  1  0.19365300  0.52434800  0.21546500  1
  C  991  1  0.17665300  0.52493400  0.19927700  1
  C  992  1  0.15765100  0.53846700  0.20418400  1
  C  993  1  0.15558200  0.55078900  0.22424600  1
  C  994  1  0.17334200  0.54999600  0.23922600  1
  C  995  1  0.19204600  0.53713100  0.23492900  1
  C  996  1  0.23492900  0.48325000  0.19204100  1
  C  997  1  0.23921400  0.47037500  0.17334200  1
  C  998  1  0.22422600  0.46957300  0.15558900  1
  C  999  1  0.20415700  0.48188600  0.15766800  1
  C  1000  1  0.15878200  0.49457900  0.17987600  1
  C  1001  1  0.14273600  0.49482700  0.16274400  1
  C  1002  1  0.16273500  0.52554000  0.14274300  1
  C  1003  1  0.17986600  0.52579000  0.15879000  1
  C  1004  1  0.16342700  0.53994000  0.12441000  1
  C  1005  1  0.18157200  0.55380000  0.12092400  1
  C  1006  1  0.20004400  0.55343300  0.13521900  1
  C  1007  1  0.19833900  0.54013000  0.15459600  1
  C  1008  1  0.15458500  0.48024600  0.19835200  1
  C  1009  1  0.13522100  0.46692300  0.20004700  1
  C  1010  1  0.12092300  0.46655900  0.18157900  1
  C  1011  1  0.12440300  0.48042800  0.16343700  1
  C  1024  1  0.17866700  0.51018500  0.17867500  1
  C  1025  1  0.14377700  0.51018500  0.14378800  1
  C  1028  1  0.21346900  0.51019500  0.21345900  1
  C  1035  1  0.82108300  0.52493000  0.17664500  1
  C  1036  1  0.80490100  0.52436200  0.19365300  1
  C  1037  1  0.82671700  0.49605100  0.21547200  1
  C  1038  1  0.84370300  0.49544700  0.19926800  1
  C  1039  1  0.86269200  0.48188900  0.20415700  1
  C  1040  1  0.86477000  0.46957600  0.22422600  1
  C  1041  1  0.84701900  0.47038300  0.23921600  1
  C  1042  1  0.82832800  0.48327100  0.23493700  1
  C  1043  1  0.78544000  0.53714700  0.19204500  1
  C  1044  1  0.78114200  0.55000600  0.17333700  1
  C  1045  1  0.79610600  0.55076800  0.15556200  1
  C  1046  1  0.81618000  0.53846500  0.15764300  1
  C  1047  1  0.86157100  0.52579500  0.17986400  1
  C  1048  1  0.87762000  0.52554500  0.16273600  1
  C  1049  1  0.85762600  0.49482700  0.14273800  1
  C  1050  1  0.84049200  0.49458100  0.15878000  1
  C  1051  1  0.85694000  0.48042100  0.12441000  1
  C  1052  1  0.83880000  0.46655100  0.12092900  1
  C  1053  1  0.82033000  0.46691300  0.13522500  1
  C  1054  1  0.82201800  0.48024100  0.15458400  1
  C  1055  1  0.86576000  0.54013800  0.19833600  1
  C  1056  1  0.88512300  0.55346000  0.20003400  1
  C  1057  1  0.89942400  0.55382500  0.18156600  1
  C  1058  1  0.89594800  0.53995300  0.16342600  1
  C  1071  1  0.84168700  0.51018900  0.17866400  1
  C  1072  1  0.87658000  0.51018700  0.14378100  1
  C  1075  1  0.80691000  0.51021800  0.21347600  1
  C  1082  1  0.19927700  0.52492000  0.84371200  1
  C  1083  1  0.21546000  0.52434700  0.82670600  1
  C  1084  1  0.19365700  0.49601700  0.80490100  1
  C  1085  1  0.17665300  0.49544000  0.82108600  1
  C  1086  1  0.15765400  0.48189900  0.81618700  1
  C  1087  1  0.15557100  0.46960100  0.79611000  1
  C  1088  1  0.17334700  0.47036300  0.78114700  1
  C  1089  1  0.19205500  0.48322400  0.78544400  1
  C  1090  1  0.23492400  0.53712900  0.82831800  1
  C  1091  1  0.23921800  0.54999200  0.84702400  1
  C  1092  1  0.22425100  0.55076100  0.86479500  1
  C  1093  1  0.20417600  0.53845800  0.86271300  1
  C  1094  1  0.15879100  0.52579300  0.84049700  1
  C  1095  1  0.14273700  0.52553500  0.85761900  1
  C  1096  1  0.16272700  0.49480900  0.87761200  1
  C  1097  1  0.17986600  0.49457100  0.86157200  1
  C  1098  1  0.16341400  0.48040300  0.89594000  1
  C  1099  1  0.18155600  0.46653600  0.89942200  1
  C  1100  1  0.20002700  0.46690100  0.88512700  1
  C  1101  1  0.19834100  0.48023400  0.86577000  1
  C  1102  1  0.15460100  0.54013700  0.82202500  1
  C  1103  1  0.13523000  0.55344800  0.82032400  1
  C  1104  1  0.12092800  0.55381000  0.83879000  1
  C  1105  1  0.12440600  0.53993800  0.85693000  1
  C  1118  1  0.17867000  0.51018000  0.84169200  1
  C  1119  1  0.14377200  0.51016700  0.87656900  1
  C  1122  1  0.21346600  0.51017900  0.80690000  1
  C  1129  1  0.43657800  0.24330200  0.91312500  1
  C  1131  1  0.42587400  0.28163400  0.91786400  1
  C  1132  1  0.41174600  0.27655800  0.93579300  1
  C  1134  1  0.42244800  0.23804900  0.93128300  1
  C  1136  1  0.41936300  0.21533800  0.94006100  1
  C  1141  1  0.44979200  0.22787400  0.90152200  1
  C  1143  1  0.39955700  0.29272100  0.94732200  1
  C  1145  1  0.58375100  0.77706900  0.91312800  1
  C  1147  1  0.59445400  0.73873200  0.91787700  1
  C  1148  1  0.60861800  0.74381300  0.93577500  1
  C  1150  1  0.59791600  0.78232400  0.93126100  1
  C  1152  1  0.60099300  0.80502600  0.94006400  1
  C  1157  1  0.57044700  0.79247200  0.90158800  1
  C  1159  1  0.62081200  0.72764900  0.94730200  1
  C  1161  1  0.58378000  0.24330300  0.10723400  1
  C  1163  1  0.59448700  0.28163700  0.10249600  1
  C  1164  1  0.60861300  0.27656100  0.08456600  1
  C  1166  1  0.59790900  0.23805000  0.08907600  1
  C  1168  1  0.60099300  0.21534100  0.08029500  1
  C  1173  1  0.57056600  0.22787700  0.11883700  1
  C  1175  1  0.62080400  0.29272300  0.07303700  1
  C  1177  1  0.43657500  0.77706100  0.10723100  1
  C  1179  1  0.42586600  0.73872900  0.10249500  1
  C  1180  1  0.41174100  0.74380600  0.08456300  1
  C  1182  1  0.42244800  0.78231400  0.08907200  1
  C  1184  1  0.41936800  0.80502500  0.08029100  1
  C  1189  1  0.44978900  0.79248700  0.11883700  1
  C  1191  1  0.39954500  0.72764300  0.07303800  1
  C  1193  1  0.91312500  0.43657100  0.24329500  1
  C  1195  1  0.91785600  0.42586100  0.28162700  1
  C  1196  1  0.93579300  0.41174100  0.27655300  1
  C  1198  1  0.93128900  0.42245000  0.23804400  1
  C  1200  1  0.94007100  0.41937000  0.21533400  1
  C  1205  1  0.90151200  0.44977400  0.22786400  1
  C  1207  1  0.94731700  0.39954700  0.29271600  1
  C  1209  1  0.91312800  0.58377500  0.77705600  1
  C  1211  1  0.91787000  0.59447500  0.73872200  1
  C  1212  1  0.93579600  0.60860700  0.74379800  1
  C  1214  1  0.93128300  0.59790800  0.78230900  1
  C  1216  1  0.94006100  0.60099500  0.80502000  1
  C  1221  1  0.90152500  0.57056100  0.79248400  1
  C  1223  1  0.94732100  0.62080100  0.72763400  1
  C  1225  1  0.10723600  0.58375500  0.24330000  1
  C  1227  1  0.10249700  0.59446200  0.28163900  1
  C  1228  1  0.08459300  0.60862200  0.27656000  1
  C  1230  1  0.08909800  0.59791300  0.23805000  1
  C  1232  1  0.08029000  0.60098800  0.21534900  1
  C  1237  1  0.11878700  0.57045500  0.22789500  1
  C  1239  1  0.07306800  0.62081500  0.29272500  1
  C  1241  1  0.10724200  0.43660300  0.77706600  1
  C  1243  1  0.10249900  0.42589900  0.73872900  1
  C  1244  1  0.08459600  0.41173700  0.74380800  1
  C  1246  1  0.08910500  0.42244300  0.78231900  1
  C  1248  1  0.08030000  0.41936800  0.80502000  1
  C  1253  1  0.11878400  0.44990400  0.79247100  1
  C  1255  1  0.07307000  0.39954500  0.72764300  1
  C  1257  1  0.24329800  0.91311900  0.43657000  1
  C  1259  1  0.28163000  0.91785400  0.42585900  1
  C  1260  1  0.27655500  0.93579200  0.41174100  1
  C  1262  1  0.23804700  0.93128400  0.42244800  1
  C  1264  1  0.21533600  0.94006600  0.41936800  1
  C  1269  1  0.22786700  0.90150500  0.44977000  1
  C  1271  1  0.29271800  0.94732100  0.39955400  1
  C  1273  1  0.77706300  0.91312400  0.58378100  1
  C  1275  1  0.73873000  0.91786500  0.59448500  1
  C  1276  1  0.74380600  0.93579500  0.60861300  1
  C  1278  1  0.78231500  0.93128100  0.59791100  1
  C  1280  1  0.80502600  0.94006100  0.60099500  1
  C  1285  1  0.79248900  0.90151800  0.57056900  1
  C  1287  1  0.72764400  0.94732400  0.62080200  1
  C  1289  1  0.24329500  0.10723000  0.58375100  1
  C  1291  1  0.28163200  0.10248800  0.59446200  1
  C  1292  1  0.27655300  0.08458300  0.60861800  1
  C  1294  1  0.23804200  0.08908900  0.59790800  1
  C  1296  1  0.21534100  0.08028200  0.60098100  1
  C  1301  1  0.22789000  0.11878200  0.57045300  1
  C  1303  1  0.29271500  0.07305600  0.62081200  1
  C  1305  1  0.77707400  0.10723400  0.43660800  1
  C  1307  1  0.73873700  0.10248800  0.42589900  1
  C  1308  1  0.74381800  0.08458500  0.41173900  1
  C  1310  1  0.78232900  0.08909600  0.42245000  1
  C  1312  1  0.80503100  0.08029200  0.41937800  1
  C  1317  1  0.79247700  0.11877800  0.44991100  1
  C  1319  1  0.72765600  0.07306300  0.39954000  1
  C  1321  1  0.24329700  0.43657500  0.10723200  1
  C  1323  1  0.28162900  0.42586700  0.10249600  1
  C  1324  1  0.27655500  0.41174400  0.08456200  1
  C  1326  1  0.23804500  0.42244800  0.08907100  1
  C  1328  1  0.21533400  0.41936500  0.08029200  1
  C  1333  1  0.22786700  0.44977700  0.11884400  1
  C  1335  1  0.29271800  0.39955200  0.07303800  1
  C  1337  1  0.77706800  0.58376300  0.10723100  1
  C  1339  1  0.73873000  0.59446900  0.10248500  1
  C  1340  1  0.74381100  0.60863000  0.08458300  1
  C  1342  1  0.78232000  0.59792300  0.08909400  1
  C  1344  1  0.80502500  0.60099800  0.08029200  1
  C  1349  1  0.79247100  0.57046100  0.11877400  1
  C  1351  1  0.72764800  0.62082700  0.07306100  1
  C  1353  1  0.24328800  0.58376100  0.91312500  1
  C  1355  1  0.28162500  0.59446700  0.91787200  1
  C  1356  1  0.27654500  0.60862700  0.93577500  1
  C  1358  1  0.23803400  0.59791900  0.93126300  1
  C  1360  1  0.21533100  0.60099300  0.94006600  1
  C  1365  1  0.22788500  0.57046000  0.90158100  1
  C  1367  1  0.29270700  0.62082400  0.94729700  1
  C  1369  1  0.77705900  0.43661100  0.91313000  1
  C  1371  1  0.73872200  0.42590200  0.91787000  1
  C  1372  1  0.74380100  0.41174100  0.93577300  1
  C  1374  1  0.78231000  0.42245100  0.93126600  1
  C  1376  1  0.80501300  0.41937500  0.94007200  1
  C  1381  1  0.79246200  0.44991300  0.90158000  1
  C  1383  1  0.72763800  0.39954200  0.94729300  1
  C  1385  1  0.43656800  0.91312000  0.77705800  1
  C  1387  1  0.42586400  0.91785600  0.73872500  1
  C  1388  1  0.41173700  0.93578700  0.74380000  1
  C  1390  1  0.42244000  0.93127900  0.78230900  1
  C  1392  1  0.41935600  0.94005900  0.80502000  1
  C  1397  1  0.44977700  0.90151300  0.79248700  1
  C  1399  1  0.39954500  0.94731200  0.72763400  1
  C  1401  1  0.58378400  0.91313200  0.24329800  1
  C  1403  1  0.59448900  0.91787400  0.28163200  1
  C  1404  1  0.60861800  0.93580100  0.27655500  1
  C  1406  1  0.59791600  0.93128800  0.23804500  1
  C  1408  1  0.60100100  0.94006600  0.21533400  1
  C  1413  1  0.57057200  0.90152700  0.22787200  1
  C  1415  1  0.62081100  0.94732700  0.29271800  1
  C  1417  1  0.58378400  0.10723000  0.77705400  1
  C  1419  1  0.59449200  0.10249300  0.73872200  1
  C  1420  1  0.60861800  0.08456300  0.74379800  1
  C  1422  1  0.59791400  0.08907300  0.78230700  1
  C  1424  1  0.60099800  0.08029500  0.80501800  1
  C  1429  1  0.57057200  0.11883500  0.79248100  1
  C  1431  1  0.62081400  0.07304000  0.72763400  1
  C  1433  1  0.43657300  0.10723500  0.24330500  1
  C  1435  1  0.42586600  0.10249700  0.28163700  1
  C  1436  1  0.41173900  0.08456700  0.27656000  1
  C  1438  1  0.42244300  0.08907700  0.23805000  1
  C  1440  1  0.41936000  0.08029900  0.21533900  1
  C  1445  1  0.44978200  0.11884000  0.22787700  1
  C  1447  1  0.39954700  0.07304300  0.29272300  1
  C  1449  1  0.91312000  0.24330000  0.58376100  1
  C  1451  1  0.91786500  0.28163700  0.59446500  1
  C  1452  1  0.93576800  0.27655800  0.60862500  1
  C  1454  1  0.93125800  0.23804700  0.59792100  1
  C  1456  1  0.94006100  0.21534400  0.60099500  1
  C  1461  1  0.90157600  0.22789500  0.57046100  1
  C  1463  1  0.94729400  0.29272100  0.62081900  1
  C  1465  1  0.91312700  0.77705600  0.43661300  1
  C  1467  1  0.91786500  0.73871900  0.42590200  1
  C  1468  1  0.93576700  0.74379800  0.41174100  1
  C  1470  1  0.93126500  0.78230900  0.42245100  1
  C  1472  1  0.94007200  0.80501000  0.41937800  1
  C  1477  1  0.90157600  0.79246100  0.44991400  1
  C  1479  1  0.94728800  0.72763400  0.39954200  1
  C  1481  1  0.10723000  0.24329500  0.43657800  1
  C  1483  1  0.10249600  0.28162700  0.42586700  1
  C  1484  1  0.08456000  0.27655100  0.41174700  1
  C  1486  1  0.08906700  0.23804400  0.42245500  1
  C  1488  1  0.08028700  0.21533300  0.41937500  1
  C  1493  1  0.11884300  0.22786500  0.44978200  1
  C  1495  1  0.07303500  0.29271500  0.39955400  1
  C  1497  1  0.10723600  0.77706600  0.58375800  1
  C  1499  1  0.10249600  0.73872900  0.59446700  1
  C  1500  1  0.08459100  0.74380800  0.60862700  1
  C  1502  1  0.08909700  0.78231700  0.59791600  1
  C  1504  1  0.08029100  0.80502000  0.60098800  1
  C  1509  1  0.11877800  0.79246900  0.57045600  1
  C  1511  1  0.07307000  0.72764400  0.62082500  1
  C  1513  1  0.58466900  0.77738000  0.10547000  1
  C  1515  1  0.59689300  0.73998400  0.11063900  1
  C  1516  1  0.60993100  0.74060900  0.09116500  1
  C  1518  1  0.59814900  0.77845300  0.08612000  1
  C  1520  1  0.60003600  0.79834500  0.07182100  1
  C  1525  1  0.56957700  0.79395500  0.11104500  1
  C  1527  1  0.61985000  0.72151000  0.08258000  1
  C  1529  1  0.43569500  0.24298600  0.10547300  1
  C  1531  1  0.42347200  0.28038200  0.11064400  1
  C  1532  1  0.41043500  0.27975700  0.09117000  1
  C  1534  1  0.42221300  0.24191300  0.08612300  1
  C  1536  1  0.42032900  0.22202200  0.07182300  1
  C  1541  1  0.45078400  0.22640700  0.11104700  1
  C  1543  1  0.40052300  0.29885900  0.08258600  1
  C  1545  1  0.43570300  0.77737300  0.91489400  1
  C  1547  1  0.42346700  0.73998400  0.90971800  1
  C  1548  1  0.41042800  0.74061000  0.92919100  1
  C  1550  1  0.42222300  0.77844800  0.93424400  1
  C  1552  1  0.42034300  0.79834000  0.94854400  1
  C  1557  1  0.45079600  0.79394900  0.90931900  1
  C  1559  1  0.40048600  0.72151700  0.93776200  1
  C  1561  1  0.58466200  0.24298600  0.91488600  1
  C  1563  1  0.59688400  0.28038400  0.90972100  1
  C  1564  1  0.60992500  0.27975700  0.92919300  1
  C  1566  1  0.59814600  0.24191100  0.93423400  1
  C  1568  1  0.60003400  0.22201700  0.94852900  1
  C  1573  1  0.56957400  0.22640900  0.90930800  1
  C  1575  1  0.61984300  0.29885500  0.93778100  1
  C  1577  1  0.10547900  0.58465700  0.77737500  1
  C  1579  1  0.11064200  0.59688300  0.73997900  1
  C  1580  1  0.09116900  0.60992100  0.74060700  1
  C  1582  1  0.08613100  0.59814100  0.77845300  1
  C  1584  1  0.07183600  0.60002600  0.79834700  1
  C  1589  1  0.11105600  0.56956200  0.79394500  1
  C  1591  1  0.08258100  0.61983300  0.72150900  1
  C  1593  1  0.10546900  0.43570300  0.24298700  1
  C  1595  1  0.11063700  0.42347200  0.28038000  1
  C  1596  1  0.09116300  0.41043300  0.27975100  1
  C  1598  1  0.08612000  0.42222300  0.24190900  1
  C  1600  1  0.07182300  0.42034200  0.22201600  1
  C  1605  1  0.11104700  0.45079600  0.22641400  1
  C  1607  1  0.08258000  0.40049800  0.29884200  1
  C  1609  1  0.91488300  0.43568400  0.77738200  1
  C  1611  1  0.90971800  0.42346500  0.73998400  1
  C  1612  1  0.92919300  0.41042800  0.74060900  1
  C  1614  1  0.93423400  0.42220300  0.77845500  1
  C  1616  1  0.94853100  0.42031500  0.79834700  1
  C  1621  1  0.90930800  0.45077200  0.79395900  1
  C  1623  1  0.93778400  0.40052400  0.72150700  1
  C  1625  1  0.91487300  0.58467700  0.24297900  1
  C  1627  1  0.90971400  0.59689800  0.28037900  1
  C  1628  1  0.92918800  0.60993600  0.27974900  1
  C  1630  1  0.93422100  0.59816100  0.24190100  1
  C  1632  1  0.94851400  0.60004700  0.22200600  1
  C  1637  1  0.90929600  0.56957900  0.22640900  1
  C  1639  1  0.93778400  0.61983700  0.29885100  1
  C  1641  1  0.77737000  0.10547900  0.58465700  1
  C  1643  1  0.73997200  0.11063900  0.59687900  1
  C  1644  1  0.74060200  0.09116700  0.60992100  1
  C  1646  1  0.77845000  0.08613200  0.59814300  1
  C  1648  1  0.79834500  0.07184000  0.60003100  1
  C  1653  1  0.79394200  0.11105600  0.56956200  1
  C  1655  1  0.72150500  0.08257900  0.61984200  1
  C  1657  1  0.24298200  0.10547400  0.43569500  1
  C  1659  1  0.28038000  0.11064300  0.42347500  1
  C  1660  1  0.27975600  0.09116900  0.41043600  1
  C  1662  1  0.24190900  0.08612500  0.42221300  1
  C  1664  1  0.22201700  0.07182700  0.42032700  1
  C  1669  1  0.22640600  0.11105000  0.45078400  1
  C  1671  1  0.29885500  0.08258400  0.40052400  1
  C  1673  1  0.77737500  0.91489400  0.43570700  1
  C  1675  1  0.73998200  0.90972100  0.42347000  1
  C  1676  1  0.74061000  0.92919400  0.41043100  1
  C  1678  1  0.77845000  0.93424600  0.42222500  1
  C  1680  1  0.79834000  0.94854400  0.42034500  1
  C  1685  1  0.79394900  0.90931700  0.45079900  1
  C  1687  1  0.72151700  0.93776700  0.40048900  1
  C  1689  1  0.24298200  0.91487400  0.58466600  1
  C  1691  1  0.28038000  0.90971600  0.59688900  1
  C  1692  1  0.27975100  0.92918800  0.60993000  1
  C  1694  1  0.24190300  0.93422200  0.59815100  1
  C  1696  1  0.22200800  0.94851400  0.60003700  1
  C  1701  1  0.22641200  0.90929900  0.56956700  1
  C  1703  1  0.29884700  0.93777700  0.61985000  1
  C  1705  1  0.77736900  0.58464300  0.91489100  1
  C  1707  1  0.73997900  0.59688800  0.90972100  1
  C  1708  1  0.74061000  0.60992500  0.92919400  1
  C  1710  1  0.77844800  0.59812300  0.93424100  1
  C  1712  1  0.79834200  0.59999600  0.94853900  1
  C  1717  1  0.79393400  0.56954000  0.90931400  1
  C  1719  1  0.72151700  0.61985500  0.93777400  1
  C  1721  1  0.24297100  0.43568900  0.91488800  1
  C  1723  1  0.28036700  0.42346500  0.90971300  1
  C  1724  1  0.27974400  0.41042800  0.92918800  1
  C  1726  1  0.24190100  0.42220800  0.93423700  1
  C  1728  1  0.22201100  0.42032200  0.94853900  1
  C  1733  1  0.22639100  0.45077200  0.90930900  1
  C  1735  1  0.29884200  0.40050600  0.93776400  1
  C  1737  1  0.77739200  0.43568400  0.10547000  1
  C  1739  1  0.73999200  0.42347000  0.11063300  1
  C  1740  1  0.74061700  0.41043100  0.09116000  1
  C  1742  1  0.77846500  0.42220300  0.08612100  1
  C  1744  1  0.79835800  0.42031200  0.07182500  1
  C  1749  1  0.79397200  0.45077100  0.11104700  1
  C  1751  1  0.72151700  0.40051900  0.08257300  1
  C  1753  1  0.24298400  0.58465900  0.10547200  1
  C  1755  1  0.28037900  0.59688400  0.11064700  1
  C  1756  1  0.27975600  0.60992500  0.09117400  1
  C  1758  1  0.24191300  0.59814300  0.08612300  1
  C  1760  1  0.22202200  0.60002700  0.07182300  1
  C  1765  1  0.22640600  0.56957000  0.11104600  1
  C  1767  1  0.29885200  0.61985000  0.08259800  1
  C  1769  1  0.58466100  0.10547200  0.24298200  1
  C  1771  1  0.59688300  0.11064600  0.28037900  1
  C  1772  1  0.60992300  0.09117400  0.27975600  1
  C  1774  1  0.59814300  0.08612300  0.24191100  1
  C  1776  1  0.60003200  0.07182300  0.22202100  1
  C  1781  1  0.56957400  0.11104700  0.22640200  1
  C  1783  1  0.61984800  0.08259900  0.29885400  1
  C  1785  1  0.43569200  0.10546800  0.77738500  1
  C  1787  1  0.42347300  0.11063000  0.73998500  1
  C  1788  1  0.41043500  0.09115700  0.74061200  1
  C  1790  1  0.42221000  0.08611800  0.77846000  1
  C  1792  1  0.42032000  0.07182300  0.79835300  1
  C  1797  1  0.45077700  0.11104700  0.79396400  1
  C  1799  1  0.40051900  0.08257100  0.72151400  1
  C  1801  1  0.43571000  0.91488800  0.24298700  1
  C  1803  1  0.42346500  0.90971300  0.28037700  1
  C  1804  1  0.41042600  0.92918600  0.27974700  1
  C  1806  1  0.42222800  0.93423700  0.24190900  1
  C  1808  1  0.42035300  0.94853800  0.22201900  1
  C  1813  1  0.45081400  0.90931400  0.22642400  1
  C  1815  1  0.40049800  0.93776200  0.29884200  1
  C  1817  1  0.58466400  0.91488900  0.77737800  1
  C  1819  1  0.59689400  0.90971900  0.73998500  1
  C  1820  1  0.60993100  0.92919400  0.74061200  1
  C  1822  1  0.59814400  0.93424100  0.77845300  1
  C  1824  1  0.60002600  0.94853900  0.79834500  1
  C  1829  1  0.56957200  0.90931400  0.79395400  1
  C  1831  1  0.61985500  0.93777400  0.72151500  1
  C  1833  1  0.10547800  0.77738800  0.43567000  1
  C  1835  1  0.11064600  0.73998900  0.42345300  1
  C  1836  1  0.09117100  0.74061200  0.41041500  1
  C  1838  1  0.08612900  0.77846000  0.42218900  1
  C  1840  1  0.07183000  0.79835000  0.42030000  1
  C  1845  1  0.11105300  0.79396700  0.45075800  1
  C  1847  1  0.08258300  0.72151000  0.40050300  1
  C  1849  1  0.10547500  0.24297400  0.58467600  1
  C  1851  1  0.11063900  0.28037200  0.59689800  1
  C  1852  1  0.09116500  0.27974400  0.60993600  1
  C  1854  1  0.08612600  0.24189800  0.59815900  1
  C  1856  1  0.07183100  0.22200400  0.60004600  1
  C  1861  1  0.11104900  0.22639900  0.56958500  1
  C  1863  1  0.08256800  0.29884200  0.61984700  1
  C  1865  1  0.91489100  0.77736000  0.58464600  1
  C  1867  1  0.90972400  0.73997000  0.59689100  1
  C  1868  1  0.92919800  0.74060400  0.60993000  1
  C  1870  1  0.93423900  0.77844200  0.59812800  1
  C  1872  1  0.94853600  0.79833700  0.60000300  1
  C  1877  1  0.90931400  0.79392400  0.56954200  1
  C  1879  1  0.93777900  0.72151200  0.61986300  1
  C  1881  1  0.91488600  0.24297700  0.43569500  1
  C  1883  1  0.90971900  0.28037600  0.42347800  1
  C  1884  1  0.92919100  0.27975100  0.41043600  1
  C  1886  1  0.93423400  0.24190400  0.42221300  1
  C  1888  1  0.94853100  0.22201100  0.42032200  1
  C  1893  1  0.90930800  0.22639700  0.45078100  1
  C  1895  1  0.93777100  0.29884700  0.40050900  1
  N  44  1  0.39127700  0.30046800  0.06329200  1
  N  45  1  0.38156500  0.28800900  0.95770400  1
  N  46  1  0.28800900  0.38155000  0.06267200  1
  N  47  1  0.30045800  0.39126900  0.95706100  1
  N  91  1  0.62907900  0.71990800  0.06328000  1
  N  92  1  0.63880100  0.73235800  0.95769200  1
  N  93  1  0.73235500  0.63882300  0.06268300  1
  N  94  1  0.71990700  0.62908400  0.95707400  1
  N  138  1  0.62907600  0.30045800  0.95707900  1
  N  139  1  0.63879400  0.28801300  0.06265400  1
  N  140  1  0.73234700  0.38154700  0.95766900  1
  N  141  1  0.71990800  0.39128200  0.06327500  1
  N  185  1  0.39126500  0.71990800  0.95706600  1
  N  186  1  0.38155000  0.73235500  0.06266400  1
  N  187  1  0.28799800  0.63882100  0.95767400  1
  N  188  1  0.30046600  0.62908700  0.06330100  1
  N  232  1  0.06328100  0.39126700  0.30045400  1
  N  233  1  0.95768700  0.38154800  0.28800600  1
  N  234  1  0.06266500  0.28800300  0.38155500  1
  N  235  1  0.95707600  0.30045100  0.39128700  1
  N  279  1  0.06328600  0.62907600  0.71990200  1
  N  280  1  0.95769400  0.63879900  0.73234000  1
  N  281  1  0.06268900  0.73235500  0.63881800  1
  N  282  1  0.95708700  0.71991100  0.62907900  1
  N  326  1  0.95707900  0.62908100  0.30045400  1
  N  327  1  0.06267700  0.63880300  0.28801600  1
  N  328  1  0.95767400  0.73234200  0.38155200  1
  N  329  1  0.06328500  0.71991000  0.39126700  1
  N  373  1  0.95708200  0.39128700  0.71990300  1
  N  374  1  0.06267700  0.38155800  0.73235000  1
  N  375  1  0.95768700  0.28801400  0.63880400  1
  N  376  1  0.06327500  0.30044800  0.62909100  1
  N  420  1  0.30046300  0.06329100  0.39127800  1
  N  421  1  0.28800800  0.95770200  0.38156300  1
  N  422  1  0.38154500  0.06267700  0.28801400  1
  N  423  1  0.39126700  0.95706200  0.30045600  1
  N  467  1  0.71990700  0.06327700  0.62906800  1
  N  468  1  0.73235700  0.95770400  0.63879600  1
  N  469  1  0.63881400  0.06267400  0.73234700  1
  N  470  1  0.62908700  0.95707200  0.71990300  1
  N  514  1  0.30044800  0.95707900  0.62907700  1
  N  515  1  0.28800300  0.06266500  0.63879900  1
  N  516  1  0.38154500  0.95767900  0.73234200  1
  N  517  1  0.39128200  0.06327300  0.71990700  1
  N  561  1  0.71990800  0.95707100  0.39127000  1
  N  562  1  0.73236800  0.06267900  0.38154800  1
  N  563  1  0.63881300  0.95769400  0.28800900  1
  N  564  1  0.62908700  0.06330300  0.30046800  1
  N  608  1  0.88993000  0.80257400  0.56635300  1
  N  609  1  0.88185600  0.78844000  0.45752700  1
  N  610  1  0.78850700  0.88180500  0.56291700  1
  N  611  1  0.80258600  0.88993000  0.45400500  1
  N  655  1  0.13043700  0.21776200  0.56637400  1
  N  656  1  0.13855400  0.23184500  0.45743900  1
  N  657  1  0.23191600  0.13849900  0.56283400  1
  N  658  1  0.21776800  0.13043900  0.45399200  1
  N  702  1  0.13044400  0.80259900  0.45397500  1
  N  703  1  0.13849800  0.78845000  0.56283400  1
  N  704  1  0.23184500  0.88179500  0.45742700  1
  N  705  1  0.21776700  0.88991200  0.56637400  1
  N  749  1  0.88991800  0.21776200  0.45398700  1
  N  750  1  0.88185800  0.23191300  0.56283300  1
  N  751  1  0.78845600  0.13849700  0.45753500  1
  N  752  1  0.80258900  0.13044200  0.56637100  1
  N  796  1  0.56636800  0.88992600  0.80259400  1
  N  797  1  0.45743700  0.88180200  0.78850900  1
  N  798  1  0.56282800  0.78845000  0.88186600  1
  N  799  1  0.45400000  0.80258600  0.88993000  1
  N  843  1  0.56636600  0.13043600  0.21776700  1
  N  844  1  0.45743900  0.13855200  0.23185800  1
  N  845  1  0.56291200  0.23186000  0.13855000  1
  N  846  1  0.45399200  0.21777200  0.13043700  1
  N  890  1  0.45398300  0.13043800  0.80259800  1
  N  891  1  0.56291500  0.13854700  0.78849900  1
  N  892  1  0.45744700  0.23185800  0.88181000  1
  N  893  1  0.56636900  0.21777000  0.88992000  1
  N  937  1  0.45400100  0.88993000  0.21777300  1
  N  938  1  0.56291200  0.88181700  0.23185800  1
  N  939  1  0.45743600  0.78850700  0.13855300  1
  N  940  1  0.56636600  0.80259100  0.13043300  1
  N  984  1  0.80258100  0.56635100  0.88992800  1
  N  985  1  0.78844100  0.45752500  0.88186000  1
  N  986  1  0.88181200  0.56290700  0.78850200  1
  N  987  1  0.88991800  0.45398000  0.80259600  1
  N  1031  1  0.21776800  0.56636300  0.13043500  1
  N  1032  1  0.23184500  0.45743600  0.13855500  1
  N  1033  1  0.13850400  0.56283400  0.23192000  1
  N  1034  1  0.13043500  0.45399500  0.21777200  1
  N  1078  1  0.80260400  0.45398300  0.13043700  1
  N  1079  1  0.78845100  0.56283900  0.13849400  1
  N  1080  1  0.88180200  0.45743200  0.23184200  1
  N  1081  1  0.88991000  0.56638400  0.21776300  1
  N  1125  1  0.21775700  0.45397800  0.88991800  1
  N  1126  1  0.23190500  0.56283400  0.88186300  1
  N  1127  1  0.13850200  0.45753300  0.78845100  1
  N  1128  1  0.13044300  0.56637100  0.80259400  1
  N  1130  1  0.43737800  0.26518100  0.90754800  1
  N  1133  1  0.41094100  0.25473800  0.94140600  1
  N  1146  1  0.58292800  0.75518300  0.90758000  1
  N  1149  1  0.60943400  0.76563600  0.94137500  1
  N  1162  1  0.58298100  0.26518300  0.11281200  1
  N  1165  1  0.60941700  0.25474100  0.07895200  1
  N  1178  1  0.43737000  0.75518300  0.11281100  1
  N  1181  1  0.41094100  0.76562400  0.07894700  1
  N  1194  1  0.90753800  0.43736200  0.26517300  1
  N  1197  1  0.94141300  0.41094200  0.25473500  1
  N  1210  1  0.90755300  0.58297100  0.75517700  1
  N  1213  1  0.94140600  0.60941500  0.76562000  1
  N  1226  1  0.11279300  0.58293800  0.26518600  1
  N  1229  1  0.07898600  0.60943200  0.25474000  1
  N  1242  1  0.11279500  0.43742300  0.75518000  1
  N  1245  1  0.07899200  0.41092600  0.76562900  1
  N  1258  1  0.26517400  0.90753300  0.43736000  1
  N  1261  1  0.25473600  0.94141000  0.41094200  1
  N  1274  1  0.75518300  0.90754700  0.58298100  1
  N  1277  1  0.76562800  0.94140600  0.60941700  1
  N  1290  1  0.26518100  0.11278600  0.58293600  1
  N  1293  1  0.25473100  0.07897600  0.60942500  1
  N  1306  1  0.75518800  0.11278600  0.43742600  1
  N  1309  1  0.76564100  0.07898200  0.41093100  1
  N  1322  1  0.26517400  0.43737000  0.11281400  1
  N  1325  1  0.25473500  0.41094200  0.07894600  1
  N  1338  1  0.75518200  0.58294300  0.11278300  1
  N  1341  1  0.76563300  0.60944200  0.07898000  1
  N  1354  1  0.26517400  0.58294100  0.90757300  1
  N  1357  1  0.25472200  0.60943700  0.94137800  1
  N  1370  1  0.75517300  0.43742800  0.90757500  1
  N  1373  1  0.76562300  0.41093100  0.94137800  1
  N  1386  1  0.43736500  0.90753800  0.75518000  1
  N  1389  1  0.41093400  0.94140300  0.76562000  1
  N  1402  1  0.58298400  0.90755700  0.26517900  1
  N  1405  1  0.60942400  0.94141300  0.25473500  1
  N  1418  1  0.58298800  0.11281000  0.75517500  1
  N  1421  1  0.60942200  0.07894900  0.76561800  1
  N  1434  1  0.43737000  0.11281400  0.26518300  1
  N  1437  1  0.41093600  0.07895300  0.25474000  1
  N  1450  1  0.90756600  0.26518600  0.58294100  1
  N  1453  1  0.94137200  0.25473600  0.60943700  1
  N  1466  1  0.90757000  0.75517200  0.43743000  1
  N  1469  1  0.94137300  0.76562000  0.41093100  1
  N  1482  1  0.11281500  0.26517300  0.43737000  1
  N  1485  1  0.07894300  0.25473300  0.41094900  1
  N  1498  1  0.11279100  0.75518000  0.58294100  1
  N  1501  1  0.07898400  0.76562900  0.60943500  1
  N  1514  1  0.58469700  0.75791300  0.11671900  1
  N  1517  1  0.60974400  0.76007600  0.07991500  1
  N  1530  1  0.43566700  0.26245100  0.11672400  1
  N  1533  1  0.41062000  0.26029200  0.07991800  1
  N  1546  1  0.43566900  0.75791000  0.90364000  1
  N  1549  1  0.41062000  0.76007600  0.94044400  1
  N  1562  1  0.58469100  0.26245400  0.90363800  1
  N  1565  1  0.60974100  0.26028700  0.94044100  1
  N  1578  1  0.11672500  0.58468600  0.75790600  1
  N  1581  1  0.07992200  0.60973600  0.76007700  1
  N  1594  1  0.11671900  0.43567000  0.26245400  1
  N  1597  1  0.07991500  0.41062300  0.26028400  1
  N  1610  1  0.90363500  0.43565700  0.75791500  1
  N  1613  1  0.94044100  0.41061200  0.76007700  1
  N  1626  1  0.90363000  0.58470400  0.26244900  1
  N  1629  1  0.94043300  0.60975300  0.26027900  1
  N  1642  1  0.75790100  0.11672200  0.58468400  1
  N  1645  1  0.76007400  0.07992300  0.60973800  1
  N  1658  1  0.26244900  0.11672300  0.43566900  1
  N  1661  1  0.26028700  0.07991900  0.41062000  1
  N  1674  1  0.75791000  0.90364300  0.43567000  1
  N  1677  1  0.76007700  0.94044600  0.41062300  1
  N  1690  1  0.26245300  0.90363300  0.58469200  1
  N  1693  1  0.26027900  0.94043300  0.60974600  1
  N  1706  1  0.75790300  0.58468200  0.90364100  1
  N  1709  1  0.76007700  0.60972800  0.94044600  1
  N  1722  1  0.26243500  0.43565900  0.90363500  1
  N  1725  1  0.26027900  0.41061300  0.94044100  1
  N  1738  1  0.75792300  0.43566000  0.11671700  1
  N  1741  1  0.76008600  0.41061200  0.07991300  1
  N  1754  1  0.26244900  0.58468900  0.11672400  1
  N  1757  1  0.26028800  0.60973900  0.07992100  1
  N  1770  1  0.58468700  0.11672300  0.26244800  1
  N  1773  1  0.60973900  0.07992100  0.26028800  1
  N  1786  1  0.43566500  0.11671400  0.75791600  1
  N  1789  1  0.41061600  0.07991000  0.76008200  1
  N  1802  1  0.43567000  0.90363500  0.26245300  1
  N  1805  1  0.41062300  0.94043900  0.26028200  1
  N  1818  1  0.58469500  0.90364000  0.75791300  1
  N  1821  1  0.60974300  0.94044600  0.76007900  1
  N  1834  1  0.11672700  0.75792100  0.43564600  1
  N  1837  1  0.07992300  0.76008100  0.41059700  1
  N  1850  1  0.11672100  0.26244100  0.58470200  1
  N  1853  1  0.07991800  0.26027500  0.60975100  1
  N  1866  1  0.90364300  0.75789300  0.58468400  1
  N  1869  1  0.94044600  0.76007200  0.60973400  1
  N  1882  1  0.90363800  0.26244400  0.43567000  1
  N  1885  1  0.94043900  0.26028200  0.41061800  1
  O  1137  1  0.41038700  0.20058600  0.92385900  1
  O  1153  1  0.61001400  0.81978600  0.92389200  1
  O  1169  1  0.60996900  0.20058800  0.09649700  1
  O  1185  1  0.41039300  0.81978000  0.09649200  1
  O  1201  1  0.92386700  0.41040200  0.20057800  1
  O  1217  1  0.92385600  0.60997100  0.81977000  1
  O  1233  1  0.09646000  0.61000200  0.20058500  1
  O  1249  1  0.09647100  0.41035200  0.81978300  1
  O  1265  1  0.20058100  0.92386200  0.41039800  1
  O  1281  1  0.81977800  0.92385700  0.60997100  1
  O  1297  1  0.20057600  0.09645100  0.60999700  1
  O  1313  1  0.81979300  0.09646400  0.41036000  1
  O  1329  1  0.20058100  0.41039700  0.09649800  1
  O  1345  1  0.81978500  0.61001100  0.09646500  1
  O  1361  1  0.20057000  0.61000700  0.92389400  1
  O  1377  1  0.81977600  0.41036200  0.92390000  1
  O  1393  1  0.41038500  0.92385400  0.81977300  1
  O  1409  1  0.60997900  0.92386100  0.20058500  1
  O  1425  1  0.60996800  0.09650200  0.81977100  1
  O  1441  1  0.41039000  0.09650500  0.20058800  1
  O  1457  1  0.92388900  0.20058300  0.61001200  1
  O  1473  1  0.92390000  0.81977500  0.41036500  1
  O  1489  1  0.09649100  0.20057800  0.41040500  1
  O  1505  1  0.09646100  0.81978500  0.61000200  1
  O  1521  1  0.60758200  0.81729800  0.08385600  1
  O  1537  1  0.41277900  0.20307000  0.08385700  1
  O  1553  1  0.41279900  0.81729500  0.93651200  1
  O  1569  1  0.60758300  0.20306800  0.93648900  1
  O  1585  1  0.08387600  0.60757200  0.81729800  1
  O  1601  1  0.08385900  0.41279900  0.20306500  1
  O  1617  1  0.93649400  0.41276600  0.81729800  1
  O  1633  1  0.93647400  0.60759500  0.20305600  1
  O  1649  1  0.81729300  0.08388200  0.60757700  1
  O  1665  1  0.20306600  0.08386400  0.41277700  1
  O  1681  1  0.81729600  0.93651100  0.41280200  1
  O  1697  1  0.20306000  0.93647300  0.60758300  1
  O  1713  1  0.81729600  0.60753500  0.93650400  1
  O  1729  1  0.20305800  0.41277100  0.93650600  1
  O  1745  1  0.81730600  0.41275900  0.08386300  1
  O  1761  1  0.20307000  0.60757500  0.08385600  1
  O  1777  1  0.60758000  0.08385800  0.20306800  1
  O  1793  1  0.41276900  0.08386300  0.81730300  1
  O  1809  1  0.41281600  0.93650400  0.20306300  1
  O  1825  1  0.60757000  0.93650400  0.81729800  1
  O  1841  1  0.08386600  0.81730100  0.41274900  1
  O  1857  1  0.08386800  0.20305500  0.60759300  1
  O  1873  1  0.93649800  0.81729100  0.60754200  1
  O  1889  1  0.93649300  0.20306300  0.41277100  1
