# generated using pymatgen
data_H7C16(NO)4
_symmetry_space_group_name_H-M   'P 1'
_cell_length_a   23.37890000
_cell_length_b   54.91600000
_cell_length_c   54.91600000
_cell_angle_alpha   90.00000000
_cell_angle_beta   90.00000000
_cell_angle_gamma   90.00000000
_symmetry_Int_Tables_number   1
_chemical_formula_structural   H7C16(NO)4
_chemical_formula_sum   'H448 C1024 N256 O256'
_cell_volume   70505.31642552
_cell_formula_units_Z   64
loop_
 _symmetry_equiv_pos_site_id
 _symmetry_equiv_pos_as_xyz
  1  'x, y, z'
loop_
 _atom_site_type_symbol
 _atom_site_label
 _atom_site_symmetry_multiplicity
 _atom_site_fract_x
 _atom_site_fract_y
 _atom_site_fract_z
 _atom_site_occupancy
  C  1  1  0.13816200  0.14720500  0.37228900  1
  C  2  1  0.17809600  0.12767500  0.37578500  1
  C  3  1  0.19930500  0.11388600  0.35573100  1
  C  4  1  0.18166900  0.12096600  0.33223500  1
  C  5  1  0.14338200  0.14037700  0.32795600  1
  C  6  1  0.12031300  0.15320400  0.34818100  1
  C  7  1  0.19742600  0.12292100  0.39959800  1
  C  8  1  0.07855900  0.17152800  0.34513800  1
  C  10  1  0.11621900  0.16079700  0.39265400  1
  C  11  1  0.13746900  0.15574000  0.41650700  1
  C  12  1  0.11743100  0.16945400  0.43679500  1
  C  13  1  0.07506300  0.18744600  0.43294300  1
  C  14  1  0.05159800  0.19273400  0.40973100  1
  C  15  1  0.07371600  0.17941900  0.38930700  1
  C  16  1  0.17894700  0.13712200  0.41928800  1
  C  18  1  0.05466100  0.18371200  0.36523400  1
  C  27  1  0.13809100  0.87044300  0.60323100  1
  C  28  1  0.17802300  0.88997200  0.59972500  1
  C  29  1  0.19923500  0.90377000  0.61977200  1
  C  30  1  0.18159100  0.89670300  0.64327200  1
  C  31  1  0.14325300  0.87730900  0.64756400  1
  C  32  1  0.12024900  0.86445500  0.62734200  1
  C  33  1  0.19734900  0.89471400  0.57591100  1
  C  34  1  0.07852400  0.84612000  0.63039400  1
  C  36  1  0.11615600  0.85683600  0.58287000  1
  C  37  1  0.13739300  0.86188600  0.55901200  1
  C  38  1  0.11735800  0.84816700  0.53872900  1
  C  39  1  0.07500300  0.83016800  0.54259300  1
  C  40  1  0.05157500  0.82487100  0.56581200  1
  C  41  1  0.07367400  0.83820800  0.58622700  1
  C  42  1  0.17885300  0.88051200  0.55622600  1
  C  44  1  0.05463100  0.83392500  0.61030500  1
  C  53  1  0.89745000  0.39373600  0.84852000  1
  C  54  1  0.85758600  0.39720000  0.86807300  1
  C  55  1  0.83672000  0.37713100  0.88192900  1
  C  56  1  0.85450200  0.35364900  0.87485700  1
  C  57  1  0.89259100  0.34938500  0.85537200  1
  C  58  1  0.91541200  0.36963900  0.84250700  1
  C  59  1  0.83808000  0.42098900  0.87282800  1
  C  60  1  0.95706800  0.36664600  0.82413900  1
  C  62  1  0.91917400  0.41413300  0.83491600  1
  C  63  1  0.89776200  0.43796500  0.83997100  1
  C  64  1  0.91759600  0.45828000  0.82624000  1
  C  65  1  0.96002000  0.45448200  0.80826400  1
  C  66  1  0.98362200  0.43129300  0.80298900  1
  C  67  1  0.96164400  0.41083100  0.81628000  1
  C  68  1  0.85630200  0.44069500  0.85859500  1
  C  70  1  0.98083300  0.38677600  0.81196600  1
  C  79  1  0.89723200  0.62397000  0.12696800  1
  C  80  1  0.85734200  0.62051000  0.10741900  1
  C  81  1  0.83649400  0.64057300  0.09355500  1
  C  82  1  0.85433800  0.66405100  0.10060600  1
  C  83  1  0.89245000  0.66831200  0.12008300  1
  C  84  1  0.91525200  0.64805900  0.13295900  1
  C  85  1  0.83775400  0.59672800  0.10269300  1
  C  86  1  0.95694000  0.65104900  0.15131700  1
  C  88  1  0.91891400  0.60357500  0.14059000  1
  C  89  1  0.89741600  0.57975300  0.13556200  1
  C  90  1  0.91720300  0.55943800  0.14930100  1
  C  91  1  0.95961300  0.56323000  0.16728600  1
  C  92  1  0.98333100  0.58640700  0.17253000  1
  C  93  1  0.96141000  0.60686900  0.15921700  1
  C  94  1  0.85594200  0.57702700  0.11693900  1
  C  96  1  0.98066200  0.63091700  0.16350700  1
  C  105  1  0.64681000  0.37015100  0.37192100  1
  C  106  1  0.60753400  0.38987900  0.37559200  1
  C  107  1  0.58616600  0.40373500  0.35560000  1
  C  108  1  0.60324000  0.39658000  0.33203500  1
  C  109  1  0.64053900  0.37686100  0.32760400  1
  C  110  1  0.66351200  0.36387200  0.34772800  1
  C  111  1  0.58903100  0.39471000  0.39952100  1
  C  112  1  0.70357400  0.34490900  0.34444100  1
  C  114  1  0.66900400  0.35654700  0.39221400  1
  C  115  1  0.64851600  0.36156000  0.41617800  1
  C  116  1  0.66846600  0.34749100  0.43627200  1
  C  117  1  0.71035000  0.32929200  0.43214400  1
  C  118  1  0.73353800  0.32426400  0.40875200  1
  C  119  1  0.71072600  0.33772100  0.38863700  1
  C  120  1  0.60761200  0.38039000  0.41913100  1
  C  122  1  0.72749600  0.33257500  0.36441700  1
  C  131  1  0.64648800  0.64744600  0.60360800  1
  C  132  1  0.60723200  0.62772100  0.59988200  1
  C  133  1  0.58580200  0.61384000  0.61983800  1
  C  134  1  0.60280200  0.62095200  0.64342300  1
  C  135  1  0.64013600  0.64064400  0.64792100  1
  C  136  1  0.66310200  0.65369100  0.62782500  1
  C  137  1  0.58879600  0.62291700  0.57594000  1
  C  138  1  0.70310600  0.67266900  0.63115300  1
  C  140  1  0.66872600  0.66107900  0.58334000  1
  C  141  1  0.64831100  0.65608800  0.55935600  1
  C  142  1  0.66830800  0.67017700  0.53928600  1
  C  143  1  0.71018300  0.68836800  0.54345400  1
  C  144  1  0.73331000  0.69337400  0.56686600  1
  C  145  1  0.71042600  0.67990400  0.58695900  1
  C  146  1  0.60743800  0.63725500  0.55635700  1
  C  148  1  0.72708200  0.68503000  0.61120100  1
  C  157  1  0.88636800  0.12434100  0.84955400  1
  C  158  1  0.92713500  0.12094800  0.86879600  1
  C  159  1  0.94652400  0.14091600  0.88318000  1
  C  160  1  0.92604800  0.16423900  0.87700000  1
  C  161  1  0.88917000  0.16855000  0.85714200  1
  C  162  1  0.86650800  0.14832500  0.84419700  1
  C  163  1  0.94842000  0.09731800  0.87290300  1
  C  164  1  0.82413800  0.15124000  0.82612900  1
  C  166  1  0.86534000  0.10397200  0.83572000  1
  C  167  1  0.88806200  0.08026400  0.84030600  1
  C  168  1  0.86835200  0.05993300  0.82657200  1
  C  169  1  0.82535600  0.06363300  0.80882300  1
  C  170  1  0.80084600  0.08672200  0.80386300  1
  C  171  1  0.82211300  0.10717200  0.81738100  1
  C  172  1  0.93058600  0.07766100  0.85851500  1
  C  174  1  0.80139400  0.13109400  0.81361900  1
  C  183  1  0.88629900  0.89325700  0.12586500  1
  C  184  1  0.92707300  0.89665000  0.10662400  1
  C  185  1  0.94651800  0.87667900  0.09225400  1
  C  186  1  0.92603600  0.85335800  0.09843900  1
  C  187  1  0.88914000  0.84905200  0.11829100  1
  C  188  1  0.86646000  0.86927300  0.13123100  1
  C  189  1  0.94833800  0.92028200  0.10251700  1
  C  190  1  0.82409400  0.86635600  0.14930200  1
  C  192  1  0.86525000  0.91362300  0.13970000  1
  C  193  1  0.88795800  0.93733200  0.13511100  1
  C  194  1  0.86821800  0.95766300  0.14883700  1
  C  195  1  0.82527000  0.95395700  0.16660700  1
  C  196  1  0.80076400  0.93086900  0.17156800  1
  C  197  1  0.82203200  0.91042200  0.15804200  1
  C  198  1  0.93047400  0.93994000  0.11689800  1
  C  200  1  0.80134200  0.88649800  0.16181300  1
  C  209  1  0.63643700  0.64716300  0.87294600  1
  C  210  1  0.67728600  0.62794800  0.87631000  1
  C  211  1  0.69662200  0.61356500  0.85633200  1
  C  212  1  0.67579300  0.61964800  0.83303800  1
  C  213  1  0.63875600  0.63945700  0.82876300  1
  C  214  1  0.61632000  0.65246000  0.84899000  1
  C  215  1  0.69875800  0.62389000  0.89991700  1
  C  216  1  0.57394000  0.67052800  0.84609600  1
  C  218  1  0.61555400  0.66102800  0.89331800  1
  C  219  1  0.63838800  0.65646100  0.91700800  1
  C  220  1  0.61870400  0.67018200  0.93735200  1
  C  221  1  0.57578000  0.68796700  0.93366500  1
  C  222  1  0.55126600  0.69294200  0.91058400  1
  C  223  1  0.57233600  0.67937100  0.89013800  1
  C  224  1  0.68095600  0.63826600  0.91958700  1
  C  226  1  0.55144200  0.68310900  0.86624300  1
  C  235  1  0.63733100  0.37009300  0.10261300  1
  C  236  1  0.67593000  0.39011400  0.09915700  1
  C  237  1  0.69555400  0.40430900  0.11921700  1
  C  238  1  0.67635400  0.39758400  0.14258600  1
  C  239  1  0.64169400  0.37702000  0.14690700  1
  C  240  1  0.62002400  0.36373800  0.12671400  1
  C  241  1  0.69519600  0.39508500  0.07537800  1
  C  242  1  0.58229800  0.34392400  0.12985200  1
  C  244  1  0.61647000  0.35627900  0.08220600  1
  C  245  1  0.63747200  0.36161400  0.05836700  1
  C  246  1  0.61934900  0.34736200  0.03812100  1
  C  247  1  0.57920200  0.32848200  0.04202800  1
  C  248  1  0.55507300  0.32326700  0.06512800  1
  C  249  1  0.57631000  0.33676200  0.08558100  1
  C  250  1  0.67762000  0.38075600  0.05563900  1
  C  252  1  0.56081800  0.33090600  0.10979200  1
  C  261  1  0.39613900  0.89361100  0.34897000  1
  C  262  1  0.35683500  0.89734700  0.36867200  1
  C  263  1  0.33560500  0.87739700  0.38261500  1
  C  264  1  0.35277600  0.85381000  0.37558500  1
  C  265  1  0.39014500  0.84931600  0.35590900  1
  C  266  1  0.41297400  0.86940100  0.34280900  1
  C  267  1  0.33823700  0.92128000  0.37341400  1
  C  268  1  0.45302400  0.86606300  0.32385300  1
  C  270  1  0.41821900  0.91386700  0.33528000  1
  C  271  1  0.39764400  0.93784000  0.34019600  1
  C  272  1  0.41753000  0.95789400  0.32605300  1
  C  273  1  0.45946600  0.95372400  0.30788900  1
  C  274  1  0.48267400  0.93031900  0.30293900  1
  C  275  1  0.45994800  0.91024000  0.31647100  1
  C  276  1  0.35670900  0.94084100  0.35900300  1
  C  278  1  0.47684000  0.88601000  0.31143200  1
  C  287  1  0.39617400  0.12403700  0.62653200  1
  C  288  1  0.35686000  0.12031000  0.60683100  1
  C  289  1  0.33560500  0.14026600  0.59290800  1
  C  290  1  0.35279600  0.16384900  0.59993700  1
  C  291  1  0.39018500  0.16833700  0.61960700  1
  C  292  1  0.41301700  0.14824600  0.63269800  1
  C  293  1  0.33824600  0.09638000  0.60208500  1
  C  294  1  0.45308400  0.15157300  0.65164800  1
  C  296  1  0.41826200  0.10377400  0.64020900  1
  C  297  1  0.39769300  0.07980200  0.63528000  1
  C  298  1  0.41761500  0.05973500  0.64939600  1
  C  299  1  0.45951600  0.06390400  0.66757400  1
  C  300  1  0.48272600  0.08730800  0.67253300  1
  C  301  1  0.45999600  0.10739500  0.65901600  1
  C  302  1  0.35675700  0.07681000  0.61647300  1
  C  304  1  0.47690000  0.13162200  0.66406000  1
  C  313  1  0.14850500  0.87057400  0.87252200  1
  C  314  1  0.10835900  0.88999100  0.87616600  1
  C  315  1  0.08866900  0.90442700  0.85628600  1
  C  316  1  0.10859300  0.89826700  0.83286300  1
  C  317  1  0.14474100  0.87822200  0.82834000  1
  C  318  1  0.16729900  0.86503600  0.84841400  1
  C  319  1  0.08789500  0.89412200  0.89993100  1
  C  320  1  0.20805500  0.84636000  0.84516900  1
  C  322  1  0.16977200  0.85666500  0.89278200  1
  C  323  1  0.14782600  0.86115000  0.91662400  1
  C  324  1  0.16751800  0.84702300  0.93672200  1
  C  325  1  0.20994900  0.82904300  0.93267200  1
  C  326  1  0.23409500  0.82437800  0.90938200  1
  C  327  1  0.21222500  0.83813000  0.88928000  1
  C  328  1  0.10587900  0.87957500  0.91946800  1
  C  330  1  0.23074200  0.83361200  0.86515600  1
  C  339  1  0.14812900  0.14707300  0.10303000  1
  C  340  1  0.10825500  0.12754800  0.09942000  1
  C  341  1  0.08861700  0.11315100  0.11933100  1
  C  342  1  0.10837600  0.11942300  0.14274700  1
  C  343  1  0.14425100  0.13956900  0.14723100  1
  C  344  1  0.16673700  0.15274200  0.12713100  1
  C  345  1  0.08798100  0.12324600  0.07565600  1
  C  346  1  0.20719000  0.17154900  0.13033700  1
  C  348  1  0.16930100  0.16095900  0.08274000  1
  C  349  1  0.14749100  0.15630100  0.05891100  1
  C  350  1  0.16688600  0.17043700  0.03878900  1
  C  351  1  0.20896600  0.18855500  0.04278500  1
  C  352  1  0.23327000  0.19335500  0.06603700  1
  C  353  1  0.21139500  0.17966200  0.08619400  1
  C  354  1  0.10589100  0.13774000  0.05607700  1
  C  356  1  0.22972800  0.18431400  0.11032700  1
  C  365  1  0.38718600  0.62437400  0.35006200  1
  C  366  1  0.42744500  0.62073900  0.36944600  1
  C  367  1  0.44714600  0.64062200  0.38389200  1
  C  368  1  0.42714500  0.66404000  0.37774400  1
  C  369  1  0.39086000  0.66854000  0.35774100  1
  C  370  1  0.36830600  0.64847300  0.34455500  1
  C  371  1  0.44794000  0.59697400  0.37354500  1
  C  372  1  0.32749100  0.65172800  0.32590300  1
  C  374  1  0.36588900  0.60412500  0.33614400  1
  C  375  1  0.38788400  0.58028800  0.34059900  1
  C  376  1  0.36816900  0.56020300  0.32645500  1
  C  377  1  0.32564800  0.56425300  0.30851000  1
  C  378  1  0.30145600  0.58754100  0.30386800  1
  C  379  1  0.32337600  0.60762800  0.31762900  1
  C  380  1  0.42993000  0.57744600  0.35898500  1
  C  382  1  0.30479700  0.63175200  0.31314900  1
  C  391  1  0.38717100  0.39321300  0.62542100  1
  C  392  1  0.42741100  0.39684600  0.60603300  1
  C  393  1  0.44716800  0.37695800  0.59161500  1
  C  394  1  0.42721300  0.35353600  0.59777700  1
  C  395  1  0.39092600  0.34904200  0.61778000  1
  C  396  1  0.36834100  0.36911500  0.63095100  1
  C  397  1  0.44787000  0.42061400  0.60191000  1
  C  398  1  0.32754300  0.36586100  0.64961100  1
  C  400  1  0.36584600  0.41346800  0.63932000  1
  C  401  1  0.38778600  0.43730800  0.63483900  1
  C  402  1  0.36801500  0.45740400  0.64895100  1
  C  403  1  0.32555800  0.45335300  0.66692300  1
  C  404  1  0.30142900  0.43005900  0.67159100  1
  C  405  1  0.32336400  0.40996500  0.65784700  1
  C  406  1  0.42980200  0.44015200  0.61644200  1
  C  408  1  0.30482600  0.38584000  0.66235000  1
  C  417  1  0.94240000  0.24229900  0.40241700  1
  C  418  1  0.91121000  0.25377700  0.38349100  1
  C  419  1  0.86376600  0.26954500  0.38788200  1
  C  420  1  0.84587800  0.27496200  0.41211100  1
  C  421  1  0.87776200  0.26375800  0.43135000  1
  C  423  1  0.92450000  0.24782400  0.42635100  1
  C  431  1  0.99106400  0.22779700  0.39728900  1
  C  433  1  0.79698800  0.28953900  0.41763600  1
  C  435  1  0.94227600  0.77533000  0.57315900  1
  C  436  1  0.91112400  0.76385400  0.59209700  1
  C  437  1  0.86365400  0.74809000  0.58772700  1
  C  438  1  0.84570600  0.74267300  0.56350600  1
  C  439  1  0.87755200  0.75387500  0.54425500  1
  C  441  1  0.92430800  0.76980700  0.54923400  1
  C  449  1  0.99095800  0.78983400  0.57827300  1
  C  451  1  0.79679600  0.72809600  0.55800000  1
  C  453  1  0.09257400  0.42396400  0.75341500  1
  C  454  1  0.12359100  0.40497700  0.74196300  1
  C  455  1  0.17117600  0.40928700  0.72625900  1
  C  456  1  0.18934600  0.43349000  0.72090000  1
  C  457  1  0.15766700  0.45279000  0.73208200  1
  C  459  1  0.11076300  0.44787200  0.74794600  1
  C  467  1  0.04383300  0.41891600  0.76787500  1
  C  469  1  0.23842500  0.43890000  0.70643600  1
  C  471  1  0.09244700  0.59370000  0.22207400  1
  C  472  1  0.12349200  0.61267100  0.23354200  1
  C  473  1  0.17107700  0.60834200  0.24924400  1
  C  474  1  0.18924400  0.58413400  0.25458200  1
  C  475  1  0.15755200  0.56484800  0.24337400  1
  C  477  1  0.11064600  0.56978500  0.22751500  1
  C  485  1  0.04369800  0.59876900  0.20761700  1
  C  487  1  0.23832600  0.57870000  0.26904700  1
  C  489  1  0.69134600  0.09392200  0.75449300  1
  C  490  1  0.65989800  0.11281700  0.74309900  1
  C  491  1  0.61248000  0.10836600  0.72734000  1
  C  492  1  0.59490400  0.08411100  0.72185700  1
  C  493  1  0.62703600  0.06490500  0.73297800  1
  C  495  1  0.67375200  0.06996000  0.74890100  1
  C  503  1  0.73992000  0.09911900  0.76900900  1
  C  505  1  0.54603500  0.07852800  0.70731300  1
  C  507  1  0.69126800  0.92368800  0.22095600  1
  C  508  1  0.65988200  0.90479700  0.23238800  1
  C  509  1  0.61246200  0.90924900  0.24814600  1
  C  510  1  0.59482600  0.93350400  0.25359500  1
  C  511  1  0.62688600  0.95270600  0.24242900  1
  C  513  1  0.67360300  0.94764800  0.22650600  1
  C  521  1  0.73983000  0.91848000  0.20643000  1
  C  523  1  0.54596200  0.93908600  0.26814600  1
  C  525  1  0.44206600  0.74234900  0.90330700  1
  C  526  1  0.41061500  0.75357900  0.88432600  1
  C  527  1  0.36301600  0.76925700  0.88866500  1
  C  528  1  0.34516600  0.77476400  0.91288400  1
  C  529  1  0.37751100  0.76376900  0.93220400  1
  C  531  1  0.42446000  0.74809200  0.92723500  1
  C  539  1  0.49072400  0.72786500  0.89820900  1
  C  541  1  0.29607000  0.78924800  0.91807900  1
  C  543  1  0.43232200  0.27995500  0.07183400  1
  C  544  1  0.39587000  0.27071400  0.09027300  1
  C  545  1  0.35407100  0.25228400  0.08588400  1
  C  546  1  0.34648700  0.24239400  0.06209600  1
  C  547  1  0.38423900  0.25113500  0.04351800  1
  C  549  1  0.42601100  0.26936200  0.04855700  1
  C  557  1  0.46816600  0.30027300  0.07620400  1
  C  559  1  0.30052200  0.22649900  0.05585000  1
  C  561  1  0.17337000  0.15050400  0.49643500  1
  C  562  1  0.18036400  0.12885200  0.51016100  1
  C  563  1  0.21139100  0.12816000  0.53241500  1
  C  564  1  0.23698700  0.14974300  0.54158000  1
  C  565  1  0.23202600  0.17153400  0.52761900  1
  C  567  1  0.20082100  0.17159300  0.50543800  1
  C  575  1  0.14155400  0.15035600  0.47468500  1
  C  577  1  0.26153400  0.15082400  0.56485000  1
  C  579  1  0.17331800  0.86713400  0.47908600  1
  C  580  1  0.18030800  0.88879200  0.46536700  1
  C  581  1  0.21132800  0.88949500  0.44311200  1
  C  582  1  0.23695800  0.86792200  0.43393900  1
  C  583  1  0.23201300  0.84612700  0.44789500  1
  C  585  1  0.20079700  0.84605400  0.47007800  1
  C  593  1  0.14149100  0.86727000  0.50083600  1
  C  595  1  0.26149300  0.86685300  0.41066200  1
  C  597  1  0.86116600  0.51787500  0.84515700  1
  C  598  1  0.85355600  0.53152500  0.86682100  1
  C  599  1  0.82201000  0.55365300  0.86749600  1
  C  600  1  0.79649200  0.56279600  0.84587600  1
  C  601  1  0.80216800  0.54890400  0.82406300  1
  C  603  1  0.83394000  0.52686500  0.82401700  1
  C  611  1  0.89320200  0.49618000  0.84533700  1
  C  613  1  0.77049000  0.58581700  0.84486200  1
  C  615  1  0.86024200  0.49996200  0.13039500  1
  C  616  1  0.85237100  0.48641600  0.10868300  1
  C  617  1  0.82056400  0.46436200  0.10795600  1
  C  618  1  0.79502000  0.45521400  0.12956300  1
  C  619  1  0.80103400  0.46897600  0.15143600  1
  C  621  1  0.83304600  0.49095000  0.15153400  1
  C  629  1  0.89259100  0.52157000  0.13026200  1
  C  631  1  0.76921400  0.43216800  0.13052500  1
  C  633  1  0.61225200  0.36610800  0.49601400  1
  C  634  1  0.60452800  0.38776700  0.50966200  1
  C  635  1  0.57277200  0.38844100  0.53173600  1
  C  636  1  0.54713800  0.36682600  0.54082300  1
  C  637  1  0.55296400  0.34501100  0.52694100  1
  C  639  1  0.58491200  0.34496900  0.50494600  1
  C  647  1  0.64448700  0.36631200  0.47436500  1
  C  649  1  0.52122200  0.36578200  0.56385600  1
  C  651  1  0.61222800  0.65156100  0.47950500  1
  C  652  1  0.60455000  0.62989100  0.46586400  1
  C  653  1  0.57280200  0.62919600  0.44378700  1
  C  654  1  0.54710800  0.65079200  0.43469000  1
  C  655  1  0.55288300  0.67261500  0.44856300  1
  C  657  1  0.58483000  0.67268200  0.47056300  1
  C  665  1  0.64444800  0.65137500  0.50116200  1
  C  667  1  0.52120000  0.65181200  0.41164700  1
  C  669  1  0.92519800  0.00044300  0.84555900  1
  C  670  1  0.93280600  0.98680200  0.86723200  1
  C  671  1  0.96405800  0.96459900  0.86788000  1
  C  672  1  0.98927200  0.95538500  0.84623100  1
  C  673  1  0.98359600  0.96925500  0.82440900  1
  C  675  1  0.95212000  0.99136700  0.82438500  1
  C  683  1  0.89338600  0.02219600  0.84575000  1
  C  685  1  0.01483400  0.93228800  0.84520000  1
  C  687  1  0.92520200  0.01714000  0.12992700  1
  C  688  1  0.93288000  0.03078800  0.10826500  1
  C  689  1  0.96415200  0.05298500  0.10764300  1
  C  690  1  0.98929800  0.06218400  0.12931400  1
  C  691  1  0.98353600  0.04831100  0.15113100  1
  C  693  1  0.95205000  0.02620400  0.15112400  1
  C  701  1  0.89334400  0.99540300  0.12971300  1
  C  703  1  0.01477400  0.08529200  0.13038000  1
  C  705  1  0.67512600  0.65108600  0.99686800  1
  C  706  1  0.68197400  0.62943600  0.01061500  1
  C  707  1  0.71269800  0.62875500  0.03294700  1
  C  708  1  0.73811800  0.65035000  0.04218200  1
  C  709  1  0.73329000  0.67213800  0.02820600  1
  C  711  1  0.70238200  0.67218500  0.00594800  1
  C  719  1  0.64359300  0.65094000  0.97504400  1
  C  721  1  0.76262000  0.65142600  0.06546800  1
  C  723  1  0.67491600  0.36646700  0.97845700  1
  C  724  1  0.68160200  0.38813100  0.96472300  1
  C  725  1  0.71249700  0.38887400  0.94243600  1
  C  726  1  0.73825100  0.36733200  0.93324400  1
  C  727  1  0.73361400  0.34554100  0.94722300  1
  C  729  1  0.70253600  0.34543000  0.96943600  1
  C  737  1  0.64297800  0.36650400  0.00016800  1
  C  739  1  0.76275400  0.36628900  0.90996100  1
  C  741  1  0.36232200  0.01778500  0.34489200  1
  C  742  1  0.35730400  0.03190100  0.36639600  1
  C  743  1  0.32633300  0.05416200  0.36721700  1
  C  744  1  0.29881200  0.06298000  0.34591800  1
  C  745  1  0.30175100  0.04853700  0.32427900  1
  C  747  1  0.33276500  0.02639200  0.32414800  1
  C  755  1  0.39408600  0.99599600  0.34495600  1
  C  757  1  0.27407100  0.08620800  0.34512900  1
  C  759  1  0.36229300  0.99985500  0.63057600  1
  C  760  1  0.35725400  0.98573900  0.60907400  1
  C  761  1  0.32627600  0.96348100  0.60825500  1
  C  762  1  0.29878500  0.95465800  0.62956000  1
  C  763  1  0.30175100  0.96909900  0.65120200  1
  C  765  1  0.33276500  0.99124500  0.65132600  1
  C  773  1  0.39406800  0.02164300  0.63051100  1
  C  775  1  0.27406300  0.93142500  0.63035800  1
  C  777  1  0.11088100  0.86564800  0.99641300  1
  C  778  1  0.10325900  0.88729200  0.01010200  1
  C  779  1  0.07172200  0.88793800  0.03223600  1
  C  780  1  0.04620700  0.86631100  0.04135900  1
  C  781  1  0.05195200  0.84451200  0.02744200  1
  C  783  1  0.08368600  0.84449600  0.00538900  1
  C  791  1  0.14288600  0.86587400  0.97470000  1
  C  793  1  0.02030800  0.86524900  0.06440700  1
  C  795  1  0.11052300  0.15187000  0.97906700  1
  C  796  1  0.10301500  0.13023700  0.96535700  1
  C  797  1  0.07161300  0.12960800  0.94319200  1
  C  798  1  0.04613100  0.15124300  0.93406700  1
  C  799  1  0.05177400  0.17303300  0.94800300  1
  C  801  1  0.08338200  0.17303300  0.97008600  1
  C  809  1  0.14253000  0.15163900  0.00077100  1
  C  811  1  0.02034900  0.15230900  0.91100100  1
  C  813  1  0.42436600  0.50047700  0.34523800  1
  C  814  1  0.43141000  0.48674400  0.36689100  1
  C  815  1  0.46237400  0.46446800  0.36758000  1
  C  816  1  0.48790800  0.45527600  0.34599400  1
  C  817  1  0.48293600  0.46925100  0.32420800  1
  C  819  1  0.45177000  0.49145100  0.32415000  1
  C  827  1  0.39264400  0.52226700  0.34541000  1
  C  829  1  0.51247000  0.43198900  0.34492000  1
  C  831  1  0.42408400  0.51712500  0.63013400  1
  C  832  1  0.43107600  0.53084400  0.60847000  1
  C  833  1  0.46197600  0.55313400  0.60776100  1
  C  834  1  0.48747000  0.56235400  0.62934300  1
  C  835  1  0.48252900  0.54840300  0.65114600  1
  C  837  1  0.45143600  0.52618600  0.65122000  1
  C  845  1  0.39240100  0.49532800  0.62998600  1
  C  847  1  0.51191000  0.58566200  0.63040300  1
  C  849  1  0.12154500  0.13847100  0.26280900  1
  C  850  1  0.12979200  0.11934300  0.24596900  1
  C  851  1  0.13324800  0.12352200  0.22062100  1
  C  852  1  0.12979600  0.14773500  0.21152000  1
  C  853  1  0.12265800  0.16728900  0.22822900  1
  C  855  1  0.11952200  0.16247500  0.25361100  1
  C  863  1  0.11720100  0.13267000  0.28743900  1
  C  865  1  0.12099000  0.15132600  0.18672000  1
  C  867  1  0.12182400  0.87920900  0.71275100  1
  C  868  1  0.13021700  0.89834200  0.72957300  1
  C  869  1  0.13373100  0.89418200  0.75492200  1
  C  870  1  0.13028300  0.86997600  0.76404900  1
  C  871  1  0.12304300  0.85041600  0.74735500  1
  C  873  1  0.11980900  0.85521200  0.72196800  1
  C  881  1  0.11736600  0.88498800  0.68811500  1
  C  883  1  0.12148100  0.86640500  0.78884900  1
  C  885  1  0.91364800  0.28418100  0.85735700  1
  C  886  1  0.90490200  0.26751200  0.87659700  1
  C  887  1  0.90062200  0.24215400  0.87260200  1
  C  888  1  0.90361800  0.23286700  0.84844300  1
  C  889  1  0.91127400  0.24940500  0.82878100  1
  C  891  1  0.91526100  0.27480300  0.83341700  1
  C  899  1  0.91873800  0.30883700  0.86299500  1
  C  901  1  0.91198000  0.20800100  0.84509500  1
  C  903  1  0.91358800  0.73350400  0.11809700  1
  C  904  1  0.90501200  0.75019700  0.09885900  1
  C  905  1  0.90077800  0.77555200  0.10287400  1
  C  906  1  0.90370800  0.78481000  0.12704000  1
  C  907  1  0.91118000  0.76825600  0.14670600  1
  C  909  1  0.91512000  0.74286000  0.14204700  1
  C  917  1  0.91862300  0.70885000  0.11244700  1
  C  919  1  0.91205800  0.80966800  0.13050500  1
  C  921  1  0.66257600  0.37843100  0.26246100  1
  C  922  1  0.65423000  0.39748500  0.24555500  1
  C  923  1  0.65142000  0.39322600  0.22021100  1
  C  924  1  0.65568000  0.36900400  0.21118800  1
  C  925  1  0.66282800  0.34951600  0.22796800  1
  C  927  1  0.66530400  0.35440700  0.25334900  1
  C  935  1  0.66679800  0.38432700  0.28705900  1
  C  937  1  0.66519400  0.36541300  0.18644300  1
  C  939  1  0.66079600  0.63884500  0.71315900  1
  C  940  1  0.65234800  0.61967600  0.72993200  1
  C  941  1  0.64869200  0.62378900  0.75528700  1
  C  942  1  0.65201600  0.64798300  0.76446100  1
  C  943  1  0.65933800  0.66757300  0.74780200  1
  C  945  1  0.66271800  0.66282500  0.72241300  1
  C  953  1  0.66572400  0.63310900  0.68853400  1
  C  955  1  0.66092400  0.65152300  0.78926200  1
  C  957  1  0.41248100  0.78420500  0.35809400  1
  C  958  1  0.40461700  0.76750000  0.37736900  1
  C  959  1  0.40146500  0.74211400  0.37338700  1
  C  960  1  0.40478700  0.73285600  0.34923000  1
  C  961  1  0.41158000  0.74941800  0.32953400  1
  C  963  1  0.41446000  0.77484000  0.33415600  1
  C  971  1  0.41676700  0.80888100  0.36369000  1
  C  973  1  0.41373700  0.70804700  0.34587600  1
  C  975  1  0.41256000  0.23345300  0.61743400  1
  C  976  1  0.40493400  0.25018400  0.59816500  1
  C  977  1  0.40182300  0.27556600  0.60216400  1
  C  978  1  0.40500300  0.28479500  0.62633100  1
  C  979  1  0.41154300  0.26821500  0.64602900  1
  C  981  1  0.41438100  0.24279600  0.64138500  1
  C  989  1  0.41677400  0.20877700  0.61182600  1
  C  991  1  0.41393800  0.30959800  0.62980200  1
  C  1985  1  0.52312400  0.14720500  0.37228900  1
  C  1986  1  0.56305800  0.12767500  0.37578500  1
  C  1987  1  0.58426700  0.11388600  0.35573100  1
  C  1988  1  0.56663100  0.12096600  0.33223500  1
  C  1989  1  0.52834400  0.14037700  0.32795600  1
  C  1990  1  0.50527500  0.15320400  0.34818100  1
  C  1991  1  0.58238800  0.12292100  0.39959800  1
  C  1992  1  0.46352100  0.17152800  0.34513800  1
  C  1994  1  0.50118100  0.16079700  0.39265400  1
  C  1995  1  0.52243100  0.15574000  0.41650700  1
  C  1996  1  0.50239300  0.16945400  0.43679500  1
  C  1997  1  0.46002500  0.18744600  0.43294300  1
  C  1998  1  0.43656000  0.19273400  0.40973100  1
  C  1999  1  0.45867800  0.17941900  0.38930700  1
  C  2000  1  0.56390900  0.13712200  0.41928800  1
  C  2002  1  0.43962300  0.18371200  0.36523400  1
  C  2011  1  0.52305300  0.87044300  0.60323100  1
  C  2012  1  0.56298500  0.88997200  0.59972500  1
  C  2013  1  0.58419700  0.90377000  0.61977200  1
  C  2014  1  0.56655300  0.89670300  0.64327200  1
  C  2015  1  0.52821500  0.87730900  0.64756400  1
  C  2016  1  0.50521100  0.86445500  0.62734200  1
  C  2017  1  0.58231100  0.89471400  0.57591100  1
  C  2018  1  0.46348600  0.84612000  0.63039400  1
  C  2020  1  0.50111800  0.85683600  0.58287000  1
  C  2021  1  0.52235500  0.86188600  0.55901200  1
  C  2022  1  0.50232000  0.84816700  0.53872900  1
  C  2023  1  0.45996500  0.83016800  0.54259300  1
  C  2024  1  0.43653700  0.82487100  0.56581200  1
  C  2025  1  0.45863600  0.83820800  0.58622700  1
  C  2026  1  0.56381500  0.88051200  0.55622600  1
  C  2028  1  0.43959300  0.83392500  0.61030500  1
  C  2037  1  0.28241200  0.39373600  0.84852000  1
  C  2038  1  0.24254800  0.39720000  0.86807300  1
  C  2039  1  0.22168200  0.37713100  0.88192900  1
  C  2040  1  0.23946400  0.35364900  0.87485700  1
  C  2041  1  0.27755300  0.34938500  0.85537200  1
  C  2042  1  0.30037400  0.36963900  0.84250700  1
  C  2043  1  0.22304200  0.42098900  0.87282800  1
  C  2044  1  0.34203000  0.36664600  0.82413900  1
  C  2046  1  0.30413600  0.41413300  0.83491600  1
  C  2047  1  0.28272400  0.43796500  0.83997100  1
  C  2048  1  0.30255800  0.45828000  0.82624000  1
  C  2049  1  0.34498200  0.45448200  0.80826400  1
  C  2050  1  0.36858400  0.43129300  0.80298900  1
  C  2051  1  0.34660600  0.41083100  0.81628000  1
  C  2052  1  0.24126400  0.44069500  0.85859500  1
  C  2054  1  0.36579500  0.38677600  0.81196600  1
  C  2063  1  0.28219400  0.62397000  0.12696800  1
  C  2064  1  0.24230400  0.62051000  0.10741900  1
  C  2065  1  0.22145600  0.64057300  0.09355500  1
  C  2066  1  0.23930000  0.66405100  0.10060600  1
  C  2067  1  0.27741200  0.66831200  0.12008300  1
  C  2068  1  0.30021400  0.64805900  0.13295900  1
  C  2069  1  0.22271600  0.59672800  0.10269300  1
  C  2070  1  0.34190200  0.65104900  0.15131700  1
  C  2072  1  0.30387600  0.60357500  0.14059000  1
  C  2073  1  0.28237800  0.57975300  0.13556200  1
  C  2074  1  0.30216500  0.55943800  0.14930100  1
  C  2075  1  0.34457500  0.56323000  0.16728600  1
  C  2076  1  0.36829300  0.58640700  0.17253000  1
  C  2077  1  0.34637200  0.60686900  0.15921700  1
  C  2078  1  0.24090400  0.57702700  0.11693900  1
  C  2080  1  0.36562400  0.63091700  0.16350700  1
  C  2089  1  0.03177230  0.37015100  0.37192100  1
  C  2090  1  0.99249600  0.38987900  0.37559200  1
  C  2091  1  0.97112800  0.40373500  0.35560000  1
  C  2092  1  0.98820200  0.39658000  0.33203500  1
  C  2093  1  0.02550130  0.37686100  0.32760400  1
  C  2094  1  0.04847430  0.36387200  0.34772800  1
  C  2095  1  0.97399300  0.39471000  0.39952100  1
  C  2096  1  0.08853630  0.34490900  0.34444100  1
  C  2098  1  0.05396630  0.35654700  0.39221400  1
  C  2099  1  0.03347830  0.36156000  0.41617800  1
  C  2100  1  0.05342830  0.34749100  0.43627200  1
  C  2101  1  0.09531230  0.32929200  0.43214400  1
  C  2102  1  0.11850030  0.32426400  0.40875200  1
  C  2103  1  0.09568830  0.33772100  0.38863700  1
  C  2104  1  0.99257400  0.38039000  0.41913100  1
  C  2106  1  0.11245830  0.33257500  0.36441700  1
  C  2115  1  0.03145030  0.64744600  0.60360800  1
  C  2116  1  0.99219400  0.62772100  0.59988200  1
  C  2117  1  0.97076400  0.61384000  0.61983800  1
  C  2118  1  0.98776400  0.62095200  0.64342300  1
  C  2119  1  0.02509830  0.64064400  0.64792100  1
  C  2120  1  0.04806430  0.65369100  0.62782500  1
  C  2121  1  0.97375800  0.62291700  0.57594000  1
  C  2122  1  0.08806830  0.67266900  0.63115300  1
  C  2124  1  0.05368830  0.66107900  0.58334000  1
  C  2125  1  0.03327330  0.65608800  0.55935600  1
  C  2126  1  0.05327030  0.67017700  0.53928600  1
  C  2127  1  0.09514530  0.68836800  0.54345400  1
  C  2128  1  0.11827230  0.69337400  0.56686600  1
  C  2129  1  0.09538830  0.67990400  0.58695900  1
  C  2130  1  0.99240000  0.63725500  0.55635700  1
  C  2132  1  0.11204430  0.68503000  0.61120100  1
  C  2141  1  0.27133000  0.12434100  0.84955400  1
  C  2142  1  0.31209700  0.12094800  0.86879600  1
  C  2143  1  0.33148600  0.14091600  0.88318000  1
  C  2144  1  0.31101000  0.16423900  0.87700000  1
  C  2145  1  0.27413200  0.16855000  0.85714200  1
  C  2146  1  0.25147000  0.14832500  0.84419700  1
  C  2147  1  0.33335767  0.09731800  0.87290300  1
  C  2148  1  0.20910000  0.15124000  0.82612900  1
  C  2150  1  0.25030200  0.10397200  0.83572000  1
  C  2151  1  0.27302400  0.08026400  0.84030600  1
  C  2152  1  0.25331400  0.05993300  0.82657200  1
  C  2153  1  0.21031800  0.06363300  0.80882300  1
  C  2154  1  0.18580830  0.08672200  0.80386300  1
  C  2155  1  0.20707500  0.10717200  0.81738100  1
  C  2156  1  0.31554800  0.07766100  0.85851500  1
  C  2158  1  0.18635630  0.13109400  0.81361900  1
  C  2167  1  0.27126100  0.89325700  0.12586500  1
  C  2168  1  0.31203500  0.89665000  0.10662400  1
  C  2169  1  0.33148000  0.87667900  0.09225400  1
  C  2170  1  0.31099800  0.85335800  0.09843900  1
  C  2171  1  0.27410200  0.84905200  0.11829100  1
  C  2172  1  0.25142200  0.86927300  0.13123100  1
  C  2173  1  0.33331667  0.92028200  0.10251700  1
  C  2174  1  0.20905600  0.86635600  0.14930200  1
  C  2176  1  0.25021200  0.91362300  0.13970000  1
  C  2177  1  0.27292000  0.93733200  0.13511100  1
  C  2178  1  0.25318000  0.95766300  0.14883700  1
  C  2179  1  0.21023200  0.95395700  0.16660700  1
  C  2180  1  0.18572630  0.93086900  0.17156800  1
  C  2181  1  0.20699400  0.91042200  0.15804200  1
  C  2182  1  0.31543600  0.93994000  0.11689800  1
  C  2184  1  0.18630430  0.88649800  0.16181300  1
  C  2193  1  0.02139930  0.64716300  0.87294600  1
  C  2194  1  0.06224830  0.62794800  0.87631000  1
  C  2195  1  0.08158430  0.61356500  0.85633200  1
  C  2196  1  0.06075530  0.61964800  0.83303800  1
  C  2197  1  0.02371830  0.63945700  0.82876300  1
  C  2198  1  0.00128225  0.65246000  0.84899000  1
  C  2199  1  0.08372030  0.62389000  0.89991700  1
  C  2200  1  0.95890200  0.67052800  0.84609600  1
  C  2202  1  0.00051625  0.66102800  0.89331800  1
  C  2203  1  0.02335030  0.65646100  0.91700800  1
  C  2204  1  0.00366625  0.67018200  0.93735200  1
  C  2205  1  0.96074200  0.68796700  0.93366500  1
  C  2206  1  0.93622800  0.69294200  0.91058400  1
  C  2207  1  0.95729800  0.67937100  0.89013800  1
  C  2208  1  0.06591830  0.63826600  0.91958700  1
  C  2210  1  0.93640400  0.68310900  0.86624300  1
  C  2219  1  0.02229330  0.37009300  0.10261300  1
  C  2220  1  0.06089230  0.39011400  0.09915700  1
  C  2221  1  0.08051630  0.40430900  0.11921700  1
  C  2222  1  0.06131630  0.39758400  0.14258600  1
  C  2223  1  0.02665630  0.37702000  0.14690700  1
  C  2224  1  0.00498625  0.36373800  0.12671400  1
  C  2225  1  0.08015830  0.39508500  0.07537800  1
  C  2226  1  0.96726000  0.34392400  0.12985200  1
  C  2228  1  0.00143225  0.35627900  0.08220600  1
  C  2229  1  0.02243430  0.36161400  0.05836700  1
  C  2230  1  0.00431125  0.34736200  0.03812100  1
  C  2231  1  0.96416400  0.32848200  0.04202800  1
  C  2232  1  0.94003500  0.32326700  0.06512800  1
  C  2233  1  0.96127200  0.33676200  0.08558100  1
  C  2234  1  0.06258230  0.38075600  0.05563900  1
  C  2236  1  0.94578000  0.33090600  0.10979200  1
  C  2245  1  0.78110100  0.89361100  0.34897000  1
  C  2246  1  0.74179700  0.89734700  0.36867200  1
  C  2247  1  0.72056700  0.87739700  0.38261500  1
  C  2248  1  0.73773800  0.85381000  0.37558500  1
  C  2249  1  0.77510700  0.84931600  0.35590900  1
  C  2250  1  0.79793600  0.86940100  0.34280900  1
  C  2251  1  0.72319900  0.92128000  0.37341400  1
  C  2252  1  0.83798600  0.86606300  0.32385300  1
  C  2254  1  0.80318100  0.91386700  0.33528000  1
  C  2255  1  0.78260600  0.93784000  0.34019600  1
  C  2256  1  0.80249200  0.95789400  0.32605300  1
  C  2257  1  0.84442800  0.95372400  0.30788900  1
  C  2258  1  0.86763600  0.93031900  0.30293900  1
  C  2259  1  0.84491000  0.91024000  0.31647100  1
  C  2260  1  0.74167100  0.94084100  0.35900300  1
  C  2262  1  0.86180200  0.88601000  0.31143200  1
  C  2271  1  0.78113600  0.12403700  0.62653200  1
  C  2272  1  0.74182200  0.12031000  0.60683100  1
  C  2273  1  0.72056700  0.14026600  0.59290800  1
  C  2274  1  0.73775800  0.16384900  0.59993700  1
  C  2275  1  0.77514700  0.16833700  0.61960700  1
  C  2276  1  0.79797900  0.14824600  0.63269800  1
  C  2277  1  0.72320800  0.09638000  0.60208500  1
  C  2278  1  0.83804600  0.15157300  0.65164800  1
  C  2280  1  0.80322400  0.10377400  0.64020900  1
  C  2281  1  0.78265500  0.07980200  0.63528000  1
  C  2282  1  0.80257700  0.05973500  0.64939600  1
  C  2283  1  0.84447800  0.06390400  0.66757400  1
  C  2284  1  0.86768800  0.08730800  0.67253300  1
  C  2285  1  0.84495800  0.10739500  0.65901600  1
  C  2286  1  0.74171900  0.07681000  0.61647300  1
  C  2288  1  0.86186200  0.13162200  0.66406000  1
  C  2297  1  0.53346700  0.87057400  0.87252200  1
  C  2298  1  0.49332100  0.88999100  0.87616600  1
  C  2299  1  0.47363100  0.90442700  0.85628600  1
  C  2300  1  0.49355500  0.89826700  0.83286300  1
  C  2301  1  0.52970300  0.87822200  0.82834000  1
  C  2302  1  0.55226100  0.86503600  0.84841400  1
  C  2303  1  0.47285700  0.89412200  0.89993100  1
  C  2304  1  0.59301700  0.84636000  0.84516900  1
  C  2306  1  0.55473400  0.85666500  0.89278200  1
  C  2307  1  0.53278800  0.86115000  0.91662400  1
  C  2308  1  0.55248000  0.84702300  0.93672200  1
  C  2309  1  0.59491100  0.82904300  0.93267200  1
  C  2310  1  0.61905700  0.82437800  0.90938200  1
  C  2311  1  0.59718700  0.83813000  0.88928000  1
  C  2312  1  0.49084100  0.87957500  0.91946800  1
  C  2314  1  0.61570400  0.83361200  0.86515600  1
  C  2323  1  0.53309100  0.14707300  0.10303000  1
  C  2324  1  0.49321700  0.12754800  0.09942000  1
  C  2325  1  0.47357900  0.11315100  0.11933100  1
  C  2326  1  0.49333800  0.11942300  0.14274700  1
  C  2327  1  0.52921300  0.13956900  0.14723100  1
  C  2328  1  0.55169900  0.15274200  0.12713100  1
  C  2329  1  0.47294300  0.12324600  0.07565600  1
  C  2330  1  0.59215200  0.17154900  0.13033700  1
  C  2332  1  0.55426300  0.16095900  0.08274000  1
  C  2333  1  0.53245300  0.15630100  0.05891100  1
  C  2334  1  0.55184800  0.17043700  0.03878900  1
  C  2335  1  0.59392800  0.18855500  0.04278500  1
  C  2336  1  0.61823200  0.19335500  0.06603700  1
  C  2337  1  0.59635700  0.17966200  0.08619400  1
  C  2338  1  0.49085300  0.13774000  0.05607700  1
  C  2340  1  0.61469000  0.18431400  0.11032700  1
  C  2349  1  0.77214800  0.62437400  0.35006200  1
  C  2350  1  0.81240700  0.62073900  0.36944600  1
  C  2351  1  0.83210800  0.64062200  0.38389200  1
  C  2352  1  0.81210700  0.66404000  0.37774400  1
  C  2353  1  0.77582200  0.66854000  0.35774100  1
  C  2354  1  0.75326800  0.64847300  0.34455500  1
  C  2355  1  0.83290200  0.59697400  0.37354500  1
  C  2356  1  0.71245300  0.65172800  0.32590300  1
  C  2358  1  0.75085100  0.60412500  0.33614400  1
  C  2359  1  0.77284600  0.58028800  0.34059900  1
  C  2360  1  0.75313100  0.56020300  0.32645500  1
  C  2361  1  0.71061000  0.56425300  0.30851000  1
  C  2362  1  0.68641800  0.58754100  0.30386800  1
  C  2363  1  0.70833800  0.60762800  0.31762900  1
  C  2364  1  0.81489200  0.57744600  0.35898500  1
  C  2366  1  0.68975900  0.63175200  0.31314900  1
  C  2375  1  0.77213300  0.39321300  0.62542100  1
  C  2376  1  0.81237300  0.39684600  0.60603300  1
  C  2377  1  0.83213000  0.37695800  0.59161500  1
  C  2378  1  0.81217500  0.35353600  0.59777700  1
  C  2379  1  0.77588800  0.34904200  0.61778000  1
  C  2380  1  0.75330300  0.36911500  0.63095100  1
  C  2381  1  0.83283200  0.42061400  0.60191000  1
  C  2382  1  0.71250500  0.36586100  0.64961100  1
  C  2384  1  0.75080800  0.41346800  0.63932000  1
  C  2385  1  0.77274800  0.43730800  0.63483900  1
  C  2386  1  0.75297700  0.45740400  0.64895100  1
  C  2387  1  0.71052000  0.45335300  0.66692300  1
  C  2388  1  0.68639100  0.43005900  0.67159100  1
  C  2389  1  0.70832600  0.40996500  0.65784700  1
  C  2390  1  0.81476400  0.44015200  0.61644200  1
  C  2392  1  0.68978800  0.38584000  0.66235000  1
  C  2401  1  0.32736200  0.24229900  0.40241700  1
  C  2402  1  0.29617200  0.25377700  0.38349100  1
  C  2403  1  0.24872800  0.26954500  0.38788200  1
  C  2404  1  0.23084000  0.27496200  0.41211100  1
  C  2405  1  0.26272400  0.26375800  0.43135000  1
  C  2407  1  0.30946200  0.24782400  0.42635100  1
  C  2415  1  0.37602600  0.22779700  0.39728900  1
  C  2417  1  0.18195030  0.28953900  0.41763600  1
  C  2419  1  0.32723800  0.77533000  0.57315900  1
  C  2420  1  0.29608600  0.76385400  0.59209700  1
  C  2421  1  0.24861600  0.74809000  0.58772700  1
  C  2422  1  0.23066800  0.74267300  0.56350600  1
  C  2423  1  0.26251400  0.75387500  0.54425500  1
  C  2425  1  0.30927000  0.76980700  0.54923400  1
  C  2433  1  0.37592000  0.78983400  0.57827300  1
  C  2435  1  0.18175830  0.72809600  0.55800000  1
  C  2437  1  0.47753600  0.42396400  0.75341500  1
  C  2438  1  0.50855300  0.40497700  0.74196300  1
  C  2439  1  0.55613800  0.40928700  0.72625900  1
  C  2440  1  0.57430800  0.43349000  0.72090000  1
  C  2441  1  0.54262900  0.45279000  0.73208200  1
  C  2443  1  0.49572500  0.44787200  0.74794600  1
  C  2451  1  0.42879500  0.41891600  0.76787500  1
  C  2453  1  0.62338700  0.43890000  0.70643600  1
  C  2455  1  0.47740900  0.59370000  0.22207400  1
  C  2456  1  0.50845400  0.61267100  0.23354200  1
  C  2457  1  0.55603900  0.60834200  0.24924400  1
  C  2458  1  0.57420600  0.58413400  0.25458200  1
  C  2459  1  0.54251400  0.56484800  0.24337400  1
  C  2461  1  0.49560800  0.56978500  0.22751500  1
  C  2469  1  0.42866000  0.59876900  0.20761700  1
  C  2471  1  0.62328800  0.57870000  0.26904700  1
  C  2473  1  0.07630830  0.09392200  0.75449300  1
  C  2474  1  0.04486030  0.11281700  0.74309900  1
  C  2475  1  0.99744200  0.10836600  0.72734000  1
  C  2476  1  0.97986600  0.08411100  0.72185700  1
  C  2477  1  0.01199825  0.06490500  0.73297800  1
  C  2479  1  0.05871430  0.06996000  0.74890100  1
  C  2487  1  0.12488230  0.09911900  0.76900900  1
  C  2489  1  0.93099700  0.07852800  0.70731300  1
  C  2491  1  0.07623030  0.92368800  0.22095600  1
  C  2492  1  0.04484430  0.90479700  0.23238800  1
  C  2493  1  0.99742400  0.90924900  0.24814600  1
  C  2494  1  0.97978800  0.93350400  0.25359500  1
  C  2495  1  0.01184825  0.95270600  0.24242900  1
  C  2497  1  0.05856530  0.94764800  0.22650600  1
  C  2505  1  0.12479230  0.91848000  0.20643000  1
  C  2507  1  0.93092400  0.93908600  0.26814600  1
  C  2509  1  0.82702800  0.74234900  0.90330700  1
  C  2510  1  0.79557700  0.75357900  0.88432600  1
  C  2511  1  0.74797800  0.76925700  0.88866500  1
  C  2512  1  0.73012800  0.77476400  0.91288400  1
  C  2513  1  0.76247300  0.76376900  0.93220400  1
  C  2515  1  0.80942200  0.74809200  0.92723500  1
  C  2523  1  0.87568600  0.72786500  0.89820900  1
  C  2525  1  0.68103200  0.78924800  0.91807900  1
  C  2527  1  0.81728400  0.27995500  0.07183400  1
  C  2528  1  0.78083200  0.27071400  0.09027300  1
  C  2529  1  0.73903300  0.25228400  0.08588400  1
  C  2530  1  0.73144900  0.24239400  0.06209600  1
  C  2531  1  0.76920100  0.25113500  0.04351800  1
  C  2533  1  0.81097300  0.26936200  0.04855700  1
  C  2541  1  0.85312800  0.30027300  0.07620400  1
  C  2543  1  0.68548400  0.22649900  0.05585000  1
  C  2545  1  0.55833200  0.15050400  0.49643500  1
  C  2546  1  0.56532600  0.12885200  0.51016100  1
  C  2547  1  0.59635300  0.12816000  0.53241500  1
  C  2548  1  0.62194900  0.14974300  0.54158000  1
  C  2549  1  0.61698800  0.17153400  0.52761900  1
  C  2551  1  0.58578300  0.17159300  0.50543800  1
  C  2559  1  0.52651600  0.15035600  0.47468500  1
  C  2561  1  0.64649600  0.15082400  0.56485000  1
  C  2563  1  0.55828000  0.86713400  0.47908600  1
  C  2564  1  0.56527000  0.88879200  0.46536700  1
  C  2565  1  0.59629000  0.88949500  0.44311200  1
  C  2566  1  0.62192000  0.86792200  0.43393900  1
  C  2567  1  0.61697500  0.84612700  0.44789500  1
  C  2569  1  0.58575900  0.84605400  0.47007800  1
  C  2577  1  0.52645300  0.86727000  0.50083600  1
  C  2579  1  0.64645500  0.86685300  0.41066200  1
  C  2581  1  0.24612800  0.51787500  0.84515700  1
  C  2582  1  0.23851800  0.53152500  0.86682100  1
  C  2583  1  0.20697200  0.55365300  0.86749600  1
  C  2584  1  0.18145430  0.56279600  0.84587600  1
  C  2585  1  0.18713030  0.54890400  0.82406300  1
  C  2587  1  0.21890200  0.52686500  0.82401700  1
  C  2595  1  0.27816400  0.49618000  0.84533700  1
  C  2597  1  0.15545230  0.58581700  0.84486200  1
  C  2599  1  0.24520400  0.49996200  0.13039500  1
  C  2600  1  0.23733300  0.48641600  0.10868300  1
  C  2601  1  0.20552600  0.46436200  0.10795600  1
  C  2602  1  0.17998230  0.45521400  0.12956300  1
  C  2603  1  0.18599630  0.46897600  0.15143600  1
  C  2605  1  0.21800800  0.49095000  0.15153400  1
  C  2613  1  0.27755300  0.52157000  0.13026200  1
  C  2615  1  0.15417630  0.43216800  0.13052500  1
  C  2617  1  0.99721400  0.36610800  0.49601400  1
  C  2618  1  0.98949000  0.38776700  0.50966200  1
  C  2619  1  0.95773400  0.38844100  0.53173600  1
  C  2620  1  0.93210000  0.36682600  0.54082300  1
  C  2621  1  0.93792600  0.34501100  0.52694100  1
  C  2623  1  0.96987400  0.34496900  0.50494600  1
  C  2631  1  0.02944930  0.36631200  0.47436500  1
  C  2633  1  0.90618400  0.36578200  0.56385600  1
  C  2635  1  0.99719000  0.65156100  0.47950500  1
  C  2636  1  0.98951200  0.62989100  0.46586400  1
  C  2637  1  0.95776400  0.62919600  0.44378700  1
  C  2638  1  0.93207000  0.65079200  0.43469000  1
  C  2639  1  0.93784500  0.67261500  0.44856300  1
  C  2641  1  0.96979200  0.67268200  0.47056300  1
  C  2649  1  0.02941030  0.65137500  0.50116200  1
  C  2651  1  0.90616200  0.65181200  0.41164700  1
  C  2653  1  0.31016000  0.00044300  0.84555900  1
  C  2654  1  0.31776800  0.98680200  0.86723200  1
  C  2655  1  0.34902000  0.96459900  0.86788000  1
  C  2656  1  0.37423400  0.95538500  0.84623100  1
  C  2657  1  0.36855800  0.96925500  0.82440900  1
  C  2659  1  0.33708200  0.99136700  0.82438500  1
  C  2667  1  0.27834800  0.02219600  0.84575000  1
  C  2669  1  0.39979600  0.93228800  0.84520000  1
  C  2671  1  0.31016400  0.01714000  0.12992700  1
  C  2672  1  0.31784200  0.03078800  0.10826500  1
  C  2673  1  0.34911400  0.05298500  0.10764300  1
  C  2674  1  0.37426000  0.06218400  0.12931400  1
  C  2675  1  0.36849800  0.04831100  0.15113100  1
  C  2677  1  0.33701200  0.02620400  0.15112400  1
  C  2685  1  0.27830600  0.99540300  0.12971300  1
  C  2687  1  0.39973600  0.08529200  0.13038000  1
  C  2689  1  0.06008830  0.65108600  0.99686800  1
  C  2690  1  0.06693630  0.62943600  0.01061500  1
  C  2691  1  0.09766030  0.62875500  0.03294700  1
  C  2692  1  0.12308030  0.65035000  0.04218200  1
  C  2693  1  0.11825230  0.67213800  0.02820600  1
  C  2695  1  0.08734430  0.67218500  0.00594800  1
  C  2703  1  0.02855530  0.65094000  0.97504400  1
  C  2705  1  0.14758230  0.65142600  0.06546800  1
  C  2707  1  0.05987830  0.36646700  0.97845700  1
  C  2708  1  0.06656430  0.38813100  0.96472300  1
  C  2709  1  0.09745930  0.38887400  0.94243600  1
  C  2710  1  0.12321330  0.36733200  0.93324400  1
  C  2711  1  0.11857630  0.34554100  0.94722300  1
  C  2713  1  0.08749830  0.34543000  0.96943600  1
  C  2721  1  0.02794030  0.36650400  0.00016800  1
  C  2723  1  0.14771630  0.36628900  0.90996100  1
  C  2725  1  0.74728400  0.01778500  0.34489200  1
  C  2726  1  0.74226600  0.03190100  0.36639600  1
  C  2727  1  0.71129500  0.05416200  0.36721700  1
  C  2728  1  0.68377400  0.06298000  0.34591800  1
  C  2729  1  0.68671300  0.04853700  0.32427900  1
  C  2731  1  0.71772700  0.02639200  0.32414800  1
  C  2739  1  0.77904800  0.99599600  0.34495600  1
  C  2741  1  0.65903300  0.08620800  0.34512900  1
  C  2743  1  0.74725500  0.99985500  0.63057600  1
  C  2744  1  0.74221600  0.98573900  0.60907400  1
  C  2745  1  0.71123800  0.96348100  0.60825500  1
  C  2746  1  0.68374700  0.95465800  0.62956000  1
  C  2747  1  0.68671300  0.96909900  0.65120200  1
  C  2749  1  0.71772700  0.99124500  0.65132600  1
  C  2757  1  0.77903000  0.02164300  0.63051100  1
  C  2759  1  0.65902500  0.93142500  0.63035800  1
  C  2761  1  0.49584300  0.86564800  0.99641300  1
  C  2762  1  0.48822100  0.88729200  0.01010200  1
  C  2763  1  0.45668400  0.88793800  0.03223600  1
  C  2764  1  0.43116900  0.86631100  0.04135900  1
  C  2765  1  0.43691400  0.84451200  0.02744200  1
  C  2767  1  0.46864800  0.84449600  0.00538900  1
  C  2775  1  0.52784800  0.86587400  0.97470000  1
  C  2777  1  0.40527000  0.86524900  0.06440700  1
  C  2779  1  0.49548500  0.15187000  0.97906700  1
  C  2780  1  0.48797700  0.13023700  0.96535700  1
  C  2781  1  0.45657500  0.12960800  0.94319200  1
  C  2782  1  0.43109300  0.15124300  0.93406700  1
  C  2783  1  0.43673600  0.17303300  0.94800300  1
  C  2785  1  0.46834400  0.17303300  0.97008600  1
  C  2793  1  0.52749200  0.15163900  0.00077100  1
  C  2795  1  0.40531100  0.15230900  0.91100100  1
  C  2797  1  0.80932800  0.50047700  0.34523800  1
  C  2798  1  0.81637200  0.48674400  0.36689100  1
  C  2799  1  0.84733600  0.46446800  0.36758000  1
  C  2800  1  0.87287000  0.45527600  0.34599400  1
  C  2801  1  0.86789800  0.46925100  0.32420800  1
  C  2803  1  0.83673200  0.49145100  0.32415000  1
  C  2811  1  0.77760600  0.52226700  0.34541000  1
  C  2813  1  0.89743200  0.43198900  0.34492000  1
  C  2815  1  0.80904600  0.51712500  0.63013400  1
  C  2816  1  0.81603800  0.53084400  0.60847000  1
  C  2817  1  0.84693800  0.55313400  0.60776100  1
  C  2818  1  0.87243200  0.56235400  0.62934300  1
  C  2819  1  0.86749100  0.54840300  0.65114600  1
  C  2821  1  0.83639800  0.52618600  0.65122000  1
  C  2829  1  0.77736300  0.49532800  0.62998600  1
  C  2831  1  0.89687200  0.58566200  0.63040300  1
  C  2833  1  0.50650700  0.13847100  0.26280900  1
  C  2834  1  0.51475400  0.11934300  0.24596900  1
  C  2835  1  0.51821000  0.12352200  0.22062100  1
  C  2836  1  0.51475800  0.14773500  0.21152000  1
  C  2837  1  0.50762000  0.16728900  0.22822900  1
  C  2839  1  0.50448400  0.16247500  0.25361100  1
  C  2847  1  0.50216300  0.13267000  0.28743900  1
  C  2849  1  0.50595200  0.15132600  0.18672000  1
  C  2851  1  0.50678600  0.87920900  0.71275100  1
  C  2852  1  0.51517900  0.89834200  0.72957300  1
  C  2853  1  0.51869300  0.89418200  0.75492200  1
  C  2854  1  0.51524500  0.86997600  0.76404900  1
  C  2855  1  0.50800500  0.85041600  0.74735500  1
  C  2857  1  0.50477100  0.85521200  0.72196800  1
  C  2865  1  0.50232800  0.88498800  0.68811500  1
  C  2867  1  0.50644300  0.86640500  0.78884900  1
  C  2869  1  0.29861000  0.28418100  0.85735700  1
  C  2870  1  0.28986400  0.26751200  0.87659700  1
  C  2871  1  0.28558400  0.24215400  0.87260200  1
  C  2872  1  0.28858000  0.23286700  0.84844300  1
  C  2873  1  0.29623600  0.24940500  0.82878100  1
  C  2875  1  0.30022300  0.27480300  0.83341700  1
  C  2883  1  0.30370000  0.30883700  0.86299500  1
  C  2885  1  0.29694200  0.20800100  0.84509500  1
  C  2887  1  0.29855000  0.73350400  0.11809700  1
  C  2888  1  0.28997400  0.75019700  0.09885900  1
  C  2889  1  0.28574000  0.77555200  0.10287400  1
  C  2890  1  0.28867000  0.78481000  0.12704000  1
  C  2891  1  0.29614200  0.76825600  0.14670600  1
  C  2893  1  0.30008200  0.74286000  0.14204700  1
  C  2901  1  0.30358500  0.70885000  0.11244700  1
  C  2903  1  0.29702000  0.80966800  0.13050500  1
  C  2905  1  0.04753830  0.37843100  0.26246100  1
  C  2906  1  0.03919230  0.39748500  0.24555500  1
  C  2907  1  0.03638230  0.39322600  0.22021100  1
  C  2908  1  0.04064230  0.36900400  0.21118800  1
  C  2909  1  0.04779030  0.34951600  0.22796800  1
  C  2911  1  0.05026630  0.35440700  0.25334900  1
  C  2919  1  0.05176030  0.38432700  0.28705900  1
  C  2921  1  0.05015630  0.36541300  0.18644300  1
  C  2923  1  0.04575830  0.63884500  0.71315900  1
  C  2924  1  0.03731030  0.61967600  0.72993200  1
  C  2925  1  0.03365430  0.62378900  0.75528700  1
  C  2926  1  0.03697830  0.64798300  0.76446100  1
  C  2927  1  0.04430030  0.66757300  0.74780200  1
  C  2929  1  0.04768030  0.66282500  0.72241300  1
  C  2937  1  0.05068630  0.63310900  0.68853400  1
  C  2939  1  0.04588630  0.65152300  0.78926200  1
  C  2941  1  0.79744300  0.78420500  0.35809400  1
  C  2942  1  0.78957900  0.76750000  0.37736900  1
  C  2943  1  0.78642700  0.74211400  0.37338700  1
  C  2944  1  0.78974900  0.73285600  0.34923000  1
  C  2945  1  0.79654200  0.74941800  0.32953400  1
  C  2947  1  0.79942200  0.77484000  0.33415600  1
  C  2955  1  0.80172900  0.80888100  0.36369000  1
  C  2957  1  0.79869900  0.70804700  0.34587600  1
  C  2959  1  0.79752200  0.23345300  0.61743400  1
  C  2960  1  0.78989600  0.25018400  0.59816500  1
  C  2961  1  0.78678500  0.27556600  0.60216400  1
  C  2962  1  0.78996500  0.28479500  0.62633100  1
  C  2963  1  0.79650500  0.26821500  0.64602900  1
  C  2965  1  0.79934300  0.24279600  0.64138500  1
  C  2973  1  0.80173600  0.20877700  0.61182600  1
  C  2975  1  0.79890000  0.30959800  0.62980200  1
  H  9  1  0.19697600  0.11146200  0.31756500  1
  H  17  1  0.06097000  0.19715600  0.44772200  1
  H  19  1  0.19614700  0.13317700  0.43589000  1
  H  20  1  0.22706800  0.10959000  0.40281900  1
  H  21  1  0.02332100  0.19610100  0.36174700  1
  H  22  1  0.06354800  0.17571800  0.32814500  1
  H  35  1  0.19692500  0.90620800  0.65793600  1
  H  43  1  0.06090000  0.82045700  0.52781700  1
  H  45  1  0.19608700  0.88443800  0.53962600  1
  H  46  1  0.22699600  0.90804400  0.57268400  1
  H  47  1  0.02330200  0.82153100  0.61380000  1
  H  48  1  0.06349400  0.84194400  0.64738700  1
  H  61  1  0.83944400  0.33897100  0.88441500  1
  H  69  1  0.97403600  0.46927500  0.79855800  1
  H  71  1  0.83895800  0.45727300  0.86253200  1
  H  72  1  0.80840400  0.42417500  0.88615200  1
  H  73  1  0.01213900  0.38332900  0.79954500  1
  H  74  1  0.97218400  0.34967100  0.81994200  1
  H  87  1  0.83930000  0.67873100  0.09104300  1
  H  95  1  0.97356200  0.54843800  0.17701200  1
  H  97  1  0.83852600  0.56046000  0.11302400  1
  H  98  1  0.80806800  0.59354000  0.08937300  1
  H  99  1  0.01197600  0.63436200  0.17592300  1
  H  100  1  0.97207800  0.66802200  0.15550300  1
  H  113  1  0.58813200  0.40619100  0.31740100  1
  H  121  1  0.72494400  0.31967600  0.44683000  1
  H  123  1  0.59086200  0.38437800  0.43580200  1
  H  124  1  0.55982300  0.40817600  0.40288800  1
  H  125  1  0.75641700  0.31911100  0.36084800  1
  H  126  1  0.71694600  0.34016700  0.32734400  1
  H  139  1  0.58759000  0.61131800  0.65802300  1
  H  147  1  0.72482000  0.69799200  0.52878200  1
  H  149  1  0.59070400  0.63329500  0.53967700  1
  H  150  1  0.55959400  0.60945500  0.57254000  1
  H  151  1  0.75599800  0.69849100  0.61480100  1
  H  152  1  0.71643200  0.67738200  0.64826300  1
  H  165  1  0.93847400  0.17876200  0.88742300  1
  H  173  1  0.81154000  0.04883600  0.79907000  1
  H  175  1  0.94901400  0.06119700  0.86203000  1
  H  176  1  0.97870200  0.09421100  0.88599500  1
  H  177  1  0.76956600  0.13442900  0.80140400  1
  H  178  1  0.80808400  0.16814500  0.82230200  1
  H  191  1  0.93850400  0.83882900  0.08803500  1
  H  199  1  0.81147000  0.96875300  0.17636800  1
  H  201  1  0.94887600  0.95640700  0.11337700  1
  H  202  1  0.97860800  0.92339400  0.08942000  1
  H  203  1  0.76953200  0.88316000  0.17403500  1
  H  204  1  0.80807000  0.84944700  0.15313800  1
  H  217  1  0.68811600  0.60920900  0.81851200  1
  H  225  1  0.56200600  0.69772600  0.94846500  1
  H  227  1  0.69944200  0.63476100  0.93604100  1
  H  228  1  0.72904200  0.61079100  0.90300900  1
  H  229  1  0.51961400  0.69533700  0.86293500  1
  H  230  1  0.55775000  0.67432500  0.82920700  1
  H  243  1  0.68850100  0.40801200  0.15714000  1
  H  251  1  0.56676800  0.31826100  0.02732400  1
  H  253  1  0.69478800  0.38487500  0.03907400  1
  H  254  1  0.72388800  0.40879400  0.07219100  1
  H  255  1  0.53500800  0.31638200  0.11340100  1
  H  256  1  0.56987200  0.33869000  0.14693600  1
  H  269  1  0.33770900  0.83921700  0.38527200  1
  H  277  1  0.47406000  0.96838500  0.29823200  1
  H  279  1  0.33984100  0.95751400  0.36290400  1
  H  280  1  0.30893200  0.92467300  0.38683500  1
  H  281  1  0.50574200  0.88240300  0.29797200  1
  H  282  1  0.46648400  0.84895700  0.31919100  1
  H  295  1  0.33772300  0.17844600  0.59025600  1
  H  303  1  0.47411200  0.04924200  0.67722700  1
  H  305  1  0.33989100  0.06013900  0.61256300  1
  H  306  1  0.30895000  0.09299000  0.58865900  1
  H  307  1  0.50580600  0.13522300  0.67752100  1
  H  308  1  0.46654000  0.16867800  0.65631700  1
  H  321  1  0.09613100  0.90879000  0.81841800  1
  H  329  1  0.22432500  0.81934600  0.94734900  1
  H  331  1  0.08794700  0.88310900  0.93602300  1
  H  332  1  0.05807000  0.90736100  0.90322700  1
  H  333  1  0.26024400  0.82036400  0.86164700  1
  H  334  1  0.22253000  0.84205400  0.82812000  1
  H  347  1  0.09594700  0.10891900  0.15720900  1
  H  355  1  0.22248200  0.19836500  0.02806500  1
  H  357  1  0.08811700  0.13409200  0.03951500  1
  H  358  1  0.05837400  0.10991600  0.07238500  1
  H  359  1  0.25915100  0.19761600  0.11381600  1
  H  360  1  0.22155500  0.17594000  0.14738200  1
  H  373  1  0.43958400  0.67849700  0.38825900  1
  H  381  1  0.31131100  0.54957800  0.29880400  1
  H  383  1  0.44796000  0.56090100  0.36247200  1
  H  384  1  0.47789200  0.59368300  0.38672900  1
  H  385  1  0.27528600  0.63527400  0.29990900  1
  H  386  1  0.31297400  0.66877600  0.32162000  1
  H  399  1  0.43971200  0.33907600  0.58728500  1
  H  407  1  0.31120000  0.46803000  0.67661900  1
  H  409  1  0.44779200  0.45670300  0.61293800  1
  H  410  1  0.47779800  0.42390600  0.58871600  1
  H  411  1  0.27533400  0.38232000  0.67559900  1
  H  412  1  0.31306400  0.34881100  0.65391200  1
  H  422  1  0.92288800  0.25048800  0.36581900  1
  H  424  1  0.94664800  0.24050900  0.44067500  1
  H  432  1  0.01488000  0.23263700  0.38312500  1
  H  434  1  0.77537800  0.28504600  0.43253200  1
  H  440  1  0.92283000  0.76714700  0.60976400  1
  H  442  1  0.94642600  0.77712200  0.53489900  1
  H  450  1  0.01477000  0.78500100  0.59243800  1
  H  452  1  0.77518600  0.73258500  0.54310400  1
  H  458  1  0.11171500  0.38732600  0.74523700  1
  H  460  1  0.08875900  0.46223200  0.75527200  1
  H  468  1  0.01974700  0.40485700  0.76296700  1
  H  470  1  0.26070100  0.45353100  0.71120800  1
  H  476  1  0.11161900  0.63032500  0.23029200  1
  H  478  1  0.08864000  0.55543400  0.22017500  1
  H  486  1  0.01972700  0.61287100  0.21250100  1
  H  488  1  0.26053300  0.56404700  0.26428700  1
  H  494  1  0.67134400  0.13050400  0.74644800  1
  H  496  1  0.69609400  0.05566400  0.75616400  1
  H  504  1  0.76345800  0.11341200  0.76429100  1
  H  506  1  0.52439600  0.06365800  0.71186600  1
  H  512  1  0.67135800  0.88710800  0.22906100  1
  H  514  1  0.69588800  0.96194400  0.21920900  1
  H  522  1  0.76335000  0.90418000  0.21114300  1
  H  524  1  0.52430600  0.95395000  0.26358800  1
  H  530  1  0.42217900  0.75016100  0.86666600  1
  H  532  1  0.44695600  0.74090300  0.94154800  1
  H  540  1  0.51452400  0.73262300  0.88400300  1
  H  542  1  0.27260800  0.78419400  0.93222400  1
  H  548  1  0.39868100  0.27793900  0.10742300  1
  H  550  1  0.45075200  0.27569200  0.03453500  1
  H  558  1  0.45386600  0.31270300  0.08785200  1
  H  560  1  0.28470900  0.22850200  0.03922200  1
  H  566  1  0.16188000  0.11306700  0.50410500  1
  H  568  1  0.19756200  0.18758500  0.49596000  1
  H  576  1  0.12046900  0.13522600  0.47028900  1
  H  578  1  0.24752100  0.16410500  0.57564700  1
  H  584  1  0.16178300  0.90456900  0.47142200  1
  H  586  1  0.19755100  0.83005900  0.47955100  1
  H  594  1  0.12042400  0.88240300  0.50523900  1
  H  596  1  0.24751400  0.85355500  0.39988200  1
  H  602  1  0.87188400  0.52547600  0.88264300  1
  H  604  1  0.83759200  0.51743200  0.80801300  1
  H  612  1  0.91429400  0.49183300  0.86048000  1
  H  614  1  0.78241400  0.59649900  0.83111900  1
  H  620  1  0.87071600  0.49247600  0.09287000  1
  H  622  1  0.83696400  0.50029700  0.16757600  1
  H  630  1  0.91378600  0.52587200  0.11513300  1
  H  632  1  0.78208600  0.42130000  0.14396300  1
  H  638  1  0.62290800  0.40359100  0.50365100  1
  H  640  1  0.58867600  0.32896600  0.49552100  1
  H  648  1  0.66572800  0.38144300  0.47011600  1
  H  650  1  0.53354000  0.35213600  0.57457800  1
  H  656  1  0.62298000  0.61408000  0.47187700  1
  H  658  1  0.58855200  0.68868900  0.47998200  1
  H  666  1  0.66570700  0.63625000  0.50541400  1
  H  668  1  0.53343800  0.66548600  0.40094500  1
  H  674  1  0.91466600  0.99290200  0.88307100  1
  H  676  1  0.94844000  0.00078700  0.80837500  1
  H  684  1  0.87276600  0.02667400  0.86097400  1
  H  686  1  0.00226200  0.92157200  0.83159000  1
  H  692  1  0.91479400  0.02469400  0.09241100  1
  H  694  1  0.94830000  0.01678100  0.16712900  1
  H  702  1  0.87271600  0.99095600  0.11448300  1
  H  704  1  0.00204400  0.09602500  0.14395000  1
  H  710  1  0.66361200  0.61364500  0.00450900  1
  H  712  1  0.69923200  0.68817500  0.99646100  1
  H  720  1  0.62296800  0.63573700  0.97050800  1
  H  722  1  0.74891800  0.66480100  0.07621900  1
  H  728  1  0.66293100  0.40387500  0.97078700  1
  H  730  1  0.69944200  0.32942900  0.97890800  1
  H  738  1  0.62088800  0.38142800  0.00436400  1
  H  740  1  0.74907200  0.35291400  0.89920700  1
  H  746  1  0.37720700  0.02611900  0.38197100  1
  H  748  1  0.33450900  0.01654400  0.30832200  1
  H  756  1  0.41552900  0.99165700  0.36001000  1
  H  758  1  0.28880300  0.09741000  0.33236600  1
  H  764  1  0.37712600  0.99152600  0.59349400  1
  H  766  1  0.33452800  0.00109300  0.66715400  1
  H  774  1  0.41548500  0.02597500  0.61544600  1
  H  776  1  0.28876300  0.92023300  0.64313300  1
  H  782  1  0.12154600  0.90312700  0.00407000  1
  H  784  1  0.08736500  0.82850400  0.99594000  1
  H  792  1  0.16371600  0.88108200  0.97035000  1
  H  794  1  0.03232700  0.85150600  0.07506400  1
  H  800  1  0.12132300  0.11440400  0.97138600  1
  H  802  1  0.08703900  0.18902000  0.97954600  1
  H  810  1  0.16381700  0.13651600  0.00501200  1
  H  812  1  0.03239100  0.16606100  0.90036100  1
  H  818  1  0.41296600  0.49280600  0.38268100  1
  H  820  1  0.44853600  0.50094000  0.30816400  1
  H  828  1  0.37189100  0.52670500  0.36061100  1
  H  830  1  0.49849200  0.42123800  0.33159600  1
  H  836  1  0.41266600  0.52475400  0.59268200  1
  H  838  1  0.44821600  0.51671300  0.66721600  1
  H  846  1  0.37162900  0.49088300  0.61479000  1
  H  848  1  0.49782000  0.59643100  0.64368900  1
  H  854  1  0.13195700  0.10171400  0.25204100  1
  H  856  1  0.11367600  0.17670800  0.26538700  1
  H  864  1  0.10728400  0.11552600  0.29173700  1
  H  866  1  0.08086900  0.15497500  0.18176300  1
  H  872  1  0.13232800  0.91596800  0.72348900  1
  H  874  1  0.11387700  0.84097200  0.71020700  1
  H  882  1  0.10741900  0.90214000  0.68385600  1
  H  884  1  0.08150500  0.86261100  0.79389700  1
  H  890  1  0.90308000  0.27371100  0.89419000  1
  H  892  1  0.92141200  0.28645200  0.81910200  1
  H  900  1  0.92908200  0.31313300  0.88009400  1
  H  902  1  0.95179400  0.20288100  0.84104500  1
  H  908  1  0.90321600  0.74400900  0.08126300  1
  H  910  1  0.92114600  0.73119300  0.15635700  1
  H  918  1  0.92892200  0.70455600  0.09534300  1
  H  920  1  0.95188000  0.81479900  0.13448400  1
  H  926  1  0.65160800  0.41512000  0.25158100  1
  H  928  1  0.67130600  0.34023600  0.26518700  1
  H  936  1  0.67752600  0.40139500  0.29130100  1
  H  938  1  0.70565400  0.36230100  0.18162300  1
  H  944  1  0.65039800  0.60206000  0.72381100  1
  H  946  1  0.66879600  0.67708000  0.71068200  1
  H  954  1  0.67657200  0.61605400  0.68428500  1
  H  956  1  0.70084600  0.65552700  0.79423200  1
  H  962  1  0.40262800  0.77370200  0.39495400  1
  H  964  1  0.42005800  0.78652500  0.31983000  1
  H  972  1  0.42760500  0.81328600  0.38070500  1
  H  974  1  0.45364400  0.70302700  0.34187500  1
  H  980  1  0.40301200  0.24399500  0.58057100  1
  H  982  1  0.41979700  0.23109300  0.65570900  1
  H  990  1  0.42755700  0.20437600  0.59480100  1
  H  992  1  0.45386200  0.31463000  0.63370600  1
  H  1993  1  0.58193800  0.11146200  0.31756500  1
  H  2001  1  0.44593200  0.19715600  0.44772200  1
  H  2003  1  0.58110900  0.13317700  0.43589000  1
  H  2004  1  0.61203000  0.10959000  0.40281900  1
  H  2005  1  0.40828300  0.19610100  0.36174700  1
  H  2006  1  0.44851000  0.17571800  0.32814500  1
  H  2019  1  0.58188700  0.90620800  0.65793600  1
  H  2027  1  0.44586200  0.82045700  0.52781700  1
  H  2029  1  0.58104900  0.88443800  0.53962600  1
  H  2030  1  0.61195800  0.90804400  0.57268400  1
  H  2031  1  0.40826400  0.82153100  0.61380000  1
  H  2032  1  0.44845600  0.84194400  0.64738700  1
  H  2045  1  0.22440600  0.33897100  0.88441500  1
  H  2053  1  0.35899800  0.46927500  0.79855800  1
  H  2055  1  0.22392000  0.45727300  0.86253200  1
  H  2056  1  0.19336630  0.42417500  0.88615200  1
  H  2057  1  0.39710100  0.38332900  0.79954500  1
  H  2058  1  0.35714600  0.34967100  0.81994200  1
  H  2071  1  0.22426200  0.67873100  0.09104300  1
  H  2079  1  0.35852400  0.54843800  0.17701200  1
  H  2081  1  0.22348800  0.56046000  0.11302400  1
  H  2082  1  0.19303030  0.59354000  0.08937300  1
  H  2083  1  0.39693800  0.63436200  0.17592300  1
  H  2084  1  0.35704000  0.66802200  0.15550300  1
  H  2097  1  0.97309400  0.40619100  0.31740100  1
  H  2105  1  0.10990630  0.31967600  0.44683000  1
  H  2107  1  0.97582400  0.38437800  0.43580200  1
  H  2108  1  0.94478500  0.40817600  0.40288800  1
  H  2109  1  0.14137930  0.31911100  0.36084800  1
  H  2110  1  0.10190830  0.34016700  0.32734400  1
  H  2123  1  0.97255200  0.61131800  0.65802300  1
  H  2131  1  0.10978230  0.69799200  0.52878200  1
  H  2133  1  0.97566600  0.63329500  0.53967700  1
  H  2134  1  0.94455600  0.60945500  0.57254000  1
  H  2135  1  0.14096030  0.69849100  0.61480100  1
  H  2136  1  0.10139430  0.67738200  0.64826300  1
  H  2149  1  0.32343600  0.17876200  0.88742300  1
  H  2157  1  0.19650230  0.04883600  0.79907000  1
  H  2159  1  0.33397600  0.06119700  0.86203000  1
  H  2160  1  0.36366400  0.09421100  0.88599500  1
  H  2161  1  0.15452830  0.13442900  0.80140400  1
  H  2162  1  0.19304630  0.16814500  0.82230200  1
  H  2175  1  0.32346600  0.83882900  0.08803500  1
  H  2183  1  0.19643230  0.96875300  0.17636800  1
  H  2185  1  0.33383800  0.95640700  0.11337700  1
  H  2186  1  0.36357000  0.92339400  0.08942000  1
  H  2187  1  0.15449430  0.88316000  0.17403500  1
  H  2188  1  0.19303230  0.84944700  0.15313800  1
  H  2201  1  0.07307830  0.60920900  0.81851200  1
  H  2209  1  0.94696800  0.69772600  0.94846500  1
  H  2211  1  0.08440430  0.63476100  0.93604100  1
  H  2212  1  0.11400430  0.61079100  0.90300900  1
  H  2213  1  0.90457600  0.69533700  0.86293500  1
  H  2214  1  0.94271200  0.67432500  0.82920700  1
  H  2227  1  0.07346330  0.40801200  0.15714000  1
  H  2235  1  0.95173000  0.31826100  0.02732400  1
  H  2237  1  0.07975030  0.38487500  0.03907400  1
  H  2238  1  0.10885030  0.40879400  0.07219100  1
  H  2239  1  0.91997000  0.31638200  0.11340100  1
  H  2240  1  0.95483400  0.33869000  0.14693600  1
  H  2253  1  0.72267100  0.83921700  0.38527200  1
  H  2261  1  0.85902200  0.96838500  0.29823200  1
  H  2263  1  0.72480300  0.95751400  0.36290400  1
  H  2264  1  0.69389400  0.92467300  0.38683500  1
  H  2265  1  0.89070400  0.88240300  0.29797200  1
  H  2266  1  0.85144600  0.84895700  0.31919100  1
  H  2279  1  0.72268500  0.17844600  0.59025600  1
  H  2287  1  0.85907400  0.04924200  0.67722700  1
  H  2289  1  0.72485300  0.06013900  0.61256300  1
  H  2290  1  0.69391200  0.09299000  0.58865900  1
  H  2291  1  0.89076800  0.13522300  0.67752100  1
  H  2292  1  0.85150200  0.16867800  0.65631700  1
  H  2305  1  0.48109300  0.90879000  0.81841800  1
  H  2313  1  0.60928700  0.81934600  0.94734900  1
  H  2315  1  0.47290900  0.88310900  0.93602300  1
  H  2316  1  0.44303200  0.90736100  0.90322700  1
  H  2317  1  0.64520600  0.82036400  0.86164700  1
  H  2318  1  0.60749200  0.84205400  0.82812000  1
  H  2331  1  0.48090900  0.10891900  0.15720900  1
  H  2339  1  0.60744400  0.19836500  0.02806500  1
  H  2341  1  0.47307900  0.13409200  0.03951500  1
  H  2342  1  0.44333600  0.10991600  0.07238500  1
  H  2343  1  0.64411300  0.19761600  0.11381600  1
  H  2344  1  0.60651700  0.17594000  0.14738200  1
  H  2357  1  0.82454600  0.67849700  0.38825900  1
  H  2365  1  0.69627300  0.54957800  0.29880400  1
  H  2367  1  0.83292200  0.56090100  0.36247200  1
  H  2368  1  0.86285400  0.59368300  0.38672900  1
  H  2369  1  0.66024800  0.63527400  0.29990900  1
  H  2370  1  0.69793600  0.66877600  0.32162000  1
  H  2383  1  0.82467400  0.33907600  0.58728500  1
  H  2391  1  0.69616200  0.46803000  0.67661900  1
  H  2393  1  0.83275400  0.45670300  0.61293800  1
  H  2394  1  0.86276000  0.42390600  0.58871600  1
  H  2395  1  0.66029600  0.38232000  0.67559900  1
  H  2396  1  0.69802600  0.34881100  0.65391200  1
  H  2406  1  0.30785000  0.25048800  0.36581900  1
  H  2408  1  0.33161000  0.24050900  0.44067500  1
  H  2416  1  0.39984200  0.23263700  0.38312500  1
  H  2418  1  0.16034030  0.28504600  0.43253200  1
  H  2424  1  0.30779200  0.76714700  0.60976400  1
  H  2426  1  0.33138800  0.77712200  0.53489900  1
  H  2434  1  0.39973200  0.78500100  0.59243800  1
  H  2436  1  0.16014830  0.73258500  0.54310400  1
  H  2442  1  0.49667700  0.38732600  0.74523700  1
  H  2444  1  0.47372100  0.46223200  0.75527200  1
  H  2452  1  0.40470900  0.40485700  0.76296700  1
  H  2454  1  0.64566300  0.45353100  0.71120800  1
  H  2460  1  0.49658100  0.63032500  0.23029200  1
  H  2462  1  0.47360200  0.55543400  0.22017500  1
  H  2470  1  0.40468900  0.61287100  0.21250100  1
  H  2472  1  0.64549500  0.56404700  0.26428700  1
  H  2478  1  0.05630630  0.13050400  0.74644800  1
  H  2480  1  0.08105630  0.05566400  0.75616400  1
  H  2488  1  0.14842030  0.11341200  0.76429100  1
  H  2490  1  0.90935800  0.06365800  0.71186600  1
  H  2496  1  0.05632030  0.88710800  0.22906100  1
  H  2498  1  0.08085030  0.96194400  0.21920900  1
  H  2506  1  0.14831230  0.90418000  0.21114300  1
  H  2508  1  0.90926800  0.95395000  0.26358800  1
  H  2514  1  0.80714100  0.75016100  0.86666600  1
  H  2516  1  0.83191800  0.74090300  0.94154800  1
  H  2524  1  0.89948600  0.73262300  0.88400300  1
  H  2526  1  0.65757000  0.78419400  0.93222400  1
  H  2532  1  0.78364300  0.27793900  0.10742300  1
  H  2534  1  0.83571400  0.27569200  0.03453500  1
  H  2542  1  0.83882800  0.31270300  0.08785200  1
  H  2544  1  0.66967100  0.22850200  0.03922200  1
  H  2550  1  0.54684200  0.11306700  0.50410500  1
  H  2552  1  0.58252400  0.18758500  0.49596000  1
  H  2560  1  0.50543100  0.13522600  0.47028900  1
  H  2562  1  0.63248300  0.16410500  0.57564700  1
  H  2568  1  0.54674500  0.90456900  0.47142200  1
  H  2570  1  0.58251300  0.83005900  0.47955100  1
  H  2578  1  0.50538600  0.88240300  0.50523900  1
  H  2580  1  0.63247600  0.85355500  0.39988200  1
  H  2586  1  0.25684600  0.52547600  0.88264300  1
  H  2588  1  0.22255400  0.51743200  0.80801300  1
  H  2596  1  0.29925600  0.49183300  0.86048000  1
  H  2598  1  0.16737630  0.59649900  0.83111900  1
  H  2604  1  0.25567800  0.49247600  0.09287000  1
  H  2606  1  0.22192600  0.50029700  0.16757600  1
  H  2614  1  0.29874800  0.52587200  0.11513300  1
  H  2616  1  0.16704830  0.42130000  0.14396300  1
  H  2622  1  0.00787025  0.40359100  0.50365100  1
  H  2624  1  0.97363800  0.32896600  0.49552100  1
  H  2632  1  0.05069030  0.38144300  0.47011600  1
  H  2634  1  0.91850200  0.35213600  0.57457800  1
  H  2640  1  0.00794225  0.61408000  0.47187700  1
  H  2642  1  0.97351400  0.68868900  0.47998200  1
  H  2650  1  0.05066930  0.63625000  0.50541400  1
  H  2652  1  0.91840000  0.66548600  0.40094500  1
  H  2658  1  0.29962800  0.99290200  0.88307100  1
  H  2660  1  0.33336767  0.00078700  0.80837500  1
  H  2668  1  0.25772800  0.02667400  0.86097400  1
  H  2670  1  0.38722400  0.92157200  0.83159000  1
  H  2676  1  0.29975600  0.02469400  0.09241100  1
  H  2678  1  0.33329767  0.01678100  0.16712900  1
  H  2686  1  0.25767800  0.99095600  0.11448300  1
  H  2688  1  0.38700600  0.09602500  0.14395000  1
  H  2694  1  0.04857430  0.61364500  0.00450900  1
  H  2696  1  0.08419430  0.68817500  0.99646100  1
  H  2704  1  0.00793025  0.63573700  0.97050800  1
  H  2706  1  0.13388030  0.66480100  0.07621900  1
  H  2712  1  0.04789330  0.40387500  0.97078700  1
  H  2714  1  0.08440430  0.32942900  0.97890800  1
  H  2722  1  0.00585025  0.38142800  0.00436400  1
  H  2724  1  0.13403430  0.35291400  0.89920700  1
  H  2730  1  0.76216900  0.02611900  0.38197100  1
  H  2732  1  0.71947100  0.01654400  0.30832200  1
  H  2740  1  0.80049100  0.99165700  0.36001000  1
  H  2742  1  0.67376500  0.09741000  0.33236600  1
  H  2748  1  0.76208800  0.99152600  0.59349400  1
  H  2750  1  0.71949000  0.00109300  0.66715400  1
  H  2758  1  0.80044700  0.02597500  0.61544600  1
  H  2760  1  0.67372500  0.92023300  0.64313300  1
  H  2766  1  0.50650800  0.90312700  0.00407000  1
  H  2768  1  0.47232700  0.82850400  0.99594000  1
  H  2776  1  0.54867800  0.88108200  0.97035000  1
  H  2778  1  0.41728900  0.85150600  0.07506400  1
  H  2784  1  0.50628500  0.11440400  0.97138600  1
  H  2786  1  0.47200100  0.18902000  0.97954600  1
  H  2794  1  0.54877900  0.13651600  0.00501200  1
  H  2796  1  0.41735300  0.16606100  0.90036100  1
  H  2802  1  0.79792800  0.49280600  0.38268100  1
  H  2804  1  0.83349800  0.50094000  0.30816400  1
  H  2812  1  0.75685300  0.52670500  0.36061100  1
  H  2814  1  0.88345400  0.42123800  0.33159600  1
  H  2820  1  0.79762800  0.52475400  0.59268200  1
  H  2822  1  0.83317800  0.51671300  0.66721600  1
  H  2830  1  0.75659100  0.49088300  0.61479000  1
  H  2832  1  0.88278200  0.59643100  0.64368900  1
  H  2838  1  0.51691900  0.10171400  0.25204100  1
  H  2840  1  0.49863800  0.17670800  0.26538700  1
  H  2848  1  0.49224600  0.11552600  0.29173700  1
  H  2850  1  0.46583100  0.15497500  0.18176300  1
  H  2856  1  0.51729000  0.91596800  0.72348900  1
  H  2858  1  0.49883900  0.84097200  0.71020700  1
  H  2866  1  0.49238100  0.90214000  0.68385600  1
  H  2868  1  0.46646700  0.86261100  0.79389700  1
  H  2874  1  0.28804200  0.27371100  0.89419000  1
  H  2876  1  0.30637400  0.28645200  0.81910200  1
  H  2884  1  0.31404400  0.31313300  0.88009400  1
  H  2886  1  0.33675600  0.20288100  0.84104500  1
  H  2892  1  0.28817800  0.74400900  0.08126300  1
  H  2894  1  0.30610800  0.73119300  0.15635700  1
  H  2902  1  0.31388400  0.70455600  0.09534300  1
  H  2904  1  0.33684200  0.81479900  0.13448400  1
  H  2910  1  0.03657030  0.41512000  0.25158100  1
  H  2912  1  0.05626830  0.34023600  0.26518700  1
  H  2920  1  0.06248830  0.40139500  0.29130100  1
  H  2922  1  0.09061630  0.36230100  0.18162300  1
  H  2928  1  0.03536030  0.60206000  0.72381100  1
  H  2930  1  0.05375830  0.67708000  0.71068200  1
  H  2938  1  0.06153430  0.61605400  0.68428500  1
  H  2940  1  0.08580830  0.65552700  0.79423200  1
  H  2946  1  0.78759000  0.77370200  0.39495400  1
  H  2948  1  0.80502000  0.78652500  0.31983000  1
  H  2956  1  0.81256700  0.81328600  0.38070500  1
  H  2958  1  0.83860600  0.70302700  0.34187500  1
  H  2964  1  0.78797400  0.24399500  0.58057100  1
  H  2966  1  0.80475900  0.23109300  0.65570900  1
  H  2974  1  0.81251900  0.20437600  0.59480100  1
  H  2976  1  0.83882400  0.31463000  0.63370600  1
  N  23  1  0.13516000  0.14672700  0.30462700  1
  N  24  1  0.23042900  0.09315500  0.35786700  1
  N  25  1  0.00809600  0.20927800  0.40999500  1
  N  26  1  0.14148700  0.16791800  0.45902900  1
  N  49  1  0.13518500  0.87093600  0.67090000  1
  N  50  1  0.23039200  0.92449100  0.61763100  1
  N  51  1  0.00803200  0.80834000  0.56555300  1
  N  52  1  0.14140600  0.84970500  0.51649100  1
  N  75  1  0.90057200  0.32603400  0.84899200  1
  N  76  1  0.80548200  0.37935600  0.90261500  1
  N  77  1  0.02714100  0.43157800  0.78647400  1
  N  78  1  0.89340400  0.48049200  0.82779700  1
  N  101  1  0.90047000  0.69165900  0.12645700  1
  N  102  1  0.80529400  0.63834800  0.07285700  1
  N  103  1  0.02686900  0.58610300  0.18904200  1
  N  104  1  0.89281400  0.53726600  0.14779100  1
  N  127  1  0.64825600  0.37044400  0.30426800  1
  N  128  1  0.55523200  0.42451600  0.35791800  1
  N  129  1  0.77762000  0.30815300  0.40560000  1
  N  130  1  0.64443200  0.34890200  0.45853100  1
  N  153  1  0.64747200  0.64703400  0.67129600  1
  N  154  1  0.55486000  0.59307000  0.61748500  1
  N  155  1  0.77740600  0.70948200  0.57003600  1
  N  156  1  0.64432400  0.66877400  0.51700800  1
  N  179  1  0.87632800  0.19198800  0.85324900  1
  N  180  1  0.97852800  0.13869300  0.90366600  1
  N  181  1  0.75718200  0.08632100  0.78741900  1
  N  182  1  0.89265000  0.03773700  0.82808000  1
  N  205  1  0.87638400  0.82561600  0.12223300  1
  N  206  1  0.97853600  0.87889000  0.07176200  1
  N  207  1  0.75711000  0.93127400  0.18801800  1
  N  208  1  0.89257400  0.97984600  0.14736800  1
  N  231  1  0.62557200  0.64330500  0.80536100  1
  N  232  1  0.72870400  0.59310200  0.85852600  1
  N  233  1  0.50761200  0.70937600  0.91097900  1
  N  234  1  0.64293400  0.66865400  0.95955500  1
  N  257  1  0.62910200  0.37289700  0.17031100  1
  N  258  1  0.72690800  0.42498000  0.11710100  1
  N  259  1  0.51576600  0.30493900  0.06504700  1
  N  260  1  0.64369400  0.34906200  0.01595700  1
  N  283  1  0.39799600  0.82593600  0.34967100  1
  N  284  1  0.30450500  0.87977100  0.40332900  1
  N  285  1  0.52671000  0.92712200  0.28682500  1
  N  286  1  0.39369300  0.98020100  0.32750800  1
  N  309  1  0.39806000  0.19171500  0.62584900  1
  N  310  1  0.30453000  0.13790200  0.57218900  1
  N  311  1  0.52676600  0.09050100  0.68864300  1
  N  312  1  0.39374000  0.03743600  0.64795900  1
  N  335  1  0.15729600  0.87437900  0.80487700  1
  N  336  1  0.05701800  0.92498800  0.85863200  1
  N  337  1  0.27841700  0.80838200  0.90639900  1
  N  338  1  0.14334300  0.84836200  0.95897100  1
  N  361  1  0.15686700  0.14344500  0.17067900  1
  N  362  1  0.05707600  0.09256400  0.11700800  1
  N  363  1  0.27639100  0.20994100  0.06925700  1
  N  364  1  0.14256700  0.16907400  0.01658000  1
  N  387  1  0.37813500  0.69197900  0.35392300  1
  N  388  1  0.47911200  0.63829700  0.40438300  1
  N  389  1  0.25718400  0.59059100  0.28784500  1
  N  390  1  0.39220700  0.53792900  0.32783500  1
  N  413  1  0.37829800  0.32560100  0.62165300  1
  N  414  1  0.47909800  0.37927900  0.57111600  1
  N  415  1  0.25717700  0.42701400  0.68762000  1
  N  416  1  0.39202700  0.47967800  0.64756800  1
  N  425  1  0.83347000  0.27983800  0.36807900  1
  N  426  1  0.86337200  0.26901800  0.45589100  1
  N  443  1  0.83339200  0.73779800  0.60754100  1
  N  444  1  0.86311600  0.74861100  0.51971900  1
  N  461  1  0.20136900  0.38943700  0.71599800  1
  N  462  1  0.17246400  0.47729800  0.72687800  1
  N  479  1  0.20127200  0.62818000  0.25952400  1
  N  480  1  0.17234900  0.54033300  0.24854500  1
  N  497  1  0.58188400  0.12813300  0.71713700  1
  N  498  1  0.61289400  0.04035100  0.72765400  1
  N  515  1  0.58192600  0.88948400  0.25838400  1
  N  516  1  0.61267600  0.97726400  0.24771100  1
  N  533  1  0.33253400  0.77935200  0.86880600  1
  N  534  1  0.36759700  0.76768700  0.95735000  1
  N  551  1  0.31844100  0.24409800  0.10506100  1
  N  552  1  0.37952600  0.24173100  0.01953300  1
  N  569  1  0.21650800  0.10627700  0.54589000  1
  N  570  1  0.25880600  0.19318800  0.53595000  1
  N  587  1  0.21642100  0.91138300  0.42964200  1
  N  588  1  0.25881800  0.82448100  0.43956200  1
  N  605  1  0.81625300  0.56699900  0.88942800  1
  N  606  1  0.77539600  0.55709300  0.80236000  1
  N  623  1  0.81465400  0.45106900  0.08599700  1
  N  624  1  0.77445400  0.46069300  0.17314400  1
  N  641  1  0.56692200  0.41035800  0.54510000  1
  N  642  1  0.52618800  0.32330300  0.53511400  1
  N  659  1  0.56701600  0.60727000  0.43043200  1
  N  660  1  0.52604600  0.69430600  0.44038400  1
  N  677  1  0.96980200  0.95123700  0.88980500  1
  N  678  1  0.01003000  0.96096400  0.80267000  1
  N  695  1  0.96997200  0.06635600  0.08572700  1
  N  696  1  0.00989400  0.05660100  0.17288600  1
  N  713  1  0.71769000  0.60686500  0.04642100  1
  N  714  1  0.75993800  0.69380200  0.03658200  1
  N  731  1  0.71732200  0.41076800  0.92895400  1
  N  732  1  0.76056600  0.32393100  0.93888200  1
  N  749  1  0.32301900  0.06794000  0.38898200  1
  N  750  1  0.27469300  0.05440200  0.30193200  1
  N  767  1  0.32292900  0.94970500  0.58649100  1
  N  768  1  0.27472300  0.96323500  0.67355400  1
  N  785  1  0.06597000  0.90985200  0.04561800  1
  N  786  1  0.02526500  0.82279000  0.03562600  1
  N  803  1  0.06598500  0.10770800  0.92978200  1
  N  804  1  0.02513900  0.19476300  0.93980300  1
  N  821  1  0.46747700  0.45099100  0.38946400  1
  N  822  1  0.50965200  0.46090600  0.30254800  1
  N  839  1  0.46705400  0.56659500  0.58586800  1
  N  840  1  0.50920200  0.55678700  0.67279900  1
  N  857  1  0.13782400  0.10347600  0.20443100  1
  N  858  1  0.11811500  0.19138300  0.21919900  1
  N  875  1  0.13834300  0.91424200  0.77109600  1
  N  876  1  0.11847400  0.82632800  0.75639900  1
  N  893  1  0.89574400  0.22613300  0.89277800  1
  N  894  1  0.91555600  0.24017800  0.80475500  1
  N  911  1  0.89601800  0.79159500  0.08271400  1
  N  912  1  0.91533800  0.77744600  0.17075200  1
  N  929  1  0.64672000  0.41321500  0.20395700  1
  N  930  1  0.66808600  0.32542300  0.21901100  1
  N  947  1  0.64417400  0.60368800  0.77141500  1
  N  948  1  0.66398400  0.69164200  0.75688900  1
  N  965  1  0.39732400  0.72605500  0.39356300  1
  N  966  1  0.41608400  0.74020500  0.30551000  1
  N  983  1  0.39785900  0.29164700  0.58200400  1
  N  984  1  0.41585300  0.27739100  0.67007600  1
  N  2007  1  0.52012200  0.14672700  0.30462700  1
  N  2008  1  0.61539100  0.09315500  0.35786700  1
  N  2009  1  0.39305800  0.20927800  0.40999500  1
  N  2010  1  0.52644900  0.16791800  0.45902900  1
  N  2033  1  0.52014700  0.87093600  0.67090000  1
  N  2034  1  0.61535400  0.92449100  0.61763100  1
  N  2035  1  0.39299400  0.80834000  0.56555300  1
  N  2036  1  0.52636800  0.84970500  0.51649100  1
  N  2059  1  0.28553400  0.32603400  0.84899200  1
  N  2060  1  0.19044430  0.37935600  0.90261500  1
  N  2061  1  0.41210300  0.43157800  0.78647400  1
  N  2062  1  0.27836600  0.48049200  0.82779700  1
  N  2085  1  0.28543200  0.69165900  0.12645700  1
  N  2086  1  0.19025630  0.63834800  0.07285700  1
  N  2087  1  0.41183100  0.58610300  0.18904200  1
  N  2088  1  0.27777600  0.53726600  0.14779100  1
  N  2111  1  0.03321830  0.37044400  0.30426800  1
  N  2112  1  0.94019400  0.42451600  0.35791800  1
  N  2113  1  0.16258230  0.30815300  0.40560000  1
  N  2114  1  0.02939430  0.34890200  0.45853100  1
  N  2137  1  0.03243430  0.64703400  0.67129600  1
  N  2138  1  0.93982200  0.59307000  0.61748500  1
  N  2139  1  0.16236830  0.70948200  0.57003600  1
  N  2140  1  0.02928630  0.66877400  0.51700800  1
  N  2163  1  0.26129000  0.19198800  0.85324900  1
  N  2164  1  0.36349000  0.13869300  0.90366600  1
  N  2165  1  0.14214430  0.08632100  0.78741900  1
  N  2166  1  0.27761200  0.03773700  0.82808000  1
  N  2189  1  0.26134600  0.82561600  0.12223300  1
  N  2190  1  0.36349800  0.87889000  0.07176200  1
  N  2191  1  0.14207230  0.93127400  0.18801800  1
  N  2192  1  0.27753600  0.97984600  0.14736800  1
  N  2215  1  0.01053425  0.64330500  0.80536100  1
  N  2216  1  0.11366630  0.59310200  0.85852600  1
  N  2217  1  0.89257400  0.70937600  0.91097900  1
  N  2218  1  0.02789630  0.66865400  0.95955500  1
  N  2241  1  0.01406425  0.37289700  0.17031100  1
  N  2242  1  0.11187030  0.42498000  0.11710100  1
  N  2243  1  0.90072800  0.30493900  0.06504700  1
  N  2244  1  0.02865630  0.34906200  0.01595700  1
  N  2267  1  0.78295800  0.82593600  0.34967100  1
  N  2268  1  0.68946700  0.87977100  0.40332900  1
  N  2269  1  0.91167200  0.92712200  0.28682500  1
  N  2270  1  0.77865500  0.98020100  0.32750800  1
  N  2293  1  0.78302200  0.19171500  0.62584900  1
  N  2294  1  0.68949200  0.13790200  0.57218900  1
  N  2295  1  0.91172800  0.09050100  0.68864300  1
  N  2296  1  0.77870200  0.03743600  0.64795900  1
  N  2319  1  0.54225800  0.87437900  0.80487700  1
  N  2320  1  0.44198000  0.92498800  0.85863200  1
  N  2321  1  0.66337900  0.80838200  0.90639900  1
  N  2322  1  0.52830500  0.84836200  0.95897100  1
  N  2345  1  0.54182900  0.14344500  0.17067900  1
  N  2346  1  0.44203800  0.09256400  0.11700800  1
  N  2347  1  0.66135300  0.20994100  0.06925700  1
  N  2348  1  0.52752900  0.16907400  0.01658000  1
  N  2371  1  0.76309700  0.69197900  0.35392300  1
  N  2372  1  0.86407400  0.63829700  0.40438300  1
  N  2373  1  0.64214600  0.59059100  0.28784500  1
  N  2374  1  0.77716900  0.53792900  0.32783500  1
  N  2397  1  0.76326000  0.32560100  0.62165300  1
  N  2398  1  0.86406000  0.37927900  0.57111600  1
  N  2399  1  0.64213900  0.42701400  0.68762000  1
  N  2400  1  0.77698900  0.47967800  0.64756800  1
  N  2409  1  0.21843200  0.27983800  0.36807900  1
  N  2410  1  0.24833400  0.26901800  0.45589100  1
  N  2427  1  0.21835400  0.73779800  0.60754100  1
  N  2428  1  0.24807800  0.74861100  0.51971900  1
  N  2445  1  0.58633100  0.38943700  0.71599800  1
  N  2446  1  0.55742600  0.47729800  0.72687800  1
  N  2463  1  0.58623400  0.62818000  0.25952400  1
  N  2464  1  0.55731100  0.54033300  0.24854500  1
  N  2481  1  0.96684600  0.12813300  0.71713700  1
  N  2482  1  0.99785600  0.04035100  0.72765400  1
  N  2499  1  0.96688800  0.88948400  0.25838400  1
  N  2500  1  0.99763800  0.97726400  0.24771100  1
  N  2517  1  0.71749600  0.77935200  0.86880600  1
  N  2518  1  0.75255900  0.76768700  0.95735000  1
  N  2535  1  0.70340300  0.24409800  0.10506100  1
  N  2536  1  0.76448800  0.24173100  0.01953300  1
  N  2553  1  0.60147000  0.10627700  0.54589000  1
  N  2554  1  0.64376800  0.19318800  0.53595000  1
  N  2571  1  0.60138300  0.91138300  0.42964200  1
  N  2572  1  0.64378000  0.82448100  0.43956200  1
  N  2589  1  0.20121500  0.56699900  0.88942800  1
  N  2590  1  0.16035830  0.55709300  0.80236000  1
  N  2607  1  0.19961630  0.45106900  0.08599700  1
  N  2608  1  0.15941630  0.46069300  0.17314400  1
  N  2625  1  0.95188400  0.41035800  0.54510000  1
  N  2626  1  0.91115000  0.32330300  0.53511400  1
  N  2643  1  0.95197800  0.60727000  0.43043200  1
  N  2644  1  0.91100800  0.69430600  0.44038400  1
  N  2661  1  0.35476400  0.95123700  0.88980500  1
  N  2662  1  0.39499200  0.96096400  0.80267000  1
  N  2679  1  0.35493400  0.06635600  0.08572700  1
  N  2680  1  0.39485600  0.05660100  0.17288600  1
  N  2697  1  0.10265230  0.60686500  0.04642100  1
  N  2698  1  0.14490030  0.69380200  0.03658200  1
  N  2715  1  0.10228430  0.41076800  0.92895400  1
  N  2716  1  0.14552830  0.32393100  0.93888200  1
  N  2733  1  0.70798100  0.06794000  0.38898200  1
  N  2734  1  0.65965500  0.05440200  0.30193200  1
  N  2751  1  0.70789100  0.94970500  0.58649100  1
  N  2752  1  0.65968500  0.96323500  0.67355400  1
  N  2769  1  0.45093200  0.90985200  0.04561800  1
  N  2770  1  0.41022700  0.82279000  0.03562600  1
  N  2787  1  0.45094700  0.10770800  0.92978200  1
  N  2788  1  0.41010100  0.19476300  0.93980300  1
  N  2805  1  0.85243900  0.45099100  0.38946400  1
  N  2806  1  0.89461400  0.46090600  0.30254800  1
  N  2823  1  0.85201600  0.56659500  0.58586800  1
  N  2824  1  0.89416400  0.55678700  0.67279900  1
  N  2841  1  0.52278600  0.10347600  0.20443100  1
  N  2842  1  0.50307700  0.19138300  0.21919900  1
  N  2859  1  0.52330500  0.91424200  0.77109600  1
  N  2860  1  0.50343600  0.82632800  0.75639900  1
  N  2877  1  0.28070600  0.22613300  0.89277800  1
  N  2878  1  0.30051800  0.24017800  0.80475500  1
  N  2895  1  0.28098000  0.79159500  0.08271400  1
  N  2896  1  0.30030000  0.77744600  0.17075200  1
  N  2913  1  0.03168230  0.41321500  0.20395700  1
  N  2914  1  0.05304830  0.32542300  0.21901100  1
  N  2931  1  0.02913630  0.60368800  0.77141500  1
  N  2932  1  0.04894630  0.69164200  0.75688900  1
  N  2949  1  0.78228600  0.72605500  0.39356300  1
  N  2950  1  0.80104600  0.74020500  0.30551000  1
  N  2967  1  0.78282100  0.29164700  0.58200400  1
  N  2968  1  0.80081500  0.27739100  0.67007600  1
  O  427  1  0.86524200  0.29300600  0.35513300  1
  O  428  1  0.90394800  0.27919200  0.46694600  1
  O  429  1  0.81113300  0.26375400  0.35487100  1
  O  430  1  0.84914600  0.25016200  0.46735900  1
  O  445  1  0.86517800  0.72462200  0.62047000  1
  O  446  1  0.90366600  0.73843400  0.50865200  1
  O  447  1  0.81109800  0.75388400  0.62075900  1
  O  448  1  0.84887600  0.76746700  0.50825300  1
  O  463  1  0.16954700  0.37653200  0.70281200  1
  O  464  1  0.13211800  0.48847700  0.71667500  1
  O  465  1  0.22351500  0.37620400  0.73210800  1
  O  466  1  0.18671100  0.48869900  0.74577400  1
  O  481  1  0.16945500  0.64107400  0.27272000  1
  O  482  1  0.13200300  0.52913900  0.25873200  1
  O  483  1  0.22342400  0.64142700  0.24342600  1
  O  484  1  0.18660000  0.52895900  0.22963400  1
  O  499  1  0.61345400  0.14121000  0.70401400  1
  O  500  1  0.65355800  0.02940400  0.71743100  1
  O  501  1  0.55941400  0.14122100  0.73328600  1
  O  502  1  0.59884800  0.02880100  0.74648600  1
  O  517  1  0.61354400  0.87644300  0.27152600  1
  O  518  1  0.65332000  0.98825300  0.25790700  1
  O  519  1  0.55947800  0.87636100  0.24226100  1
  O  520  1  0.59857000  0.98877100  0.22886200  1
  O  535  1  0.36414000  0.79248700  0.85575300  1
  O  536  1  0.37028100  0.78981000  0.96308400  1
  O  537  1  0.31031500  0.76313900  0.85572200  1
  O  538  1  0.32112700  0.75872100  0.96448400  1
  O  553  1  0.34722400  0.23456400  0.12188100  1
  O  554  1  0.42500700  0.23158700  0.01274400  1
  O  555  1  0.28878500  0.26105200  0.11381400  1
  O  556  1  0.36661600  0.25805100  0.00444700  1
  O  571  1  0.24224300  0.09018100  0.53386700  1
  O  572  1  0.29592400  0.20061700  0.52114700  1
  O  573  1  0.16848000  0.09816000  0.55216500  1
  O  574  1  0.22315800  0.20993500  0.53954400  1
  O  589  1  0.24213700  0.92748200  0.44166700  1
  O  590  1  0.29593900  0.81705400  0.45436300  1
  O  591  1  0.16838200  0.91949200  0.42336900  1
  O  592  1  0.22319100  0.80772900  0.43595900  1
  O  607  1  0.79049000  0.55480800  0.90539000  1
  O  608  1  0.81112000  0.56094800  0.78570000  1
  O  609  1  0.86400600  0.57342300  0.89772400  1
  O  610  1  0.73888000  0.54207200  0.79482700  1
  O  625  1  0.78903400  0.46334200  0.07005700  1
  O  626  1  0.81035800  0.45668300  0.18969900  1
  O  627  1  0.86232800  0.44455600  0.07769200  1
  O  628  1  0.73817200  0.47572700  0.18085100  1
  O  643  1  0.54128800  0.42633900  0.53288900  1
  O  644  1  0.56192600  0.30665800  0.53901400  1
  O  645  1  0.61462200  0.41863200  0.55161500  1
  O  646  1  0.48976200  0.31574800  0.52006500  1
  O  661  1  0.54141600  0.59128200  0.44264900  1
  O  662  1  0.56174200  0.71096800  0.43647600  1
  O  663  1  0.61473800  0.59901500  0.42392200  1
  O  664  1  0.48960400  0.70185000  0.45543000  1
  O  679  1  0.99583800  0.96336300  0.90573500  1
  O  680  1  0.97407000  0.95717300  0.78608600  1
  O  681  1  0.92203200  0.94491800  0.89815900  1
  O  682  1  0.04665800  0.97588900  0.79504400  1
  O  697  1  0.99605200  0.05423300  0.06980700  1
  O  698  1  0.97387400  0.06039200  0.18944600  1
  O  699  1  0.92223600  0.07268400  0.07734600  1
  O  700  1  0.04649400  0.04167600  0.18053400  1
  O  715  1  0.74362400  0.59078400  0.03445300  1
  O  716  1  0.79722800  0.70123100  0.02185800  1
  O  717  1  0.66960400  0.59872000  0.05257700  1
  O  718  1  0.72422200  0.71054000  0.04009000  1
  O  733  1  0.74297800  0.42691000  0.94094500  1
  O  734  1  0.79783000  0.31658000  0.95365700  1
  O  735  1  0.66918800  0.41880300  0.92272600  1
  O  736  1  0.72506400  0.30712000  0.93533100  1
  O  751  1  0.29858900  0.05614800  0.40561100  1
  O  752  1  0.22153200  0.05687000  0.30425600  1
  O  753  1  0.37167600  0.07431200  0.39630400  1
  O  754  1  0.29534700  0.07308500  0.29212100  1
  O  769  1  0.29847900  0.96150200  0.56987100  1
  O  770  1  0.22155900  0.96076200  0.67124400  1
  O  771  1  0.37157700  0.94333400  0.57915600  1
  O  772  1  0.29539500  0.94455400  0.68336400  1
  O  787  1  0.04019000  0.92583300  0.03345900  1
  O  788  1  0.06105400  0.80614800  0.03945300  1
  O  789  1  0.11371800  0.91814100  0.05205200  1
  O  790  1  0.98872900  0.81524700  0.02061900  1
  O  805  1  0.04018200  0.09170400  0.94190300  1
  O  806  1  0.06095700  0.21140100  0.93601400  1
  O  807  1  0.11379100  0.09944700  0.92338900  1
  O  808  1  0.98853200  0.20230400  0.95477900  1
  O  823  1  0.49327400  0.46299500  0.40555600  1
  O  824  1  0.54679200  0.47569000  0.29510400  1
  O  825  1  0.41944200  0.44474100  0.39759300  1
  O  826  1  0.47395800  0.45732400  0.28581700  1
  O  841  1  0.49289800  0.55459100  0.56978900  1
  O  842  1  0.54639000  0.54203400  0.68026300  1
  O  843  1  0.41900900  0.57281300  0.57772800  1
  O  844  1  0.47349100  0.56036500  0.68952400  1
  O  859  1  0.09581800  0.08930400  0.20622600  1
  O  860  1  0.15791100  0.20458500  0.22709100  1
  O  861  1  0.18303200  0.09159300  0.20788500  1
  O  862  1  0.07112000  0.20091100  0.22490700  1
  O  877  1  0.09632600  0.92840700  0.76931200  1
  O  878  1  0.15819400  0.81310000  0.74848400  1
  O  879  1  0.18353800  0.92612400  0.76760900  1
  O  880  1  0.07142700  0.81682100  0.75073400  1
  O  895  1  0.93794800  0.22778100  0.90686200  1
  O  896  1  0.87606200  0.24822100  0.79148000  1
  O  897  1  0.85076700  0.22992600  0.90471700  1
  O  898  1  0.96276200  0.24553100  0.79520800  1
  O  913  1  0.93824800  0.78992700  0.06864700  1
  O  914  1  0.87573400  0.76940800  0.18397200  1
  O  915  1  0.85105800  0.78784000  0.07075100  1
  O  916  1  0.96246600  0.77205400  0.18034700  1
  O  931  1  0.68834200  0.42757300  0.20587800  1
  O  932  1  0.62840000  0.31208600  0.22677600  1
  O  933  1  0.60115800  0.42491100  0.20720200  1
  O  934  1  0.71515200  0.31608800  0.22492700  1
  O  949  1  0.68630200  0.58957700  0.76963800  1
  O  950  1  0.62439600  0.70492600  0.74894600  1
  O  951  1  0.59907800  0.59175300  0.76787700  1
  O  952  1  0.71112800  0.70111100  0.75130100  1
  O  967  1  0.43949400  0.72802000  0.40762500  1
  O  968  1  0.37614600  0.74792300  0.29228300  1
  O  969  1  0.35222400  0.72950000  0.40552300  1
  O  970  1  0.46297200  0.74592900  0.29589400  1
  O  985  1  0.44009600  0.28966400  0.56798000  1
  O  986  1  0.37576100  0.26968500  0.68322600  1
  O  987  1  0.35281100  0.28824600  0.56999400  1
  O  988  1  0.46262600  0.27162800  0.67976600  1
  O  2411  1  0.25020400  0.29300600  0.35513300  1
  O  2412  1  0.28891000  0.27919200  0.46694600  1
  O  2413  1  0.19609530  0.26375400  0.35487100  1
  O  2414  1  0.23410800  0.25016200  0.46735900  1
  O  2429  1  0.25014000  0.72462200  0.62047000  1
  O  2430  1  0.28862800  0.73843400  0.50865200  1
  O  2431  1  0.19606030  0.75388400  0.62075900  1
  O  2432  1  0.23383800  0.76746700  0.50825300  1
  O  2447  1  0.55450900  0.37653200  0.70281200  1
  O  2448  1  0.51708000  0.48847700  0.71667500  1
  O  2449  1  0.60847700  0.37620400  0.73210800  1
  O  2450  1  0.57167300  0.48869900  0.74577400  1
  O  2465  1  0.55441700  0.64107400  0.27272000  1
  O  2466  1  0.51696500  0.52913900  0.25873200  1
  O  2467  1  0.60838600  0.64142700  0.24342600  1
  O  2468  1  0.57156200  0.52895900  0.22963400  1
  O  2483  1  0.99841600  0.14121000  0.70401400  1
  O  2484  1  0.03852030  0.02940400  0.71743100  1
  O  2485  1  0.94437600  0.14122100  0.73328600  1
  O  2486  1  0.98381000  0.02880100  0.74648600  1
  O  2501  1  0.99850600  0.87644300  0.27152600  1
  O  2502  1  0.03828230  0.98825300  0.25790700  1
  O  2503  1  0.94444000  0.87636100  0.24226100  1
  O  2504  1  0.98353200  0.98877100  0.22886200  1
  O  2519  1  0.74910200  0.79248700  0.85575300  1
  O  2520  1  0.75524300  0.78981000  0.96308400  1
  O  2521  1  0.69527700  0.76313900  0.85572200  1
  O  2522  1  0.70608900  0.75872100  0.96448400  1
  O  2537  1  0.73218600  0.23456400  0.12188100  1
  O  2538  1  0.80996900  0.23158700  0.01274400  1
  O  2539  1  0.67374700  0.26105200  0.11381400  1
  O  2540  1  0.75157800  0.25805100  0.00444700  1
  O  2555  1  0.62720500  0.09018100  0.53386700  1
  O  2556  1  0.68088600  0.20061700  0.52114700  1
  O  2557  1  0.55344200  0.09816000  0.55216500  1
  O  2558  1  0.60812000  0.20993500  0.53954400  1
  O  2573  1  0.62709900  0.92748200  0.44166700  1
  O  2574  1  0.68090100  0.81705400  0.45436300  1
  O  2575  1  0.55334400  0.91949200  0.42336900  1
  O  2576  1  0.60815300  0.80772900  0.43595900  1
  O  2591  1  0.17545230  0.55480800  0.90539000  1
  O  2592  1  0.19608230  0.56094800  0.78570000  1
  O  2593  1  0.24896800  0.57342300  0.89772400  1
  O  2594  1  0.12384230  0.54207200  0.79482700  1
  O  2609  1  0.17399630  0.46334200  0.07005700  1
  O  2610  1  0.19532030  0.45668300  0.18969900  1
  O  2611  1  0.24729000  0.44455600  0.07769200  1
  O  2612  1  0.12313430  0.47572700  0.18085100  1
  O  2627  1  0.92625000  0.42633900  0.53288900  1
  O  2628  1  0.94688800  0.30665800  0.53901400  1
  O  2629  1  0.99958400  0.41863200  0.55161500  1
  O  2630  1  0.87472400  0.31574800  0.52006500  1
  O  2645  1  0.92637800  0.59128200  0.44264900  1
  O  2646  1  0.94670400  0.71096800  0.43647600  1
  O  2647  1  0.99970000  0.59901500  0.42392200  1
  O  2648  1  0.87456600  0.70185000  0.45543000  1
  O  2663  1  0.38080000  0.96336300  0.90573500  1
  O  2664  1  0.35903200  0.95717300  0.78608600  1
  O  2665  1  0.30699400  0.94491800  0.89815900  1
  O  2666  1  0.43162000  0.97588900  0.79504400  1
  O  2681  1  0.38101400  0.05423300  0.06980700  1
  O  2682  1  0.35883600  0.06039200  0.18944600  1
  O  2683  1  0.30719800  0.07268400  0.07734600  1
  O  2684  1  0.43145600  0.04167600  0.18053400  1
  O  2699  1  0.12858630  0.59078400  0.03445300  1
  O  2700  1  0.18219030  0.70123100  0.02185800  1
  O  2701  1  0.05456630  0.59872000  0.05257700  1
  O  2702  1  0.10918430  0.71054000  0.04009000  1
  O  2717  1  0.12794030  0.42691000  0.94094500  1
  O  2718  1  0.18279230  0.31658000  0.95365700  1
  O  2719  1  0.05415030  0.41880300  0.92272600  1
  O  2720  1  0.11002630  0.30712000  0.93533100  1
  O  2735  1  0.68355100  0.05614800  0.40561100  1
  O  2736  1  0.60649400  0.05687000  0.30425600  1
  O  2737  1  0.75663800  0.07431200  0.39630400  1
  O  2738  1  0.68030900  0.07308500  0.29212100  1
  O  2753  1  0.68344100  0.96150200  0.56987100  1
  O  2754  1  0.60652100  0.96076200  0.67124400  1
  O  2755  1  0.75653900  0.94333400  0.57915600  1
  O  2756  1  0.68035700  0.94455400  0.68336400  1
  O  2771  1  0.42515200  0.92583300  0.03345900  1
  O  2772  1  0.44601600  0.80614800  0.03945300  1
  O  2773  1  0.49868000  0.91814100  0.05205200  1
  O  2774  1  0.37369100  0.81524700  0.02061900  1
  O  2789  1  0.42514400  0.09170400  0.94190300  1
  O  2790  1  0.44591900  0.21140100  0.93601400  1
  O  2791  1  0.49875300  0.09944700  0.92338900  1
  O  2792  1  0.37349400  0.20230400  0.95477900  1
  O  2807  1  0.87823600  0.46299500  0.40555600  1
  O  2808  1  0.93175400  0.47569000  0.29510400  1
  O  2809  1  0.80440400  0.44474100  0.39759300  1
  O  2810  1  0.85892000  0.45732400  0.28581700  1
  O  2825  1  0.87786000  0.55459100  0.56978900  1
  O  2826  1  0.93135200  0.54203400  0.68026300  1
  O  2827  1  0.80397100  0.57281300  0.57772800  1
  O  2828  1  0.85845300  0.56036500  0.68952400  1
  O  2843  1  0.48078000  0.08930400  0.20622600  1
  O  2844  1  0.54287300  0.20458500  0.22709100  1
  O  2845  1  0.56799400  0.09159300  0.20788500  1
  O  2846  1  0.45608200  0.20091100  0.22490700  1
  O  2861  1  0.48128800  0.92840700  0.76931200  1
  O  2862  1  0.54315600  0.81310000  0.74848400  1
  O  2863  1  0.56850000  0.92612400  0.76760900  1
  O  2864  1  0.45638900  0.81682100  0.75073400  1
  O  2879  1  0.32291000  0.22778100  0.90686200  1
  O  2880  1  0.26102400  0.24822100  0.79148000  1
  O  2881  1  0.23572900  0.22992600  0.90471700  1
  O  2882  1  0.34772400  0.24553100  0.79520800  1
  O  2897  1  0.32321000  0.78992700  0.06864700  1
  O  2898  1  0.26069600  0.76940800  0.18397200  1
  O  2899  1  0.23602000  0.78784000  0.07075100  1
  O  2900  1  0.34742800  0.77205400  0.18034700  1
  O  2915  1  0.07330430  0.42757300  0.20587800  1
  O  2916  1  0.01336225  0.31208600  0.22677600  1
  O  2917  1  0.98612000  0.42491100  0.20720200  1
  O  2918  1  0.10011430  0.31608800  0.22492700  1
  O  2933  1  0.07126430  0.58957700  0.76963800  1
  O  2934  1  0.00935825  0.70492600  0.74894600  1
  O  2935  1  0.98404000  0.59175300  0.76787700  1
  O  2936  1  0.09609030  0.70111100  0.75130100  1
  O  2951  1  0.82445600  0.72802000  0.40762500  1
  O  2952  1  0.76110800  0.74792300  0.29228300  1
  O  2953  1  0.73718600  0.72950000  0.40552300  1
  O  2954  1  0.84793400  0.74592900  0.29589400  1
  O  2969  1  0.82505800  0.28966400  0.56798000  1
  O  2970  1  0.76072300  0.26968500  0.68322600  1
  O  2971  1  0.73777300  0.28824600  0.56999400  1
  O  2972  1  0.84758800  0.27162800  0.67976600  1
