# generated using pymatgen
data_H10C13N5
_symmetry_space_group_name_H-M   'P 1'
_cell_length_a   42.06870000
_cell_length_b   42.06860000
_cell_length_c   53.59020000
_cell_angle_alpha   90.00070000
_cell_angle_beta   90.00000000
_cell_angle_gamma   90.00000000
_symmetry_Int_Tables_number   1
_chemical_formula_structural   H10C13N5
_chemical_formula_sum   'H640 C832 N320'
_cell_volume   94842.39860121
_cell_formula_units_Z   64
loop_
 _symmetry_equiv_pos_site_id
 _symmetry_equiv_pos_as_xyz
  1  'x, y, z'
loop_
 _atom_site_type_symbol
 _atom_site_label
 _atom_site_symmetry_multiplicity
 _atom_site_fract_x
 _atom_site_fract_y
 _atom_site_fract_z
 _atom_site_occupancy
  H  7  1  0.17776100  0.43034000  0.90627100  1
  H  8  1  0.19896700  0.35404900  0.95392100  1
  H  15  1  0.13047400  0.41629500  0.80105200  1
  H  16  1  0.20749100  0.39738300  0.84843900  1
  H  19  1  0.16583400  0.33749800  0.85757300  1
  H  20  1  0.17448400  0.30783500  0.87632300  1
  H  21  1  0.08577900  0.39857500  0.88036900  1
  H  22  1  0.11580100  0.39105400  0.89908500  1
  H  33  1  0.32976300  0.51343000  0.40626500  1
  H  34  1  0.30858300  0.58972500  0.45392300  1
  H  41  1  0.37703600  0.52741200  0.30106500  1
  H  42  1  0.30000500  0.54634400  0.34843000  1
  H  45  1  0.34168400  0.60626600  0.35756600  1
  H  46  1  0.33308900  0.63593600  0.37632600  1
  H  47  1  0.42171300  0.54516800  0.38038100  1
  H  48  1  0.39168800  0.55271300  0.39909200  1
  H  59  1  0.79458200  0.89311300  0.15577600  1
  H  60  1  0.87134400  0.91275800  0.20335600  1
  H  67  1  0.80433900  0.84856000  0.05013700  1
  H  68  1  0.83103900  0.92311100  0.09779800  1
  H  71  1  0.88717100  0.87873100  0.10714600  1
  H  72  1  0.91698600  0.88719400  0.12580000  1
  H  73  1  0.81609200  0.80209700  0.12930300  1
  H  74  1  0.82710500  0.83082900  0.14820400  1
  H  85  1  0.71296000  0.05066800  0.65577300  1
  H  86  1  0.63618600  0.03098400  0.70333600  1
  H  93  1  0.70316200  0.09522800  0.55012300  1
  H  94  1  0.67649800  0.02068600  0.59780600  1
  H  97  1  0.62037800  0.06508100  0.60713700  1
  H  98  1  0.59056000  0.05659200  0.62578300  1
  H  99  1  0.69133100  0.14173500  0.62927400  1
  H  100  1  0.68035900  0.11299600  0.64818400  1
  H  111  1  0.32809000  0.42566200  0.59831700  1
  H  112  1  0.31067300  0.34818800  0.55103200  1
  H  119  1  0.37104300  0.41847500  0.70385900  1
  H  120  1  0.29523400  0.39575000  0.65616900  1
  H  123  1  0.33522600  0.33432400  0.64925200  1
  H  124  1  0.32830100  0.30410400  0.63058800  1
  H  125  1  0.41790900  0.39401200  0.62651800  1
  H  126  1  0.38845800  0.38476000  0.60773500  1
  H  137  1  0.17947000  0.51813900  0.09832400  1
  H  138  1  0.19676300  0.59560400  0.05101100  1
  H  145  1  0.13648400  0.52528800  0.20382800  1
  H  146  1  0.21231100  0.54803600  0.15616600  1
  H  149  1  0.17223500  0.60949300  0.14923000  1
  H  150  1  0.17906200  0.63971700  0.13054500  1
  H  151  1  0.08964700  0.54977100  0.12648300  1
  H  152  1  0.11910400  0.55903600  0.10771000  1
  H  163  1  0.70837500  0.89455900  0.34864000  1
  H  164  1  0.63040200  0.91059600  0.30156300  1
  H  171  1  0.70544400  0.85416000  0.45431300  1
  H  172  1  0.67509100  0.92761500  0.40682800  1
  H  175  1  0.61730700  0.88503200  0.39966700  1
  H  176  1  0.58693800  0.89179300  0.38112000  1
  H  177  1  0.68661300  0.80555000  0.37692500  1
  H  178  1  0.67393600  0.83371800  0.35815000  1
  H  189  1  0.79913600  0.04919000  0.84864800  1
  H  190  1  0.87710800  0.03313400  0.80156900  1
  H  197  1  0.80212600  0.08962000  0.95432600  1
  H  198  1  0.83243600  0.01616700  0.90681900  1
  H  201  1  0.89021300  0.05875000  0.89966700  1
  H  202  1  0.92057800  0.05196300  0.88112100  1
  H  203  1  0.82100500  0.13825800  0.87695400  1
  H  204  1  0.83363900  0.11008600  0.85816700  1
  H  215  1  0.83256700  0.51225300  0.10174100  1
  H  216  1  0.81168700  0.58884600  0.05433600  1
  H  223  1  0.87665000  0.52093100  0.20720600  1
  H  224  1  0.80238100  0.54893700  0.15974200  1
  H  227  1  0.84656100  0.60493600  0.15032100  1
  H  228  1  0.83748300  0.63468200  0.13176300  1
  H  229  1  0.92335000  0.53353800  0.12823000  1
  H  230  1  0.89473400  0.54505900  0.10938500  1
  H  241  1  0.67497500  0.43153100  0.60174100  1
  H  242  1  0.69583100  0.35493600  0.55432900  1
  H  249  1  0.63089700  0.42290400  0.70718900  1
  H  250  1  0.70518000  0.39487500  0.65974800  1
  H  253  1  0.66102600  0.33885200  0.65033200  1
  H  254  1  0.67005900  0.30910300  0.63176300  1
  H  255  1  0.58423300  0.41031100  0.62819900  1
  H  256  1  0.61284500  0.39875600  0.60936500  1
  H  267  1  0.21058300  0.05318500  0.85111300  1
  H  268  1  0.13636600  0.02431300  0.80383600  1
  H  275  1  0.20059600  0.09441100  0.95664900  1
  H  276  1  0.17366500  0.01956000  0.90938100  1
  H  279  1  0.11672600  0.05731600  0.89978100  1
  H  280  1  0.08832500  0.04474600  0.88117300  1
  H  281  1  0.18693100  0.14071200  0.87767200  1
  H  282  1  0.17535500  0.11199300  0.85895800  1
  H  293  1  0.29692200  0.89059400  0.35111500  1
  H  294  1  0.37115000  0.91947500  0.30385200  1
  H  301  1  0.30692900  0.84936100  0.45666000  1
  H  302  1  0.33382600  0.92420900  0.40937700  1
  H  305  1  0.39076800  0.88643700  0.39979300  1
  H  306  1  0.41917200  0.89901900  0.38119500  1
  H  307  1  0.32063500  0.80303500  0.37769600  1
  H  308  1  0.33217300  0.83175900  0.35897300  1
  H  319  1  0.67646000  0.51686700  0.40882500  1
  H  320  1  0.69369900  0.59474800  0.45572200  1
  H  327  1  0.63663000  0.51870500  0.30332100  1
  H  328  1  0.70973700  0.55032300  0.35062000  1
  H  331  1  0.66728500  0.60796000  0.35777300  1
  H  332  1  0.67467000  0.63828300  0.37623100  1
  H  333  1  0.58766800  0.53833400  0.38042200  1
  H  334  1  0.61569300  0.55149400  0.39914400  1
  H  345  1  0.83104600  0.42690500  0.90882000  1
  H  346  1  0.81389000  0.34902800  0.95573700  1
  H  353  1  0.87088500  0.42511100  0.80334300  1
  H  354  1  0.79776400  0.39347800  0.85062400  1
  H  357  1  0.84023800  0.33580500  0.85777900  1
  H  358  1  0.83293100  0.30547900  0.87625400  1
  H  359  1  0.91983100  0.40543000  0.88044300  1
  H  360  1  0.89180100  0.39226400  0.89915700  1
  H  371  1  0.30127900  0.05195600  0.65944900  1
  H  372  1  0.37672400  0.02656600  0.70664600  1
  H  379  1  0.30461100  0.08876300  0.55390600  1
  H  380  1  0.33500900  0.01512900  0.60115900  1
  H  383  1  0.39340400  0.05095900  0.60871600  1
  H  384  1  0.42240200  0.04000000  0.62738900  1
  H  385  1  0.32526800  0.13742400  0.63093500  1
  H  386  1  0.33843200  0.10929400  0.64954800  1
  H  397  1  0.20625600  0.89182900  0.15944500  1
  H  398  1  0.13081700  0.91723900  0.20664600  1
  H  405  1  0.20288100  0.85503300  0.05389100  1
  H  406  1  0.17251600  0.92865400  0.10117100  1
  H  409  1  0.11412300  0.89282900  0.10871800  1
  H  410  1  0.08513200  0.90380900  0.12739100  1
  H  411  1  0.18221400  0.80633500  0.13090000  1
  H  412  1  0.16908800  0.83446300  0.14953300  1
  H  422  1  0.26797800  0.45603200  0.78452800  1
  H  425  1  0.30701200  0.47797700  0.75828100  1
  H  426  1  0.30010700  0.47267500  0.72611400  1
  H  427  1  0.32697700  0.44732200  0.74229800  1
  H  429  1  0.23091200  0.42906200  0.81397600  1
  H  431  1  0.26752400  0.39953200  0.69440300  1
  H  437  1  0.23952500  0.48768400  0.28451100  1
  H  440  1  0.20048400  0.46576500  0.25825800  1
  H  441  1  0.20739300  0.47107500  0.22609200  1
  H  442  1  0.18053200  0.49643400  0.24228100  1
  H  444  1  0.27660000  0.51462200  0.31396400  1
  H  446  1  0.24001900  0.54417900  0.19439400  1
  H  452  1  0.77067500  0.98562900  0.03473700  1
  H  455  1  0.74817600  0.02460000  0.00877200  1
  H  456  1  0.75362200  0.01819200  0.97656000  1
  H  457  1  0.77854300  0.04523800  0.99298400  1
  H  459  1  0.79887200  0.94891300  0.06407300  1
  H  461  1  0.82742500  0.98717700  0.94464200  1
  H  467  1  0.73685000  0.95817000  0.53474200  1
  H  470  1  0.75936100  0.91920000  0.50877800  1
  H  471  1  0.75391700  0.92560800  0.47656700  1
  H  472  1  0.72900300  0.89855200  0.49298800  1
  H  474  1  0.70864100  0.99487500  0.56407500  1
  H  476  1  0.68009000  0.95659500  0.44464900  1
  H  482  1  0.74008000  0.48783100  0.22287100  1
  H  485  1  0.70150300  0.46510600  0.24909000  1
  H  486  1  0.70808300  0.47072900  0.28126100  1
  H  487  1  0.68076500  0.49540200  0.26488100  1
  H  489  1  0.77640900  0.51638100  0.19331300  1
  H  491  1  0.73891300  0.54467000  0.31292500  1
  H  497  1  0.76742600  0.45604500  0.72290300  1
  H  500  1  0.80597000  0.47878500  0.74914700  1
  H  501  1  0.79938100  0.47313000  0.78131300  1
  H  502  1  0.82672700  0.44849600  0.76492800  1
  H  504  1  0.73112800  0.42750600  0.69332300  1
  H  506  1  0.76860300  0.39912800  0.81292300  1
  H  512  1  0.23451400  0.95822400  0.97321400  1
  H  515  1  0.25736500  0.92004400  0.99973600  1
  H  516  1  0.25150500  0.92686600  0.03185000  1
  H  517  1  0.22711800  0.89923900  0.01553200  1
  H  519  1  0.20572000  0.99400800  0.94331300  1
  H  521  1  0.17705000  0.95737600  0.06306300  1
  H  527  1  0.27306100  0.98563600  0.47316700  1
  H  530  1  0.25025500  0.02387900  0.49965500  1
  H  531  1  0.25605000  0.01705700  0.53177700  1
  H  532  1  0.28052000  0.04462700  0.51547500  1
  H  534  1  0.30181400  0.94977500  0.44330100  1
  H  536  1  0.33046200  0.98642200  0.56305100  1
  H  542  1  0.76775200  0.95235200  0.28415700  1
  H  545  1  0.80680400  0.97413500  0.25783300  1
  H  546  1  0.79991100  0.96854600  0.22569300  1
  H  547  1  0.82686000  0.94340600  0.24200100  1
  H  549  1  0.73079500  0.92565300  0.31373700  1
  H  551  1  0.76769200  0.89476300  0.19444100  1
  H  557  1  0.73975700  0.99140000  0.78415500  1
  H  560  1  0.70070400  0.96962400  0.75782900  1
  H  561  1  0.70760200  0.97520500  0.72568900  1
  H  562  1  0.68065600  0.00035400  0.74199400  1
  H  564  1  0.77670800  0.01809900  0.81373700  1
  H  566  1  0.73984500  0.04898700  0.69443900  1
  H  572  1  0.26978000  0.48582200  0.53443200  1
  H  575  1  0.24804400  0.52514100  0.50833600  1
  H  576  1  0.25348500  0.51845800  0.47615300  1
  H  577  1  0.27878200  0.54520100  0.49252100  1
  H  579  1  0.29638000  0.44848800  0.56374900  1
  H  581  1  0.32684400  0.48609600  0.44455700  1
  H  587  1  0.23779900  0.45801500  0.03440000  1
  H  590  1  0.25954200  0.41871400  0.00829100  1
  H  591  1  0.25404900  0.42539000  0.97611200  1
  H  592  1  0.22880800  0.39861500  0.99250300  1
  H  594  1  0.21121100  0.49532500  0.06373500  1
  H  596  1  0.18057000  0.45764600  0.94458600  1
  H  602  1  0.24015300  0.99159400  0.72320900  1
  H  605  1  0.20160600  0.96901500  0.74955000  1
  H  606  1  0.20827100  0.97483500  0.78169000  1
  H  607  1  0.18087000  0.99937300  0.76527500  1
  H  609  1  0.27632400  0.01990500  0.69348500  1
  H  611  1  0.23894000  0.04922300  0.81296800  1
  H  617  1  0.26737900  0.95221000  0.22321600  1
  H  620  1  0.30591200  0.97479300  0.24956600  1
  H  621  1  0.29923700  0.96897000  0.28170500  1
  H  622  1  0.32664700  0.94444000  0.26529300  1
  H  624  1  0.23120700  0.92391600  0.19348700  1
  H  626  1  0.26857300  0.89455400  0.31296400  1
  H  632  1  0.73496500  0.45779600  0.47343200  1
  H  635  1  0.75696200  0.41916600  0.50004300  1
  H  636  1  0.75127400  0.42632600  0.53213700  1
  H  637  1  0.72630500  0.39909900  0.51594900  1
  H  639  1  0.70796800  0.49437800  0.44362100  1
  H  641  1  0.67760600  0.45860000  0.56319800  1
  H  647  1  0.77254600  0.48597200  0.97344900  1
  H  650  1  0.75056100  0.52460200  0.00006600  1
  H  651  1  0.75627300  0.51744800  0.03215900  1
  H  652  1  0.78122500  0.54467500  0.01595800  1
  H  654  1  0.79949700  0.44937900  0.94363200  1
  H  656  1  0.83003100  0.48520900  0.06317700  1
  H  662  1  0.24249900  0.24506500  0.95319900  1
  H  665  1  0.25988200  0.19363200  0.96402900  1
  H  666  1  0.25230200  0.16693900  0.93941700  1
  H  667  1  0.22912300  0.16543600  0.96717000  1
  H  669  1  0.22077500  0.29982300  0.94705200  1
  H  671  1  0.15661400  0.15693800  0.92556700  1
  H  677  1  0.26509000  0.69870400  0.45327500  1
  H  680  1  0.24774500  0.75013500  0.46415200  1
  H  681  1  0.25527500  0.77683800  0.43953800  1
  H  682  1  0.27851600  0.77832400  0.46725900  1
  H  684  1  0.28682600  0.64394400  0.44710400  1
  H  686  1  0.35093300  0.78683800  0.42559700  1
  H  692  1  0.97942700  0.95757000  0.20207300  1
  H  695  1  0.03051700  0.97582200  0.21287900  1
  H  696  1  0.05740600  0.96838300  0.18837600  1
  H  697  1  0.05915500  0.94552800  0.21629000  1
  H  699  1  0.92506800  0.93546100  0.19567800  1
  H  701  1  0.06879500  0.87274400  0.17445000  1
  H  707  1  0.52811000  0.98620500  0.70206300  1
  H  710  1  0.47702000  0.96797100  0.71288800  1
  H  711  1  0.45011900  0.97540100  0.68839100  1
  H  712  1  0.44839100  0.99827400  0.71629700  1
  H  714  1  0.58247100  0.00830900  0.69565900  1
  H  716  1  0.43874400  0.07103800  0.67445800  1
  H  722  1  0.26463400  0.23911100  0.55422700  1
  H  725  1  0.24727400  0.18724200  0.54455300  1
  H  726  1  0.25552000  0.16131000  0.56953700  1
  H  727  1  0.27813300  0.15912500  0.54153000  1
  H  729  1  0.28661500  0.29415700  0.55884900  1
  H  731  1  0.35147800  0.15203200  0.58134400  1
  H  737  1  0.24293100  0.70465500  0.05431400  1
  H  740  1  0.26036000  0.75651300  0.04468500  1
  H  741  1  0.25202600  0.78245000  0.06964700  1
  H  742  1  0.22953100  0.78464800  0.04158300  1
  H  744  1  0.22096300  0.64962600  0.05892500  1
  H  746  1  0.15601800  0.79177300  0.08123800  1
  H  752  1  0.52225500  0.95786000  0.30521300  1
  H  755  1  0.47071800  0.97599200  0.29545300  1
  H  756  1  0.44455600  0.96797900  0.32033300  1
  H  757  1  0.44217700  0.94556500  0.29223500  1
  H  759  1  0.57691600  0.93555300  0.31017600  1
  H  761  1  0.43395500  0.87205500  0.33233500  1
  H  767  1  0.98524800  0.98586500  0.80525400  1
  H  770  1  0.03678100  0.96771500  0.79550600  1
  H  771  1  0.06295200  0.97576700  0.82037200  1
  H  772  1  0.06532200  0.99813700  0.79225200  1
  H  774  1  0.93059000  0.00815500  0.81022700  1
  H  776  1  0.07355200  0.07171100  0.83231100  1
  H  782  1  0.76554600  0.69584300  0.05508200  1
  H  785  1  0.74672400  0.74655300  0.04374400  1
  H  786  1  0.75363200  0.77384000  0.06807300  1
  H  787  1  0.77665100  0.77555600  0.04024200  1
  H  789  1  0.78810400  0.64190500  0.06225300  1
  H  791  1  0.84895900  0.78661000  0.08267800  1
  H  797  1  0.74193900  0.24793900  0.55501200  1
  H  800  1  0.76072000  0.19722700  0.54362600  1
  H  801  1  0.75384800  0.16992900  0.56795300  1
  H  802  1  0.73077400  0.16823500  0.54014800  1
  H  804  1  0.71938300  0.30188200  0.56220900  1
  H  806  1  0.65853500  0.15717100  0.58260100  1
  H  812  1  0.74231900  0.70179700  0.45254200  1
  H  815  1  0.76105100  0.75297800  0.46278800  1
  H  816  1  0.75353900  0.77952900  0.43806700  1
  H  817  1  0.73099000  0.78189000  0.46609900  1
  H  819  1  0.71957800  0.64753300  0.44681500  1
  H  821  1  0.65786500  0.79146900  0.42540800  1
  H  827  1  0.76521300  0.24199100  0.95251000  1
  H  830  1  0.74645100  0.19081700  0.96274400  1
  H  831  1  0.75400300  0.16425600  0.93803400  1
  H  832  1  0.77650200  0.16190200  0.96609100  1
  H  834  1  0.78795200  0.29625000  0.94678900  1
  H  836  1  0.84970100  0.15229700  0.92548700  1
  H  842  1  0.47931600  0.46321600  0.70374300  1
  H  845  1  0.53047500  0.48112300  0.71490300  1
  H  846  1  0.55741700  0.47406300  0.69036200  1
  H  847  1  0.55902400  0.45068500  0.71800700  1
  H  849  1  0.42487200  0.44095000  0.69711700  1
  H  851  1  0.56863200  0.37863500  0.67597300  1
  H  857  1  0.02823900  0.48051100  0.20367000  1
  H  860  1  0.97708800  0.46260000  0.21485300  1
  H  861  1  0.95012000  0.46971000  0.19033900  1
  H  862  1  0.94855100  0.49304400  0.21801000  1
  H  864  1  0.08267700  0.50273200  0.19700300  1
  H  866  1  0.93891900  0.56517300  0.17607300  1
  H  872  1  0.02210200  0.46349100  0.80357300  1
  H  875  1  0.97048700  0.48134100  0.79353200  1
  H  876  1  0.94428200  0.47364600  0.81844900  1
  H  877  1  0.94203800  0.45077400  0.79057600  1
  H  879  1  0.07685400  0.44098500  0.80871700  1
  H  881  1  0.93385900  0.37793400  0.83082200  1
  H  887  1  0.48540600  0.48024000  0.30360400  1
  H  890  1  0.53702200  0.46239200  0.29356500  1
  H  891  1  0.56323100  0.47011600  0.31847400  1
  H  892  1  0.56546300  0.49296100  0.29058700  1
  H  894  1  0.43065100  0.50272200  0.30875600  1
  H  896  1  0.57363300  0.56584100  0.33081800  1
  H  903  1  0.34415500  0.59673500  0.90627100  1
  H  904  1  0.36536100  0.52044400  0.95392100  1
  H  911  1  0.29686800  0.58269000  0.80105200  1
  H  912  1  0.37388500  0.56377800  0.84843900  1
  H  915  1  0.33222800  0.50389300  0.85757300  1
  H  916  1  0.34087800  0.47423000  0.87632300  1
  H  917  1  0.25217300  0.56497000  0.88036900  1
  H  918  1  0.28219500  0.55744900  0.89908500  1
  H  929  1  0.49615700  0.67982500  0.40626500  1
  H  930  1  0.47497700  0.75612000  0.45392300  1
  H  937  1  0.54343000  0.69380700  0.30106500  1
  H  938  1  0.46639900  0.71273900  0.34843000  1
  H  941  1  0.50807800  0.77266100  0.35756600  1
  H  942  1  0.49948300  0.80233100  0.37632600  1
  H  943  1  0.58810700  0.71156300  0.38038100  1
  H  944  1  0.55808200  0.71910800  0.39909200  1
  H  955  1  0.96097600  0.05950790  0.15577600  1
  H  956  1  0.03773850  0.07915290  0.20335600  1
  H  963  1  0.97073300  0.01495490  0.05013700  1
  H  964  1  0.99743300  0.08950590  0.09779800  1
  H  967  1  0.05356550  0.04512590  0.10714600  1
  H  968  1  0.08338050  0.05358890  0.12580000  1
  H  969  1  0.98248600  0.96849200  0.12930300  1
  H  970  1  0.99349900  0.99722400  0.14820400  1
  H  981  1  0.87935400  0.21706300  0.65577300  1
  H  982  1  0.80258000  0.19737900  0.70333600  1
  H  989  1  0.86955600  0.26162300  0.55012300  1
  H  990  1  0.84289200  0.18708100  0.59780600  1
  H  993  1  0.78677200  0.23147600  0.60713700  1
  H  994  1  0.75695400  0.22298700  0.62578300  1
  H  995  1  0.85772500  0.30813000  0.62927400  1
  H  996  1  0.84675300  0.27939100  0.64818400  1
  H  1007  1  0.49448400  0.59205700  0.59831700  1
  H  1008  1  0.47706700  0.51458300  0.55103200  1
  H  1015  1  0.53743700  0.58487000  0.70385900  1
  H  1016  1  0.46162800  0.56214500  0.65616900  1
  H  1019  1  0.50162000  0.50071900  0.64925200  1
  H  1020  1  0.49469500  0.47049900  0.63058800  1
  H  1021  1  0.58430300  0.56040700  0.62651800  1
  H  1022  1  0.55485200  0.55115500  0.60773500  1
  H  1033  1  0.34586400  0.68453400  0.09832400  1
  H  1034  1  0.36315700  0.76199900  0.05101100  1
  H  1041  1  0.30287800  0.69168300  0.20382800  1
  H  1042  1  0.37870500  0.71443100  0.15616600  1
  H  1045  1  0.33862900  0.77588800  0.14923000  1
  H  1046  1  0.34545600  0.80611200  0.13054500  1
  H  1047  1  0.25604100  0.71616600  0.12648300  1
  H  1048  1  0.28549800  0.72543100  0.10771000  1
  H  1059  1  0.87476900  0.06095390  0.34864000  1
  H  1060  1  0.79679600  0.07699090  0.30156300  1
  H  1067  1  0.87183800  0.02055490  0.45431300  1
  H  1068  1  0.84148500  0.09400990  0.40682800  1
  H  1071  1  0.78370100  0.05142690  0.39966700  1
  H  1072  1  0.75333200  0.05818790  0.38112000  1
  H  1073  1  0.85300700  0.97194500  0.37692500  1
  H  1074  1  0.84033000  0.00011289  0.35815000  1
  H  1085  1  0.96553000  0.21558500  0.84864800  1
  H  1086  1  0.04350250  0.19952900  0.80156900  1
  H  1093  1  0.96852000  0.25601500  0.95432600  1
  H  1094  1  0.99883000  0.18256200  0.90681900  1
  H  1097  1  0.05660750  0.22514500  0.89966700  1
  H  1098  1  0.08697250  0.21835800  0.88112100  1
  H  1099  1  0.98739900  0.30465300  0.87695400  1
  H  1100  1  0.00003349  0.27648100  0.85816700  1
  H  1111  1  0.99896100  0.67864800  0.10174100  1
  H  1112  1  0.97808100  0.75524100  0.05433600  1
  H  1119  1  0.04304450  0.68732600  0.20720600  1
  H  1120  1  0.96877500  0.71533200  0.15974200  1
  H  1123  1  0.01295550  0.77133100  0.15032100  1
  H  1124  1  0.00387749  0.80107700  0.13176300  1
  H  1125  1  0.08974450  0.69993300  0.12823000  1
  H  1126  1  0.06112850  0.71145400  0.10938500  1
  H  1137  1  0.84136900  0.59792600  0.60174100  1
  H  1138  1  0.86222500  0.52133100  0.55432900  1
  H  1145  1  0.79729100  0.58929900  0.70718900  1
  H  1146  1  0.87157400  0.56127000  0.65974800  1
  H  1149  1  0.82742000  0.50524700  0.65033200  1
  H  1150  1  0.83645300  0.47549800  0.63176300  1
  H  1151  1  0.75062700  0.57670600  0.62819900  1
  H  1152  1  0.77923900  0.56515100  0.60936500  1
  H  1163  1  0.37697700  0.21958000  0.85111300  1
  H  1164  1  0.30276000  0.19070800  0.80383600  1
  H  1171  1  0.36699000  0.26080600  0.95664900  1
  H  1172  1  0.34005900  0.18595500  0.90938100  1
  H  1175  1  0.28312000  0.22371100  0.89978100  1
  H  1176  1  0.25471900  0.21114100  0.88117300  1
  H  1177  1  0.35332500  0.30710700  0.87767200  1
  H  1178  1  0.34174900  0.27838800  0.85895800  1
  H  1189  1  0.46331600  0.05698890  0.35111500  1
  H  1190  1  0.53754400  0.08586990  0.30385200  1
  H  1197  1  0.47332300  0.01575590  0.45666000  1
  H  1198  1  0.50022000  0.09060390  0.40937700  1
  H  1201  1  0.55716200  0.05283190  0.39979300  1
  H  1202  1  0.58556600  0.06541390  0.38119500  1
  H  1203  1  0.48702900  0.96943000  0.37769600  1
  H  1204  1  0.49856700  0.99815400  0.35897300  1
  H  1215  1  0.84285400  0.68326200  0.40882500  1
  H  1216  1  0.86009300  0.76114300  0.45572200  1
  H  1223  1  0.80302400  0.68510000  0.30332100  1
  H  1224  1  0.87613100  0.71671800  0.35062000  1
  H  1227  1  0.83367900  0.77435500  0.35777300  1
  H  1228  1  0.84106400  0.80467800  0.37623100  1
  H  1229  1  0.75406200  0.70472900  0.38042200  1
  H  1230  1  0.78208700  0.71788900  0.39914400  1
  H  1241  1  0.99744000  0.59330000  0.90882000  1
  H  1242  1  0.98028400  0.51542300  0.95573700  1
  H  1249  1  0.03727950  0.59150600  0.80334300  1
  H  1250  1  0.96415800  0.55987300  0.85062400  1
  H  1253  1  0.00663249  0.50220000  0.85777900  1
  H  1254  1  0.99932500  0.47187400  0.87625400  1
  H  1255  1  0.08622550  0.57182500  0.88044300  1
  H  1256  1  0.05819550  0.55865900  0.89915700  1
  H  1267  1  0.46767300  0.21835100  0.65944900  1
  H  1268  1  0.54311800  0.19296100  0.70664600  1
  H  1275  1  0.47100500  0.25515800  0.55390600  1
  H  1276  1  0.50140300  0.18152400  0.60115900  1
  H  1279  1  0.55979800  0.21735400  0.60871600  1
  H  1280  1  0.58879600  0.20639500  0.62738900  1
  H  1281  1  0.49166200  0.30381900  0.63093500  1
  H  1282  1  0.50482600  0.27568900  0.64954800  1
  H  1293  1  0.37265000  0.05822390  0.15944500  1
  H  1294  1  0.29721100  0.08363390  0.20664600  1
  H  1301  1  0.36927500  0.02142790  0.05389100  1
  H  1302  1  0.33891000  0.09504890  0.10117100  1
  H  1305  1  0.28051700  0.05922390  0.10871800  1
  H  1306  1  0.25152600  0.07020390  0.12739100  1
  H  1307  1  0.34860800  0.97273000  0.13090000  1
  H  1308  1  0.33548200  0.00085789  0.14953300  1
  H  1318  1  0.43437200  0.62242700  0.78452800  1
  H  1321  1  0.47340600  0.64437200  0.75828100  1
  H  1322  1  0.46650100  0.63907000  0.72611400  1
  H  1323  1  0.49337100  0.61371700  0.74229800  1
  H  1325  1  0.39730600  0.59545700  0.81397600  1
  H  1327  1  0.43391800  0.56592700  0.69440300  1
  H  1333  1  0.40591900  0.65407900  0.28451100  1
  H  1336  1  0.36687800  0.63216000  0.25825800  1
  H  1337  1  0.37378700  0.63747000  0.22609200  1
  H  1338  1  0.34692600  0.66282900  0.24228100  1
  H  1340  1  0.44299400  0.68101700  0.31396400  1
  H  1342  1  0.40641300  0.71057400  0.19439400  1
  H  1348  1  0.93706900  0.15202400  0.03473700  1
  H  1351  1  0.91457000  0.19099500  0.00877200  1
  H  1352  1  0.92001600  0.18458700  0.97656000  1
  H  1353  1  0.94493700  0.21163300  0.99298400  1
  H  1355  1  0.96526600  0.11530800  0.06407300  1
  H  1357  1  0.99381900  0.15357200  0.94464200  1
  H  1363  1  0.90324400  0.12456500  0.53474200  1
  H  1366  1  0.92575500  0.08559490  0.50877800  1
  H  1367  1  0.92031100  0.09200290  0.47656700  1
  H  1368  1  0.89539700  0.06494690  0.49298800  1
  H  1370  1  0.87503500  0.16127000  0.56407500  1
  H  1372  1  0.84648400  0.12299000  0.44464900  1
  H  1378  1  0.90647400  0.65422600  0.22287100  1
  H  1381  1  0.86789700  0.63150100  0.24909000  1
  H  1382  1  0.87447700  0.63712400  0.28126100  1
  H  1383  1  0.84715900  0.66179700  0.26488100  1
  H  1385  1  0.94280300  0.68277600  0.19331300  1
  H  1387  1  0.90530700  0.71106500  0.31292500  1
  H  1393  1  0.93382000  0.62244000  0.72290300  1
  H  1396  1  0.97236400  0.64518000  0.74914700  1
  H  1397  1  0.96577500  0.63952500  0.78131300  1
  H  1398  1  0.99312100  0.61489100  0.76492800  1
  H  1400  1  0.89752200  0.59390100  0.69332300  1
  H  1402  1  0.93499700  0.56552300  0.81292300  1
  H  1408  1  0.40090800  0.12461900  0.97321400  1
  H  1411  1  0.42375900  0.08643890  0.99973600  1
  H  1412  1  0.41789900  0.09326090  0.03185000  1
  H  1413  1  0.39351200  0.06563390  0.01553200  1
  H  1415  1  0.37211400  0.16040300  0.94331300  1
  H  1417  1  0.34344400  0.12377100  0.06306300  1
  H  1423  1  0.43945500  0.15203100  0.47316700  1
  H  1426  1  0.41664900  0.19027400  0.49965500  1
  H  1427  1  0.42244400  0.18345200  0.53177700  1
  H  1428  1  0.44691400  0.21102200  0.51547500  1
  H  1430  1  0.46820800  0.11617000  0.44330100  1
  H  1432  1  0.49685600  0.15281700  0.56305100  1
  H  1438  1  0.93414600  0.11874700  0.28415700  1
  H  1441  1  0.97319800  0.14053000  0.25783300  1
  H  1442  1  0.96630500  0.13494100  0.22569300  1
  H  1443  1  0.99325400  0.10980100  0.24200100  1
  H  1445  1  0.89718900  0.09204790  0.31373700  1
  H  1447  1  0.93408600  0.06115790  0.19444100  1
  H  1453  1  0.90615100  0.15779500  0.78415500  1
  H  1456  1  0.86709800  0.13601900  0.75782900  1
  H  1457  1  0.87399600  0.14160000  0.72568900  1
  H  1458  1  0.84705000  0.16674900  0.74199400  1
  H  1460  1  0.94310200  0.18449400  0.81373700  1
  H  1462  1  0.90623900  0.21538200  0.69443900  1
  H  1468  1  0.43617400  0.65221700  0.53443200  1
  H  1471  1  0.41443800  0.69153600  0.50833600  1
  H  1472  1  0.41987900  0.68485300  0.47615300  1
  H  1473  1  0.44517600  0.71159600  0.49252100  1
  H  1475  1  0.46277400  0.61488300  0.56374900  1
  H  1477  1  0.49323800  0.65249100  0.44455700  1
  H  1483  1  0.40419300  0.62441000  0.03440000  1
  H  1486  1  0.42593600  0.58510900  0.00829100  1
  H  1487  1  0.42044300  0.59178500  0.97611200  1
  H  1488  1  0.39520200  0.56501000  0.99250300  1
  H  1490  1  0.37760500  0.66172000  0.06373500  1
  H  1492  1  0.34696400  0.62404100  0.94458600  1
  H  1498  1  0.40654700  0.15798900  0.72320900  1
  H  1501  1  0.36800000  0.13541000  0.74955000  1
  H  1502  1  0.37466500  0.14123000  0.78169000  1
  H  1503  1  0.34726400  0.16576800  0.76527500  1
  H  1505  1  0.44271800  0.18630000  0.69348500  1
  H  1507  1  0.40533400  0.21561800  0.81296800  1
  H  1513  1  0.43377300  0.11860500  0.22321600  1
  H  1516  1  0.47230600  0.14118800  0.24956600  1
  H  1517  1  0.46563100  0.13536500  0.28170500  1
  H  1518  1  0.49304100  0.11083500  0.26529300  1
  H  1520  1  0.39760100  0.09031090  0.19348700  1
  H  1522  1  0.43496700  0.06094890  0.31296400  1
  H  1528  1  0.90135900  0.62419100  0.47343200  1
  H  1531  1  0.92335600  0.58556100  0.50004300  1
  H  1532  1  0.91766800  0.59272100  0.53213700  1
  H  1533  1  0.89269900  0.56549400  0.51594900  1
  H  1535  1  0.87436200  0.66077300  0.44362100  1
  H  1537  1  0.84400000  0.62499500  0.56319800  1
  H  1543  1  0.93894000  0.65236700  0.97344900  1
  H  1546  1  0.91695500  0.69099700  0.00006600  1
  H  1547  1  0.92266700  0.68384300  0.03215900  1
  H  1548  1  0.94761900  0.71107000  0.01595800  1
  H  1550  1  0.96589100  0.61577400  0.94363200  1
  H  1552  1  0.99642500  0.65160400  0.06317700  1
  H  1558  1  0.40889300  0.41146000  0.95319900  1
  H  1561  1  0.42627600  0.36002700  0.96402900  1
  H  1562  1  0.41869600  0.33333333  0.93941700  1
  H  1563  1  0.39551700  0.33183100  0.96717000  1
  H  1565  1  0.38716900  0.46621800  0.94705200  1
  H  1567  1  0.32300800  0.32333300  0.92556700  1
  H  1573  1  0.43148400  0.86509900  0.45327500  1
  H  1576  1  0.41413900  0.91653000  0.46415200  1
  H  1577  1  0.42166900  0.94323300  0.43953800  1
  H  1578  1  0.44491000  0.94471900  0.46725900  1
  H  1580  1  0.45322000  0.81033900  0.44710400  1
  H  1582  1  0.51732700  0.95323300  0.42559700  1
  H  1588  1  0.14582100  0.12396500  0.20207300  1
  H  1591  1  0.19691100  0.14221700  0.21287900  1
  H  1592  1  0.22380000  0.13477800  0.18837600  1
  H  1593  1  0.22554900  0.11192300  0.21629000  1
  H  1595  1  0.09146250  0.10185600  0.19567800  1
  H  1597  1  0.23518900  0.03913890  0.17445000  1
  H  1603  1  0.69450400  0.15260000  0.70206300  1
  H  1606  1  0.64341400  0.13436600  0.71288800  1
  H  1607  1  0.61651300  0.14179600  0.68839100  1
  H  1608  1  0.61478500  0.16466900  0.71629700  1
  H  1610  1  0.74886500  0.17470400  0.69565900  1
  H  1612  1  0.60513800  0.23743300  0.67445800  1
  H  1618  1  0.43102800  0.40550600  0.55422700  1
  H  1621  1  0.41366800  0.35363700  0.54455300  1
  H  1622  1  0.42191400  0.32770500  0.56953700  1
  H  1623  1  0.44452700  0.32552000  0.54153000  1
  H  1625  1  0.45300900  0.46055200  0.55884900  1
  H  1627  1  0.51787200  0.31842700  0.58134400  1
  H  1633  1  0.40932500  0.87105000  0.05431400  1
  H  1636  1  0.42675400  0.92290800  0.04468500  1
  H  1637  1  0.41842000  0.94884500  0.06964700  1
  H  1638  1  0.39592500  0.95104300  0.04158300  1
  H  1640  1  0.38735700  0.81602100  0.05892500  1
  H  1642  1  0.32241200  0.95816800  0.08123800  1
  H  1648  1  0.68864900  0.12425500  0.30521300  1
  H  1651  1  0.63711200  0.14238700  0.29545300  1
  H  1652  1  0.61095000  0.13437400  0.32033300  1
  H  1653  1  0.60857100  0.11196000  0.29223500  1
  H  1655  1  0.74331000  0.10194800  0.31017600  1
  H  1657  1  0.60034900  0.03844990  0.33233500  1
  H  1663  1  0.15164200  0.15226000  0.80525400  1
  H  1666  1  0.20317500  0.13411000  0.79550600  1
  H  1667  1  0.22934600  0.14216200  0.82037200  1
  H  1668  1  0.23171600  0.16453200  0.79225200  1
  H  1670  1  0.09698450  0.17455000  0.81022700  1
  H  1672  1  0.23994600  0.23810600  0.83231100  1
  H  1678  1  0.93194000  0.86223800  0.05508200  1
  H  1681  1  0.91311800  0.91294800  0.04374400  1
  H  1682  1  0.92002600  0.94023500  0.06807300  1
  H  1683  1  0.94304500  0.94195100  0.04024200  1
  H  1685  1  0.95449800  0.80830000  0.06225300  1
  H  1687  1  0.01535350  0.95300500  0.08267800  1
  H  1693  1  0.90833300  0.41433400  0.55501200  1
  H  1696  1  0.92711400  0.36362200  0.54362600  1
  H  1697  1  0.92024200  0.33632400  0.56795300  1
  H  1698  1  0.89716800  0.33463000  0.54014800  1
  H  1700  1  0.88577700  0.46827700  0.56220900  1
  H  1702  1  0.82492900  0.32356600  0.58260100  1
  H  1708  1  0.90871300  0.86819200  0.45254200  1
  H  1711  1  0.92744500  0.91937300  0.46278800  1
  H  1712  1  0.91993300  0.94592400  0.43806700  1
  H  1713  1  0.89738400  0.94828500  0.46609900  1
  H  1715  1  0.88597200  0.81392800  0.44681500  1
  H  1717  1  0.82425900  0.95786400  0.42540800  1
  H  1723  1  0.93160700  0.40838600  0.95251000  1
  H  1726  1  0.91284500  0.35721200  0.96274400  1
  H  1727  1  0.92039700  0.33065100  0.93803400  1
  H  1728  1  0.94289600  0.32829700  0.96609100  1
  H  1730  1  0.95434600  0.46264500  0.94678900  1
  H  1732  1  0.01609550  0.31869200  0.92548700  1
  H  1738  1  0.64571000  0.62961100  0.70374300  1
  H  1741  1  0.69686900  0.64751800  0.71490300  1
  H  1742  1  0.72381100  0.64045800  0.69036200  1
  H  1743  1  0.72541800  0.61708000  0.71800700  1
  H  1745  1  0.59126600  0.60734500  0.69711700  1
  H  1747  1  0.73502600  0.54503000  0.67597300  1
  H  1753  1  0.19463300  0.64690600  0.20367000  1
  H  1756  1  0.14348200  0.62899500  0.21485300  1
  H  1757  1  0.11651400  0.63610500  0.19033900  1
  H  1758  1  0.11494500  0.65943900  0.21801000  1
  H  1760  1  0.24907100  0.66912700  0.19700300  1
  H  1762  1  0.10531300  0.73156800  0.17607300  1
  H  1768  1  0.18849600  0.62988600  0.80357300  1
  H  1771  1  0.13688100  0.64773600  0.79353200  1
  H  1772  1  0.11067600  0.64004100  0.81844900  1
  H  1773  1  0.10843200  0.61716900  0.79057600  1
  H  1775  1  0.24324800  0.60738000  0.80871700  1
  H  1777  1  0.10025300  0.54432900  0.83082200  1
  H  1783  1  0.65180000  0.64663500  0.30360400  1
  H  1786  1  0.70341600  0.62878700  0.29356500  1
  H  1787  1  0.72962500  0.63651100  0.31847400  1
  H  1788  1  0.73185700  0.65935600  0.29058700  1
  H  1790  1  0.59704500  0.66911700  0.30875600  1
  H  1792  1  0.74002700  0.73223600  0.33081800  1
  C  1  1  0.17554500  0.38518000  0.88911800  1
  C  2  1  0.18107600  0.40649800  0.90907300  1
  C  3  1  0.18969900  0.39542600  0.93302600  1
  C  4  1  0.19343000  0.36241600  0.93649600  1
  C  5  1  0.18813000  0.34054400  0.91686400  1
  C  6  1  0.17861900  0.35173700  0.89291600  1
  C  9  1  0.16279300  0.39763600  0.86649800  1
  C  10  1  0.12932600  0.40095400  0.86301800  1
  C  11  1  0.11770500  0.40875500  0.83880900  1
  C  12  1  0.13913900  0.41218700  0.81862800  1
  C  13  1  0.17220700  0.40901900  0.82197300  1
  C  14  1  0.18369800  0.40167200  0.84606700  1
  C  27  1  0.33195200  0.55859200  0.38910900  1
  C  28  1  0.32641600  0.53727000  0.40906200  1
  C  29  1  0.31782100  0.54834200  0.43302000  1
  C  30  1  0.31411000  0.58135700  0.43649400  1
  C  31  1  0.31942500  0.60322900  0.41686600  1
  C  32  1  0.32890700  0.59203500  0.39291200  1
  C  35  1  0.34470100  0.54612300  0.36649100  1
  C  36  1  0.37817000  0.54279500  0.36302600  1
  C  37  1  0.38979400  0.53497200  0.33882100  1
  C  38  1  0.36836400  0.53149700  0.31864200  1
  C  39  1  0.33529000  0.53463900  0.32198400  1
  C  40  1  0.32379700  0.54204900  0.34606500  1
  C  53  1  0.83966300  0.88997000  0.13855700  1
  C  54  1  0.81850200  0.89584900  0.15857000  1
  C  55  1  0.82977600  0.90400300  0.18256700  1
  C  56  1  0.86284600  0.90732100  0.18595000  1
  C  57  1  0.88458000  0.90185100  0.16625000  1
  C  58  1  0.87316700  0.89242100  0.14233600  1
  C  61  1  0.82681500  0.87842900  0.11564500  1
  C  62  1  0.81996400  0.84551900  0.11206400  1
  C  63  1  0.81184400  0.83488100  0.08763100  1
  C  64  1  0.81003700  0.85665900  0.06762800  1
  C  65  1  0.81623400  0.88926800  0.07115000  1
  C  66  1  0.82486500  0.89976300  0.09527000  1
  C  79  1  0.66788200  0.05383200  0.63855600  1
  C  80  1  0.68904000  0.04794900  0.65856900  1
  C  81  1  0.67776100  0.03975400  0.68255600  1
  C  82  1  0.64468900  0.03645400  0.68593700  1
  C  83  1  0.62296000  0.04192200  0.66623200  1
  C  84  1  0.63437400  0.05136600  0.64232300  1
  C  87  1  0.68073400  0.06537500  0.61564500  1
  C  88  1  0.68755400  0.09828900  0.61205300  1
  C  89  1  0.69566200  0.10891900  0.58761700  1
  C  90  1  0.69746400  0.08713300  0.56761700  1
  C  91  1  0.69127900  0.05452500  0.57114800  1
  C  92  1  0.68266200  0.04403400  0.59527100  1
  C  105  1  0.32831800  0.38105200  0.61649000  1
  C  106  1  0.32418400  0.40179600  0.59597500  1
  C  107  1  0.31713400  0.39012400  0.57188100  1
  C  108  1  0.31447600  0.35699000  0.56860800  1
  C  109  1  0.31807300  0.33568500  0.58886400  1
  C  110  1  0.32550100  0.34752500  0.61308300  1
  C  113  1  0.34049300  0.39407600  0.63910800  1
  C  114  1  0.37387400  0.39766800  0.64296500  1
  C  115  1  0.38483500  0.40753300  0.66688900  1
  C  116  1  0.36282800  0.41264400  0.68644700  1
  C  117  1  0.32989100  0.40844400  0.68291300  1
  C  118  1  0.31901600  0.39947900  0.65898300  1
  C  131  1  0.17924000  0.56276100  0.11648700  1
  C  132  1  0.18340900  0.54199700  0.09598500  1
  C  133  1  0.19041500  0.55366600  0.07188000  1
  C  134  1  0.19299700  0.58680700  0.06859300  1
  C  135  1  0.18936200  0.60812000  0.08883700  1
  C  136  1  0.18198400  0.59628800  0.11306600  1
  C  139  1  0.16706000  0.54971900  0.13909800  1
  C  140  1  0.13367500  0.54612000  0.14294000  1
  C  141  1  0.12270700  0.53623900  0.16685800  1
  C  142  1  0.14471000  0.53108300  0.18641300  1
  C  143  1  0.17764700  0.53529100  0.18288900  1
  C  144  1  0.18853200  0.54429000  0.15897100  1
  C  157  1  0.66385200  0.89345400  0.36693100  1
  C  158  1  0.68443300  0.89797900  0.34634700  1
  C  159  1  0.67253400  0.90459700  0.32224200  1
  C  160  1  0.63935200  0.90686700  0.31910300  1
  C  161  1  0.61819900  0.90308100  0.33943900  1
  C  162  1  0.63026500  0.89567900  0.36360200  1
  C  165  1  0.67733800  0.88235300  0.38975100  1
  C  166  1  0.68430500  0.84949000  0.39353100  1
  C  167  1  0.69450700  0.83950000  0.41763300  1
  C  168  1  0.69811300  0.86184500  0.43707500  1
  C  169  1  0.69105100  0.89428500  0.43352500  1
  C  170  1  0.68077500  0.90423000  0.40966300  1
  C  183  1  0.84366100  0.05033600  0.86692600  1
  C  184  1  0.82308000  0.04580000  0.84634500  1
  C  185  1  0.83497300  0.03911600  0.82225200  1
  C  186  1  0.86815900  0.03688800  0.81910500  1
  C  187  1  0.88931200  0.04068500  0.83944100  1
  C  188  1  0.87724900  0.04809500  0.86360400  1
  C  191  1  0.83018800  0.06143600  0.88975100  1
  C  192  1  0.82324200  0.09430100  0.89353900  1
  C  193  1  0.81305400  0.10428900  0.91764600  1
  C  194  1  0.80946000  0.08194100  0.93708600  1
  C  195  1  0.81650300  0.04949800  0.93352900  1
  C  196  1  0.82676200  0.03955500  0.90965900  1
  C  209  1  0.83546900  0.55735100  0.11896400  1
  C  210  1  0.82962900  0.53615500  0.09897300  1
  C  211  1  0.82108600  0.54737900  0.07505500  1
  C  212  1  0.81737500  0.58039600  0.07170800  1
  C  213  1  0.82275900  0.60216600  0.09139400  1
  C  214  1  0.83257900  0.59083200  0.11523600  1
  C  217  1  0.84703400  0.54451500  0.14186300  1
  C  218  1  0.87987800  0.53731100  0.14540200  1
  C  219  1  0.89040100  0.52871500  0.16976000  1
  C  220  1  0.86862200  0.52695400  0.18975900  1
  C  221  1  0.83610600  0.53358600  0.18627700  1
  C  222  1  0.82568100  0.54255500  0.16222200  1
  C  235  1  0.67209900  0.38643100  0.61896600  1
  C  236  1  0.67794600  0.40763400  0.59897900  1
  C  237  1  0.68646300  0.39640700  0.57505700  1
  C  238  1  0.69015200  0.36338500  0.57170400  1
  C  239  1  0.68475900  0.34161800  0.59138800  1
  C  240  1  0.67496500  0.35295000  0.61523600  1
  C  243  1  0.66052700  0.39927000  0.64186600  1
  C  244  1  0.62768500  0.40649200  0.64538900  1
  C  245  1  0.61715500  0.41509900  0.66974400  1
  C  246  1  0.63893100  0.41688500  0.68974200  1
  C  247  1  0.67145200  0.41027600  0.68626600  1
  C  248  1  0.68188000  0.40126500  0.66222000  1
  C  261  1  0.16533300  0.05214100  0.86829400  1
  C  262  1  0.18703100  0.04820900  0.84830500  1
  C  263  1  0.17677500  0.03829000  0.82443300  1
  C  264  1  0.14423000  0.03164900  0.82102400  1
  C  265  1  0.12205400  0.03555400  0.84055200  1
  C  266  1  0.13232000  0.04578400  0.86458200  1
  C  269  1  0.17715700  0.06423700  0.89140400  1
  C  270  1  0.18395900  0.09719400  0.89487100  1
  C  271  1  0.19259800  0.10790800  0.91917600  1
  C  272  1  0.19456900  0.08624700  0.93924100  1
  C  273  1  0.18824500  0.05365200  0.93588200  1
  C  274  1  0.17953500  0.04299900  0.91183000  1
  C  287  1  0.34216900  0.89161600  0.36829900  1
  C  288  1  0.32047600  0.89555700  0.34830800  1
  C  289  1  0.33073500  0.90549300  0.32444200  1
  C  290  1  0.36328400  0.91212300  0.32103600  1
  C  291  1  0.38545500  0.90821500  0.34056600  1
  C  292  1  0.37518400  0.89798000  0.36459500  1
  C  295  1  0.33033600  0.87952500  0.39140600  1
  C  296  1  0.32356100  0.84656400  0.39488200  1
  C  297  1  0.31493500  0.83585400  0.41919100  1
  C  298  1  0.31295500  0.85752100  0.43925200  1
  C  299  1  0.31926400  0.89011800  0.43588600  1
  C  300  1  0.32796600  0.90076900  0.41183100  1
  C  313  1  0.67554800  0.56138000  0.39049900  1
  C  314  1  0.68002100  0.54079700  0.41108100  1
  C  315  1  0.68703400  0.55267800  0.43511000  1
  C  316  1  0.68970100  0.58582200  0.43820900  1
  C  317  1  0.68600200  0.60697500  0.41787000  1
  C  318  1  0.67821200  0.59494900  0.39376600  1
  C  321  1  0.66446800  0.54788200  0.36768500  1
  C  322  1  0.63167700  0.54057100  0.36393200  1
  C  323  1  0.62183500  0.52991600  0.33991700  1
  C  324  1  0.64421300  0.52634800  0.32050500  1
  C  325  1  0.67656000  0.53380200  0.32402400  1
  C  326  1  0.68639900  0.54442400  0.34781600  1
  C  339  1  0.83194400  0.38238500  0.89049700  1
  C  340  1  0.82744000  0.40298000  0.91107000  1
  C  341  1  0.82046500  0.39110200  0.93510800  1
  C  342  1  0.81785800  0.35795200  0.93821900  1
  C  343  1  0.82158000  0.33679500  0.91788500  1
  C  344  1  0.82932900  0.34881600  0.89377600  1
  C  347  1  0.84303300  0.39588800  0.86768900  1
  C  348  1  0.87582700  0.40320300  0.86394600  1
  C  349  1  0.88567300  0.41387300  0.83993600  1
  C  350  1  0.86329300  0.41747600  0.82052700  1
  C  351  1  0.83094600  0.41002200  0.82404100  1
  C  352  1  0.82110500  0.39937800  0.84782300  1
  C  365  1  0.34590100  0.04888700  0.64134900  1
  C  366  1  0.32480200  0.04640400  0.66185500  1
  C  367  1  0.33568200  0.03807700  0.68593000  1
  C  368  1  0.36839500  0.03229300  0.68922500  1
  C  369  1  0.38994600  0.03441100  0.66908900  1
  C  370  1  0.37897100  0.04261500  0.64475800  1
  C  373  1  0.33351200  0.06043600  0.61825100  1
  C  374  1  0.32664900  0.09334200  0.61450100  1
  C  375  1  0.31600000  0.10335300  0.59052100  1
  C  376  1  0.31222700  0.08106300  0.57106600  1
  C  377  1  0.31936600  0.04863700  0.57451200  1
  C  378  1  0.32967800  0.03860100  0.59833900  1
  C  391  1  0.16162900  0.89487700  0.14135400  1
  C  392  1  0.18272900  0.89736300  0.16185700  1
  C  393  1  0.17186000  0.90574100  0.18592400  1
  C  394  1  0.13914400  0.91150300  0.18922500  1
  C  395  1  0.11759000  0.90937700  0.16909100  1
  C  396  1  0.12856100  0.90116600  0.14475900  1
  C  399  1  0.17401600  0.88333800  0.11825100  1
  C  400  1  0.18086200  0.85043000  0.11448800  1
  C  401  1  0.19149700  0.84042900  0.09050200  1
  C  402  1  0.19526400  0.86272600  0.07105300  1
  C  403  1  0.18814000  0.89515100  0.07451200  1
  C  404  1  0.17784200  0.90518100  0.09834300  1
  C  417  1  0.23561300  0.41900600  0.77660500  1
  C  418  1  0.26143700  0.43943700  0.77149400  1
  C  419  1  0.27817100  0.43740000  0.74860200  1
  C  420  1  0.26846600  0.41378600  0.73110800  1
  C  424  1  0.30449700  0.46013400  0.74360500  1
  C  428  1  0.21967800  0.41996500  0.79926000  1
  C  430  1  0.28156600  0.40831800  0.70763300  1
  C  432  1  0.27190300  0.52470500  0.27659700  1
  C  433  1  0.24607400  0.50428300  0.27148100  1
  C  434  1  0.22934100  0.50633400  0.24858700  1
  C  435  1  0.23905700  0.52995000  0.23110200  1
  C  439  1  0.20300800  0.48361200  0.24358600  1
  C  443  1  0.28783900  0.52372600  0.29925300  1
  C  445  1  0.22595700  0.53543600  0.20762900  1
  C  447  1  0.80813800  0.95386400  0.02660700  1
  C  448  1  0.78738600  0.97948400  0.02167300  1
  C  449  1  0.78921200  0.99650700  0.99889800  1
  C  450  1  0.81299000  0.98735800  0.98134600  1
  C  454  1  0.76607800  0.02254600  0.99409500  1
  C  458  1  0.80727500  0.93762000  0.04913000  1
  C  460  1  0.81832400  0.00086200  0.95796900  1
  C  462  1  0.69938500  0.98992700  0.52660600  1
  C  463  1  0.72013900  0.96430700  0.52167600  1
  C  464  1  0.71831600  0.94727800  0.49890300  1
  C  465  1  0.69453800  0.95642200  0.48135100  1
  C  469  1  0.74146100  0.92124900  0.49410000  1
  C  473  1  0.70023100  0.00616400  0.54913200  1
  C  475  1  0.68920600  0.94291300  0.45797400  1
  C  477  1  0.77166700  0.52550500  0.23082000  1
  C  478  1  0.74622000  0.50460600  0.23588800  1
  C  479  1  0.72938600  0.50637000  0.25874700  1
  C  480  1  0.73856400  0.53023400  0.27621900  1
  C  484  1  0.70353300  0.48308200  0.26371300  1
  C  488  1  0.78776400  0.52469900  0.20825600  1
  C  490  1  0.72519000  0.53557100  0.29962000  1
  C  492  1  0.73587800  0.41833100  0.73082100  1
  C  493  1  0.76129800  0.43925400  0.73590700  1
  C  494  1  0.77812000  0.43749000  0.75877200  1
  C  495  1  0.76895700  0.41360100  0.77622800  1
  C  499  1  0.80395000  0.46079500  0.76375900  1
  C  503  1  0.71977800  0.41915300  0.70825900  1
  C  505  1  0.78232300  0.40826500  0.79963200  1
  C  507  1  0.19658500  0.98962800  0.98085200  1
  C  508  1  0.21763300  0.96437200  0.98614000  1
  C  509  1  0.21585900  0.94772600  0.00909000  1
  C  510  1  0.19182700  0.95686900  0.02643100  1
  C  514  1  0.23929000  0.92207800  0.01428200  1
  C  518  1  0.19736600  0.00550300  0.95817600  1
  C  520  1  0.18644000  0.94363800  0.04989000  1
  C  522  1  0.31091800  0.95416100  0.48084400  1
  C  523  1  0.28990900  0.97945800  0.48611200  1
  C  524  1  0.29169000  0.99611200  0.50905600  1
  C  525  1  0.31567400  0.98692500  0.52642300  1
  C  529  1  0.26830400  0.02181200  0.51421900  1
  C  533  1  0.31012100  0.93827000  0.45817400  1
  C  535  1  0.32107000  0.00015900  0.54988100  1
  C  537  1  0.73552100  0.91513100  0.27645000  1
  C  538  1  0.76128400  0.93560700  0.27122000  1
  C  539  1  0.77808700  0.93339400  0.24835900  1
  C  540  1  0.76852900  0.90956600  0.23099900  1
  C  544  1  0.80434200  0.95616400  0.24324800  1
  C  548  1  0.71961600  0.91619200  0.29913900  1
  C  550  1  0.78169100  0.90389600  0.20755700  1
  C  552  1  0.77199500  0.02861300  0.77644800  1
  C  553  1  0.74623000  0.00814400  0.77121800  1
  C  554  1  0.72943100  0.01035500  0.74835600  1
  C  555  1  0.73899600  0.03418000  0.73099600  1
  C  559  1  0.70317200  0.98759200  0.74324300  1
  C  563  1  0.78789700  0.02755100  0.79913900  1
  C  565  1  0.72584200  0.03984600  0.70754800  1
  C  567  1  0.30685800  0.45352000  0.52648500  1
  C  568  1  0.28646000  0.47939400  0.52143000  1
  C  569  1  0.28864700  0.49634700  0.49864200  1
  C  570  1  0.31237500  0.48681300  0.48119100  1
  C  574  1  0.26595100  0.52271800  0.49369900  1
  C  578  1  0.30578800  0.43742000  0.54907500  1
  C  580  1  0.31796300  0.50008100  0.45778500  1
  C  582  1  0.20067500  0.49027600  0.02648200  1
  C  583  1  0.22109100  0.46441800  0.02141300  1
  C  584  1  0.21889000  0.44745600  0.99862900  1
  C  585  1  0.19512600  0.45696200  0.98119700  1
  C  589  1  0.24161200  0.42111400  0.99366700  1
  C  593  1  0.20175700  0.50637600  0.04907100  1
  C  595  1  0.18951600  0.44368100  0.95779900  1
  C  597  1  0.27168900  0.02938400  0.73094900  1
  C  598  1  0.24628500  0.00847000  0.73614600  1
  C  599  1  0.22945500  0.01037000  0.75900900  1
  C  600  1  0.23857700  0.03438100  0.77637000  1
  C  604  1  0.20365200  0.98707900  0.76410500  1
  C  608  1  0.28769100  0.02851800  0.70831800  1
  C  610  1  0.22521600  0.03986400  0.79977500  1
  C  612  1  0.23585600  0.91440600  0.23094200  1
  C  613  1  0.26124900  0.93533100  0.23615000  1
  C  614  1  0.27806700  0.93343200  0.25901600  1
  C  615  1  0.26894600  0.90941700  0.27637300  1
  C  619  1  0.30386500  0.95673000  0.26412100  1
  C  623  1  0.21984400  0.91529000  0.20831600  1
  C  625  1  0.28229800  0.90394000  0.29978300  1
  C  627  1  0.69759300  0.48992400  0.48095600  1
  C  628  1  0.71818700  0.46431600  0.48632800  1
  C  629  1  0.71606000  0.44776500  0.50930000  1
  C  630  1  0.69218700  0.45742300  0.52658900  1
  C  634  1  0.73895100  0.42167200  0.51459200  1
  C  638  1  0.69859800  0.50564800  0.45821300  1
  C  640  1  0.68659400  0.44448800  0.55009700  1
  C  642  1  0.80993300  0.45385500  0.98095600  1
  C  643  1  0.78933100  0.47945600  0.98633900  1
  C  644  1  0.79147500  0.49601200  0.00930900  1
  C  645  1  0.81535900  0.48635600  0.02658900  1
  C  649  1  0.76858400  0.52210000  0.01460800  1
  C  653  1  0.80890800  0.43812300  0.95821500  1
  C  655  1  0.82098100  0.49930200  0.05009000  1
  C  657  1  0.20061200  0.25812200  0.93404400  1
  C  658  1  0.22263200  0.23651000  0.94439500  1
  C  659  1  0.21758400  0.20327600  0.94259300  1
  C  660  1  0.18960400  0.19253000  0.93019100  1
  C  664  1  0.24105800  0.18117100  0.95395700  1
  C  668  1  0.20475300  0.29076400  0.93539700  1
  C  670  1  0.17985800  0.16126100  0.92702100  1
  C  672  1  0.30693400  0.68565100  0.43405900  1
  C  673  1  0.28494100  0.70725900  0.44444900  1
  C  674  1  0.28999200  0.74049500  0.44265400  1
  C  675  1  0.31794400  0.75124200  0.43021700  1
  C  679  1  0.26654700  0.76259700  0.45405700  1
  C  683  1  0.30278600  0.65300900  0.43540300  1
  C  685  1  0.32769300  0.78251200  0.42705800  1
  C  687  1  0.96699700  0.91533000  0.18314300  1
  C  688  1  0.98828100  0.93773600  0.19340700  1
  C  689  1  0.02159200  0.93314800  0.19169900  1
  C  690  1  0.03278900  0.90521500  0.17947200  1
  C  694  1  0.04329400  0.95707800  0.20295700  1
  C  698  1  0.93429100  0.91910400  0.18439200  1
  C  700  1  0.06422000  0.89589000  0.17633900  1
  C  702  1  0.54054000  0.02843700  0.68312200  1
  C  703  1  0.51925300  0.00603700  0.69339600  1
  C  704  1  0.48594300  0.01063000  0.69169200  1
  C  705  1  0.47474700  0.03856300  0.67946400  1
  C  709  1  0.46424100  0.98671200  0.70296500  1
  C  713  1  0.57324600  0.02465700  0.68436600  1
  C  715  1  0.44331800  0.04789200  0.67633900  1
  C  717  1  0.30688100  0.25287900  0.57257900  1
  C  718  1  0.28472500  0.23089400  0.56291300  1
  C  719  1  0.28994300  0.19774400  0.56526800  1
  C  720  1  0.31821800  0.18748800  0.57749600  1
  C  724  1  0.26637400  0.17517900  0.55460500  1
  C  728  1  0.30254100  0.28544800  0.57075200  1
  C  730  1  0.32816800  0.15635300  0.58094400  1
  C  732  1  0.20059800  0.69091100  0.07255700  1
  C  733  1  0.22280800  0.71288200  0.06295100  1
  C  734  1  0.21760100  0.74603500  0.06529100  1
  C  735  1  0.18928000  0.75630900  0.07744600  1
  C  739  1  0.24122700  0.76858600  0.05468800  1
  C  743  1  0.20491500  0.65833800  0.07072500  1
  C  745  1  0.17932800  0.78745300  0.08085200  1
  C  747  1  0.53539100  0.91533400  0.32345300  1
  C  748  1  0.51373400  0.93782800  0.31380600  1
  C  749  1  0.48050200  0.93305300  0.31604300  1
  C  750  1  0.46979100  0.90486300  0.32816100  1
  C  754  1  0.45833600  0.95701100  0.30540100  1
  C  758  1  0.56802800  0.91932300  0.32174400  1
  C  760  1  0.43849200  0.89530500  0.33152700  1
  C  762  1  0.97211700  0.02842000  0.82345700  1
  C  763  1  0.99377200  0.00590800  0.81383200  1
  C  764  1  0.02700500  0.01069000  0.81605600  1
  C  765  1  0.03771900  0.03890100  0.82814100  1
  C  769  1  0.04916700  0.98671300  0.80543100  1
  C  773  1  0.93947800  0.02443500  0.82175100  1
  C  775  1  0.06902100  0.04845900  0.83149800  1
  C  777  1  0.80782400  0.68423900  0.07429000  1
  C  778  1  0.78521400  0.70507800  0.06373900  1
  C  779  1  0.78936400  0.73846400  0.06516300  1
  C  780  1  0.81707600  0.75018300  0.07739000  1
  C  784  1  0.76522500  0.75970500  0.05364400  1
  C  788  1  0.80448200  0.65148000  0.07334000  1
  C  790  1  0.82591600  0.78175600  0.08044000  1
  C  792  1  0.69969600  0.25954200  0.57426800  1
  C  793  1  0.72228300  0.23870500  0.56368500  1
  C  794  1  0.71812100  0.20531800  0.56509600  1
  C  795  1  0.69042600  0.19360100  0.57734700  1
  C  799  1  0.74223400  0.18407600  0.55354400  1
  C  803  1  0.70305000  0.29230100  0.57333500  1
  C  805  1  0.68157800  0.16202900  0.58037700  1
  C  807  1  0.69973400  0.68946200  0.43403500  1
  C  808  1  0.72244700  0.71069200  0.44395100  1
  C  809  1  0.71811100  0.74400900  0.44197800  1
  C  810  1  0.69012600  0.75523100  0.42986100  1
  C  814  1  0.74229800  0.76573000  0.45286100  1
  C  818  1  0.70326200  0.65676100  0.43548700  1
  C  820  1  0.68104600  0.78666700  0.42655000  1
  C  822  1  0.80783600  0.25431400  0.93405600  1
  C  823  1  0.78509700  0.23309200  0.94394500  1
  C  824  1  0.78942800  0.19977500  0.94197900  1
  C  825  1  0.81743700  0.18854400  0.92989800  1
  C  829  1  0.76522000  0.17805900  0.95283900  1
  C  833  1  0.80431800  0.28701700  0.93550700  1
  C  835  1  0.82652000  0.15710400  0.92660800  1
  C  837  1  0.46692700  0.42131300  0.68433100  1
  C  838  1  0.48818000  0.44351800  0.69489600  1
  C  839  1  0.52148500  0.43888700  0.69322400  1
  C  840  1  0.53265000  0.41112700  0.68075200  1
  C  844  1  0.54323100  0.46253400  0.70479000  1
  C  848  1  0.43423500  0.42502400  0.68552900  1
  C  850  1  0.56404000  0.40181200  0.67760400  1
  C  852  1  0.04061800  0.52244500  0.18429800  1
  C  853  1  0.01937000  0.50022900  0.19484900  1
  C  854  1  0.98606600  0.50487400  0.19321300  1
  C  855  1  0.97489100  0.53265700  0.18078000  1
  C  859  1  0.96432800  0.48121300  0.20476700  1
  C  863  1  0.07331200  0.51873000  0.18547700  1
  C  865  1  0.94350000  0.54199200  0.17768900  1
  C  867  1  0.03521200  0.42125800  0.82224800  1
  C  868  1  0.01357700  0.44358400  0.81233900  1
  C  869  1  0.98035200  0.43877500  0.81455600  1
  C  870  1  0.96968100  0.41074700  0.82690900  1
  C  874  1  0.95813300  0.46248600  0.80364700  1
  C  878  1  0.06783900  0.42516600  0.82056700  1
  C  880  1  0.93842300  0.40119400  0.83027400  1
  C  882  1  0.47229000  0.52248500  0.32225700  1
  C  883  1  0.49392800  0.50015700  0.31236000  1
  C  884  1  0.52715200  0.50497800  0.31456500  1
  C  885  1  0.53782000  0.53302300  0.32689600  1
  C  889  1  0.54937300  0.48125900  0.30366800  1
  C  893  1  0.43966400  0.51856300  0.32058900  1
  C  895  1  0.56907700  0.54257600  0.33027100  1
  C  897  1  0.34193900  0.55157500  0.88911800  1
  C  898  1  0.34747000  0.57289300  0.90907300  1
  C  899  1  0.35609300  0.56182100  0.93302600  1
  C  900  1  0.35982400  0.52881100  0.93649600  1
  C  901  1  0.35452400  0.50693900  0.91686400  1
  C  902  1  0.34501300  0.51813200  0.89291600  1
  C  905  1  0.32918700  0.56403100  0.86649800  1
  C  906  1  0.29572000  0.56734900  0.86301800  1
  C  907  1  0.28409900  0.57515000  0.83880900  1
  C  908  1  0.30553300  0.57858200  0.81862800  1
  C  909  1  0.33860100  0.57541400  0.82197300  1
  C  910  1  0.35009200  0.56806700  0.84606700  1
  C  923  1  0.49834600  0.72498700  0.38910900  1
  C  924  1  0.49281000  0.70366500  0.40906200  1
  C  925  1  0.48421500  0.71473700  0.43302000  1
  C  926  1  0.48050400  0.74775200  0.43649400  1
  C  927  1  0.48581900  0.76962400  0.41686600  1
  C  928  1  0.49530100  0.75843000  0.39291200  1
  C  931  1  0.51109500  0.71251800  0.36649100  1
  C  932  1  0.54456400  0.70919000  0.36302600  1
  C  933  1  0.55618800  0.70136700  0.33882100  1
  C  934  1  0.53475800  0.69789200  0.31864200  1
  C  935  1  0.50168400  0.70103400  0.32198400  1
  C  936  1  0.49019100  0.70844400  0.34606500  1
  C  949  1  0.00605749  0.05636490  0.13855700  1
  C  950  1  0.98489600  0.06224390  0.15857000  1
  C  951  1  0.99617000  0.07039790  0.18256700  1
  C  952  1  0.02924050  0.07371590  0.18595000  1
  C  953  1  0.05097450  0.06824590  0.16625000  1
  C  954  1  0.03956150  0.05881590  0.14233600  1
  C  957  1  0.99320900  0.04482390  0.11564500  1
  C  958  1  0.98635800  0.01191390  0.11206400  1
  C  959  1  0.97823800  0.00127589  0.08763100  1
  C  960  1  0.97643100  0.02305390  0.06762800  1
  C  961  1  0.98262800  0.05566290  0.07115000  1
  C  962  1  0.99125900  0.06615790  0.09527000  1
  C  975  1  0.83427600  0.22022700  0.63855600  1
  C  976  1  0.85543400  0.21434400  0.65856900  1
  C  977  1  0.84415500  0.20614900  0.68255600  1
  C  978  1  0.81108300  0.20284900  0.68593700  1
  C  979  1  0.78935400  0.20831700  0.66623200  1
  C  980  1  0.80076800  0.21776100  0.64232300  1
  C  983  1  0.84712800  0.23177000  0.61564500  1
  C  984  1  0.85394800  0.26468400  0.61205300  1
  C  985  1  0.86205600  0.27531400  0.58761700  1
  C  986  1  0.86385800  0.25352800  0.56761700  1
  C  987  1  0.85767300  0.22092000  0.57114800  1
  C  988  1  0.84905600  0.21042900  0.59527100  1
  C  1001  1  0.49471200  0.54744700  0.61649000  1
  C  1002  1  0.49057800  0.56819100  0.59597500  1
  C  1003  1  0.48352800  0.55651900  0.57188100  1
  C  1004  1  0.48087000  0.52338500  0.56860800  1
  C  1005  1  0.48446700  0.50208000  0.58886400  1
  C  1006  1  0.49189500  0.51392000  0.61308300  1
  C  1009  1  0.50688700  0.56047100  0.63910800  1
  C  1010  1  0.54026800  0.56406300  0.64296500  1
  C  1011  1  0.55122900  0.57392800  0.66688900  1
  C  1012  1  0.52922200  0.57903900  0.68644700  1
  C  1013  1  0.49628500  0.57483900  0.68291300  1
  C  1014  1  0.48541000  0.56587400  0.65898300  1
  C  1027  1  0.34563400  0.72915600  0.11648700  1
  C  1028  1  0.34980300  0.70839200  0.09598500  1
  C  1029  1  0.35680900  0.72006100  0.07188000  1
  C  1030  1  0.35939100  0.75320200  0.06859300  1
  C  1031  1  0.35575600  0.77451500  0.08883700  1
  C  1032  1  0.34837800  0.76268300  0.11306600  1
  C  1035  1  0.33345400  0.71611400  0.13909800  1
  C  1036  1  0.30006900  0.71251500  0.14294000  1
  C  1037  1  0.28910100  0.70263400  0.16685800  1
  C  1038  1  0.31110400  0.69747800  0.18641300  1
  C  1039  1  0.34404100  0.70168600  0.18288900  1
  C  1040  1  0.35492600  0.71068500  0.15897100  1
  C  1053  1  0.83024600  0.05984890  0.36693100  1
  C  1054  1  0.85082700  0.06437390  0.34634700  1
  C  1055  1  0.83892800  0.07099190  0.32224200  1
  C  1056  1  0.80574600  0.07326190  0.31910300  1
  C  1057  1  0.78459300  0.06947590  0.33943900  1
  C  1058  1  0.79665900  0.06207390  0.36360200  1
  C  1061  1  0.84373200  0.04874790  0.38975100  1
  C  1062  1  0.85069900  0.01588490  0.39353100  1
  C  1063  1  0.86090100  0.00589489  0.41763300  1
  C  1064  1  0.86450700  0.02823990  0.43707500  1
  C  1065  1  0.85744500  0.06067990  0.43352500  1
  C  1066  1  0.84716900  0.07062490  0.40966300  1
  C  1079  1  0.01005550  0.21673100  0.86692600  1
  C  1080  1  0.98947400  0.21219500  0.84634500  1
  C  1081  1  0.00136749  0.20551100  0.82225200  1
  C  1082  1  0.03455350  0.20328300  0.81910500  1
  C  1083  1  0.05570650  0.20708000  0.83944100  1
  C  1084  1  0.04364350  0.21449000  0.86360400  1
  C  1087  1  0.99658200  0.22783100  0.88975100  1
  C  1088  1  0.98963600  0.26069600  0.89353900  1
  C  1089  1  0.97944800  0.27068400  0.91764600  1
  C  1090  1  0.97585400  0.24833600  0.93708600  1
  C  1091  1  0.98289700  0.21589300  0.93352900  1
  C  1092  1  0.99315600  0.20595000  0.90965900  1
  C  1105  1  0.00186349  0.72374600  0.11896400  1
  C  1106  1  0.99602300  0.70255000  0.09897300  1
  C  1107  1  0.98748000  0.71377400  0.07505500  1
  C  1108  1  0.98376900  0.74679100  0.07170800  1
  C  1109  1  0.98915300  0.76856100  0.09139400  1
  C  1110  1  0.99897300  0.75722700  0.11523600  1
  C  1113  1  0.01342850  0.71091000  0.14186300  1
  C  1114  1  0.04627250  0.70370600  0.14540200  1
  C  1115  1  0.05679550  0.69511000  0.16976000  1
  C  1116  1  0.03501650  0.69334900  0.18975900  1
  C  1117  1  0.00250049  0.69998100  0.18627700  1
  C  1118  1  0.99207500  0.70895000  0.16222200  1
  C  1131  1  0.83849300  0.55282600  0.61896600  1
  C  1132  1  0.84434000  0.57402900  0.59897900  1
  C  1133  1  0.85285700  0.56280200  0.57505700  1
  C  1134  1  0.85654600  0.52978000  0.57170400  1
  C  1135  1  0.85115300  0.50801300  0.59138800  1
  C  1136  1  0.84135900  0.51934500  0.61523600  1
  C  1139  1  0.82692100  0.56566500  0.64186600  1
  C  1140  1  0.79407900  0.57288700  0.64538900  1
  C  1141  1  0.78354900  0.58149400  0.66974400  1
  C  1142  1  0.80532500  0.58328000  0.68974200  1
  C  1143  1  0.83784600  0.57667100  0.68626600  1
  C  1144  1  0.84827400  0.56766000  0.66222000  1
  C  1157  1  0.33172700  0.21853600  0.86829400  1
  C  1158  1  0.35342500  0.21460400  0.84830500  1
  C  1159  1  0.34316900  0.20468500  0.82443300  1
  C  1160  1  0.31062400  0.19804400  0.82102400  1
  C  1161  1  0.28844800  0.20194900  0.84055200  1
  C  1162  1  0.29871400  0.21217900  0.86458200  1
  C  1165  1  0.34355100  0.23063200  0.89140400  1
  C  1166  1  0.35035300  0.26358900  0.89487100  1
  C  1167  1  0.35899200  0.27430300  0.91917600  1
  C  1168  1  0.36096300  0.25264200  0.93924100  1
  C  1169  1  0.35463900  0.22004700  0.93588200  1
  C  1170  1  0.34592900  0.20939400  0.91183000  1
  C  1183  1  0.50856300  0.05801090  0.36829900  1
  C  1184  1  0.48687000  0.06195190  0.34830800  1
  C  1185  1  0.49712900  0.07188790  0.32444200  1
  C  1186  1  0.52967800  0.07851790  0.32103600  1
  C  1187  1  0.55184900  0.07460990  0.34056600  1
  C  1188  1  0.54157800  0.06437490  0.36459500  1
  C  1191  1  0.49673000  0.04591990  0.39140600  1
  C  1192  1  0.48995500  0.01295890  0.39488200  1
  C  1193  1  0.48132900  0.00224889  0.41919100  1
  C  1194  1  0.47934900  0.02391590  0.43925200  1
  C  1195  1  0.48565800  0.05651290  0.43588600  1
  C  1196  1  0.49436000  0.06716390  0.41183100  1
  C  1209  1  0.84194200  0.72777500  0.39049900  1
  C  1210  1  0.84641500  0.70719200  0.41108100  1
  C  1211  1  0.85342800  0.71907300  0.43511000  1
  C  1212  1  0.85609500  0.75221700  0.43820900  1
  C  1213  1  0.85239600  0.77337000  0.41787000  1
  C  1214  1  0.84460600  0.76134400  0.39376600  1
  C  1217  1  0.83086200  0.71427700  0.36768500  1
  C  1218  1  0.79807100  0.70696600  0.36393200  1
  C  1219  1  0.78822900  0.69631100  0.33991700  1
  C  1220  1  0.81060700  0.69274300  0.32050500  1
  C  1221  1  0.84295400  0.70019700  0.32402400  1
  C  1222  1  0.85279300  0.71081900  0.34781600  1
  C  1235  1  0.99833800  0.54878000  0.89049700  1
  C  1236  1  0.99383400  0.56937500  0.91107000  1
  C  1237  1  0.98685900  0.55749700  0.93510800  1
  C  1238  1  0.98425200  0.52434700  0.93821900  1
  C  1239  1  0.98797400  0.50319000  0.91788500  1
  C  1240  1  0.99572300  0.51521100  0.89377600  1
  C  1243  1  0.00942749  0.56228300  0.86768900  1
  C  1244  1  0.04222150  0.56959800  0.86394600  1
  C  1245  1  0.05206750  0.58026800  0.83993600  1
  C  1246  1  0.02968750  0.58387100  0.82052700  1
  C  1247  1  0.99734000  0.57641700  0.82404100  1
  C  1248  1  0.98749900  0.56577300  0.84782300  1
  C  1261  1  0.51229500  0.21528200  0.64134900  1
  C  1262  1  0.49119600  0.21279900  0.66185500  1
  C  1263  1  0.50207600  0.20447200  0.68593000  1
  C  1264  1  0.53478900  0.19868800  0.68922500  1
  C  1265  1  0.55634000  0.20080600  0.66908900  1
  C  1266  1  0.54536500  0.20901000  0.64475800  1
  C  1269  1  0.49990600  0.22683100  0.61825100  1
  C  1270  1  0.49304300  0.25973700  0.61450100  1
  C  1271  1  0.48239400  0.26974800  0.59052100  1
  C  1272  1  0.47862100  0.24745800  0.57106600  1
  C  1273  1  0.48576000  0.21503200  0.57451200  1
  C  1274  1  0.49607200  0.20499600  0.59833900  1
  C  1287  1  0.32802300  0.06127190  0.14135400  1
  C  1288  1  0.34912300  0.06375790  0.16185700  1
  C  1289  1  0.33825400  0.07213590  0.18592400  1
  C  1290  1  0.30553800  0.07789790  0.18922500  1
  C  1291  1  0.28398400  0.07577190  0.16909100  1
  C  1292  1  0.29495500  0.06756090  0.14475900  1
  C  1295  1  0.34041000  0.04973290  0.11825100  1
  C  1296  1  0.34725600  0.01682490  0.11448800  1
  C  1297  1  0.35789100  0.00682389  0.09050200  1
  C  1298  1  0.36165800  0.02912090  0.07105300  1
  C  1299  1  0.35453400  0.06154590  0.07451200  1
  C  1300  1  0.34423600  0.07157590  0.09834300  1
  C  1313  1  0.40200700  0.58540100  0.77660500  1
  C  1314  1  0.42783100  0.60583200  0.77149400  1
  C  1315  1  0.44456500  0.60379500  0.74860200  1
  C  1316  1  0.43486000  0.58018100  0.73110800  1
  C  1320  1  0.47089100  0.62652900  0.74360500  1
  C  1324  1  0.38607200  0.58636000  0.79926000  1
  C  1326  1  0.44796000  0.57471300  0.70763300  1
  C  1328  1  0.43829700  0.69110000  0.27659700  1
  C  1329  1  0.41246800  0.67067800  0.27148100  1
  C  1330  1  0.39573500  0.67272900  0.24858700  1
  C  1331  1  0.40545100  0.69634500  0.23110200  1
  C  1335  1  0.36940200  0.65000700  0.24358600  1
  C  1339  1  0.45423300  0.69012100  0.29925300  1
  C  1341  1  0.39235100  0.70183100  0.20762900  1
  C  1343  1  0.97453200  0.12025900  0.02660700  1
  C  1344  1  0.95378000  0.14587900  0.02167300  1
  C  1345  1  0.95560600  0.16290200  0.99889800  1
  C  1346  1  0.97938400  0.15375300  0.98134600  1
  C  1350  1  0.93247200  0.18894100  0.99409500  1
  C  1354  1  0.97366900  0.10401500  0.04913000  1
  C  1356  1  0.98471800  0.16725700  0.95796900  1
  C  1358  1  0.86577900  0.15632200  0.52660600  1
  C  1359  1  0.88653300  0.13070200  0.52167600  1
  C  1360  1  0.88471000  0.11367300  0.49890300  1
  C  1361  1  0.86093200  0.12281700  0.48135100  1
  C  1365  1  0.90785500  0.08764390  0.49410000  1
  C  1369  1  0.86662500  0.17255900  0.54913200  1
  C  1371  1  0.85560000  0.10930800  0.45797400  1
  C  1373  1  0.93806100  0.69190000  0.23082000  1
  C  1374  1  0.91261400  0.67100100  0.23588800  1
  C  1375  1  0.89578000  0.67276500  0.25874700  1
  C  1376  1  0.90495800  0.69662900  0.27621900  1
  C  1380  1  0.86992700  0.64947700  0.26371300  1
  C  1384  1  0.95415800  0.69109400  0.20825600  1
  C  1386  1  0.89158400  0.70196600  0.29962000  1
  C  1388  1  0.90227200  0.58472600  0.73082100  1
  C  1389  1  0.92769200  0.60564900  0.73590700  1
  C  1390  1  0.94451400  0.60388500  0.75877200  1
  C  1391  1  0.93535100  0.57999600  0.77622800  1
  C  1395  1  0.97034400  0.62719000  0.76375900  1
  C  1399  1  0.88617200  0.58554800  0.70825900  1
  C  1401  1  0.94871700  0.57466000  0.79963200  1
  C  1403  1  0.36297900  0.15602300  0.98085200  1
  C  1404  1  0.38402700  0.13076700  0.98614000  1
  C  1405  1  0.38225300  0.11412100  0.00909000  1
  C  1406  1  0.35822100  0.12326400  0.02643100  1
  C  1410  1  0.40568400  0.08847290  0.01428200  1
  C  1414  1  0.36376000  0.17189800  0.95817600  1
  C  1416  1  0.35283400  0.11003300  0.04989000  1
  C  1418  1  0.47731200  0.12055600  0.48084400  1
  C  1419  1  0.45630300  0.14585300  0.48611200  1
  C  1420  1  0.45808400  0.16250700  0.50905600  1
  C  1421  1  0.48206800  0.15332000  0.52642300  1
  C  1425  1  0.43469800  0.18820700  0.51421900  1
  C  1429  1  0.47651500  0.10466500  0.45817400  1
  C  1431  1  0.48746400  0.16655400  0.54988100  1
  C  1433  1  0.90191500  0.08152590  0.27645000  1
  C  1434  1  0.92767800  0.10200200  0.27122000  1
  C  1435  1  0.94448100  0.09978890  0.24835900  1
  C  1436  1  0.93492300  0.07596090  0.23099900  1
  C  1440  1  0.97073600  0.12255900  0.24324800  1
  C  1444  1  0.88601000  0.08258690  0.29913900  1
  C  1446  1  0.94808500  0.07029090  0.20755700  1
  C  1448  1  0.93838900  0.19500800  0.77644800  1
  C  1449  1  0.91262400  0.17453900  0.77121800  1
  C  1450  1  0.89582500  0.17675000  0.74835600  1
  C  1451  1  0.90539000  0.20057500  0.73099600  1
  C  1455  1  0.86956600  0.15398700  0.74324300  1
  C  1459  1  0.95429100  0.19394600  0.79913900  1
  C  1461  1  0.89223600  0.20624100  0.70754800  1
  C  1463  1  0.47325200  0.61991500  0.52648500  1
  C  1464  1  0.45285400  0.64578900  0.52143000  1
  C  1465  1  0.45504100  0.66274200  0.49864200  1
  C  1466  1  0.47876900  0.65320800  0.48119100  1
  C  1470  1  0.43234500  0.68911300  0.49369900  1
  C  1474  1  0.47218200  0.60381500  0.54907500  1
  C  1476  1  0.48435700  0.66647600  0.45778500  1
  C  1478  1  0.36706900  0.65667100  0.02648200  1
  C  1479  1  0.38748500  0.63081300  0.02141300  1
  C  1480  1  0.38528400  0.61385100  0.99862900  1
  C  1481  1  0.36152000  0.62335700  0.98119700  1
  C  1485  1  0.40800600  0.58750900  0.99366700  1
  C  1489  1  0.36815100  0.67277100  0.04907100  1
  C  1491  1  0.35591000  0.61007600  0.95779900  1
  C  1493  1  0.43808300  0.19577900  0.73094900  1
  C  1494  1  0.41267900  0.17486500  0.73614600  1
  C  1495  1  0.39584900  0.17676500  0.75900900  1
  C  1496  1  0.40497100  0.20077600  0.77637000  1
  C  1500  1  0.37004600  0.15347400  0.76410500  1
  C  1504  1  0.45408500  0.19491300  0.70831800  1
  C  1506  1  0.39161000  0.20625900  0.79977500  1
  C  1508  1  0.40225000  0.08080090  0.23094200  1
  C  1509  1  0.42764300  0.10172600  0.23615000  1
  C  1510  1  0.44446100  0.09982690  0.25901600  1
  C  1511  1  0.43534000  0.07581190  0.27637300  1
  C  1515  1  0.47025900  0.12312500  0.26412100  1
  C  1519  1  0.38623800  0.08168490  0.20831600  1
  C  1521  1  0.44869200  0.07033490  0.29978300  1
  C  1523  1  0.86398700  0.65631900  0.48095600  1
  C  1524  1  0.88458100  0.63071100  0.48632800  1
  C  1525  1  0.88245400  0.61416000  0.50930000  1
  C  1526  1  0.85858100  0.62381800  0.52658900  1
  C  1530  1  0.90534500  0.58806700  0.51459200  1
  C  1534  1  0.86499200  0.67204300  0.45821300  1
  C  1536  1  0.85298800  0.61088300  0.55009700  1
  C  1538  1  0.97632700  0.62025000  0.98095600  1
  C  1539  1  0.95572500  0.64585100  0.98633900  1
  C  1540  1  0.95786900  0.66240700  0.00930900  1
  C  1541  1  0.98175300  0.65275100  0.02658900  1
  C  1545  1  0.93497800  0.68849500  0.01460800  1
  C  1549  1  0.97530200  0.60451800  0.95821500  1
  C  1551  1  0.98737500  0.66569700  0.05009000  1
  C  1553  1  0.36700600  0.42451700  0.93404400  1
  C  1554  1  0.38902600  0.40290500  0.94439500  1
  C  1555  1  0.38397800  0.36967100  0.94259300  1
  C  1556  1  0.35599800  0.35892500  0.93019100  1
  C  1560  1  0.40745200  0.34756600  0.95395700  1
  C  1564  1  0.37114700  0.45715900  0.93539700  1
  C  1566  1  0.34625200  0.32765600  0.92702100  1
  C  1568  1  0.47332800  0.85204600  0.43405900  1
  C  1569  1  0.45133500  0.87365400  0.44444900  1
  C  1570  1  0.45638600  0.90689000  0.44265400  1
  C  1571  1  0.48433800  0.91763700  0.43021700  1
  C  1575  1  0.43294100  0.92899200  0.45405700  1
  C  1579  1  0.46918000  0.81940400  0.43540300  1
  C  1581  1  0.49408700  0.94890700  0.42705800  1
  C  1583  1  0.13339100  0.08172490  0.18314300  1
  C  1584  1  0.15467500  0.10413100  0.19340700  1
  C  1585  1  0.18798600  0.09954290  0.19169900  1
  C  1586  1  0.19918300  0.07160990  0.17947200  1
  C  1590  1  0.20968800  0.12347300  0.20295700  1
  C  1594  1  0.10068500  0.08549890  0.18439200  1
  C  1596  1  0.23061400  0.06228490  0.17633900  1
  C  1598  1  0.70693400  0.19483200  0.68312200  1
  C  1599  1  0.68564700  0.17243200  0.69339600  1
  C  1600  1  0.65233700  0.17702500  0.69169200  1
  C  1601  1  0.64114100  0.20495800  0.67946400  1
  C  1605  1  0.63063500  0.15310700  0.70296500  1
  C  1609  1  0.73964000  0.19105200  0.68436600  1
  C  1611  1  0.60971200  0.21428700  0.67633900  1
  C  1613  1  0.47327500  0.41927400  0.57257900  1
  C  1614  1  0.45111900  0.39728900  0.56291300  1
  C  1615  1  0.45633700  0.36413900  0.56526800  1
  C  1616  1  0.48461200  0.35388300  0.57749600  1
  C  1620  1  0.43276800  0.34157400  0.55460500  1
  C  1624  1  0.46893500  0.45184300  0.57075200  1
  C  1626  1  0.49456200  0.32274800  0.58094400  1
  C  1628  1  0.36699200  0.85730600  0.07255700  1
  C  1629  1  0.38920200  0.87927700  0.06295100  1
  C  1630  1  0.38399500  0.91243000  0.06529100  1
  C  1631  1  0.35567400  0.92270400  0.07744600  1
  C  1635  1  0.40762100  0.93498100  0.05468800  1
  C  1639  1  0.37130900  0.82473300  0.07072500  1
  C  1641  1  0.34572200  0.95384800  0.08085200  1
  C  1643  1  0.70178500  0.08172890  0.32345300  1
  C  1644  1  0.68012800  0.10422300  0.31380600  1
  C  1645  1  0.64689600  0.09944790  0.31604300  1
  C  1646  1  0.63618500  0.07125790  0.32816100  1
  C  1650  1  0.62473000  0.12340600  0.30540100  1
  C  1654  1  0.73442200  0.08571790  0.32174400  1
  C  1656  1  0.60488600  0.06169990  0.33152700  1
  C  1658  1  0.13851100  0.19481500  0.82345700  1
  C  1659  1  0.16016600  0.17230300  0.81383200  1
  C  1660  1  0.19339900  0.17708500  0.81605600  1
  C  1661  1  0.20411300  0.20529600  0.82814100  1
  C  1665  1  0.21556100  0.15310800  0.80543100  1
  C  1669  1  0.10587200  0.19083000  0.82175100  1
  C  1671  1  0.23541500  0.21485400  0.83149800  1
  C  1673  1  0.97421800  0.85063400  0.07429000  1
  C  1674  1  0.95160800  0.87147300  0.06373900  1
  C  1675  1  0.95575800  0.90485900  0.06516300  1
  C  1676  1  0.98347000  0.91657800  0.07739000  1
  C  1680  1  0.93161900  0.92610000  0.05364400  1
  C  1684  1  0.97087600  0.81787500  0.07334000  1
  C  1686  1  0.99231000  0.94815100  0.08044000  1
  C  1688  1  0.86609000  0.42593700  0.57426800  1
  C  1689  1  0.88867700  0.40510000  0.56368500  1
  C  1690  1  0.88451500  0.37171300  0.56509600  1
  C  1691  1  0.85682000  0.35999600  0.57734700  1
  C  1695  1  0.90862800  0.35047100  0.55354400  1
  C  1699  1  0.86944400  0.45869600  0.57333500  1
  C  1701  1  0.84797200  0.32842400  0.58037700  1
  C  1703  1  0.86612800  0.85585700  0.43403500  1
  C  1704  1  0.88884100  0.87708700  0.44395100  1
  C  1705  1  0.88450500  0.91040400  0.44197800  1
  C  1706  1  0.85652000  0.92162600  0.42986100  1
  C  1710  1  0.90869200  0.93212500  0.45286100  1
  C  1714  1  0.86965600  0.82315600  0.43548700  1
  C  1716  1  0.84744000  0.95306200  0.42655000  1
  C  1718  1  0.97423000  0.42070900  0.93405600  1
  C  1719  1  0.95149100  0.39948700  0.94394500  1
  C  1720  1  0.95582200  0.36617000  0.94197900  1
  C  1721  1  0.98383100  0.35493900  0.92989800  1
  C  1725  1  0.93161400  0.34445400  0.95283900  1
  C  1729  1  0.97071200  0.45341200  0.93550700  1
  C  1731  1  0.99291400  0.32349900  0.92660800  1
  C  1733  1  0.63332100  0.58770800  0.68433100  1
  C  1734  1  0.65457400  0.60991300  0.69489600  1
  C  1735  1  0.68787900  0.60528200  0.69322400  1
  C  1736  1  0.69904400  0.57752200  0.68075200  1
  C  1740  1  0.70962500  0.62892900  0.70479000  1
  C  1744  1  0.60062900  0.59141900  0.68552900  1
  C  1746  1  0.73043400  0.56820700  0.67760400  1
  C  1748  1  0.20701200  0.68884000  0.18429800  1
  C  1749  1  0.18576400  0.66666667  0.19484900  1
  C  1750  1  0.15246000  0.67126900  0.19321300  1
  C  1751  1  0.14128500  0.69905200  0.18078000  1
  C  1755  1  0.13072200  0.64760800  0.20476700  1
  C  1759  1  0.23970600  0.68512500  0.18547700  1
  C  1761  1  0.10989400  0.70838700  0.17768900  1
  C  1763  1  0.20160600  0.58765300  0.82224800  1
  C  1764  1  0.17997100  0.60997900  0.81233900  1
  C  1765  1  0.14674600  0.60517000  0.81455600  1
  C  1766  1  0.13607500  0.57714200  0.82690900  1
  C  1770  1  0.12452700  0.62888100  0.80364700  1
  C  1774  1  0.23423300  0.59156100  0.82056700  1
  C  1776  1  0.10481700  0.56758900  0.83027400  1
  C  1778  1  0.63868400  0.68888000  0.32225700  1
  C  1779  1  0.66032200  0.66655200  0.31236000  1
  C  1780  1  0.69354600  0.67137300  0.31456500  1
  C  1781  1  0.70421400  0.69941800  0.32689600  1
  C  1785  1  0.71576700  0.64765400  0.30366800  1
  C  1789  1  0.60605800  0.68495800  0.32058900  1
  C  1791  1  0.73547100  0.70897100  0.33027100  1
  N  17  1  0.17233200  0.33066200  0.87410100  1
  N  18  1  0.10862600  0.39627600  0.88236500  1
  N  23  1  0.19086000  0.41017400  0.80178700  1
  N  24  1  0.08639400  0.40979100  0.83527100  1
  N  25  1  0.18926300  0.30927100  0.92072500  1
  N  26  1  0.19376000  0.41399100  0.95302000  1
  N  43  1  0.33519000  0.61310700  0.37409500  1
  N  44  1  0.39886700  0.54749500  0.38237000  1
  N  49  1  0.31665600  0.53351200  0.30178700  1
  N  50  1  0.42110700  0.53395200  0.33528200  1
  N  51  1  0.31826300  0.63450100  0.42072300  1
  N  52  1  0.31377300  0.52978000  0.45301600  1
  N  69  1  0.89411600  0.88563000  0.12354500  1
  N  70  1  0.82157800  0.82436500  0.13137100  1
  N  75  1  0.81573000  0.90831800  0.05116600  1
  N  76  1  0.80565600  0.80446400  0.08281400  1
  N  77  1  0.91590000  0.90304900  0.16999300  1
  N  78  1  0.81134000  0.90818900  0.20263000  1
  N  95  1  0.61343000  0.05816000  0.62353000  1
  N  96  1  0.68594300  0.11944400  0.63135800  1
  N  101  1  0.69178300  0.03547000  0.55116500  1
  N  102  1  0.70184700  0.13933500  0.58279500  1
  N  103  1  0.59163700  0.04071600  0.66997000  1
  N  104  1  0.69619200  0.03556000  0.70262000  1
  N  121  1  0.33031200  0.32698800  0.63251700  1
  N  122  1  0.39512300  0.39153700  0.62423800  1
  N  127  1  0.31126700  0.41241600  0.70286400  1
  N  128  1  0.41605800  0.40917300  0.67084100  1
  N  129  1  0.31755900  0.30433100  0.58542600  1
  N  130  1  0.31596200  0.40873400  0.55165500  1
  N  147  1  0.17714900  0.61682600  0.13249400  1
  N  148  1  0.11243200  0.55226400  0.12421300  1
  N  153  1  0.19625800  0.53133600  0.20284900  1
  N  154  1  0.09148400  0.53462500  0.17081500  1
  N  155  1  0.18984300  0.63947100  0.08537800  1
  N  156  1  0.19155900  0.53505300  0.05165700  1
  N  173  1  0.60986700  0.89035400  0.38304000  1
  N  174  1  0.68107200  0.82778700  0.37472700  1
  N  179  1  0.69428800  0.91333500  0.45331100  1
  N  180  1  0.70110800  0.80922300  0.42268200  1
  N  181  1  0.58679800  0.90370100  0.33613300  1
  N  182  1  0.69100300  0.90588700  0.30192700  1
  N  199  1  0.89765100  0.05342200  0.88303900  1
  N  200  1  0.82647000  0.11600600  0.87473900  1
  N  205  1  0.81326100  0.03044500  0.95331100  1
  N  206  1  0.80645500  0.13456500  0.92269700  1
  N  207  1  0.92071300  0.04008000  0.83612700  1
  N  208  1  0.81651500  0.03783700  0.80192900  1
  N  225  1  0.83931800  0.61182900  0.13399900  1
  N  226  1  0.90108100  0.53903800  0.12614200  1
  N  231  1  0.81708800  0.53305900  0.20624900  1
  N  232  1  0.92069900  0.52202200  0.17454200  1
  N  233  1  0.82111000  0.63345700  0.08763300  1
  N  234  1  0.81686400  0.52896300  0.05501100  1
  N  251  1  0.66822600  0.33195600  0.63399900  1
  N  252  1  0.60648700  0.40475600  0.62612400  1
  N  257  1  0.69045900  0.41078100  0.70624300  1
  N  258  1  0.58685500  0.42178100  0.67452700  1
  N  259  1  0.68643000  0.31032400  0.58763000  1
  N  260  1  0.69066800  0.41481900  0.55501000  1
  N  277  1  0.11071500  0.04962400  0.88337700  1
  N  278  1  0.18179200  0.11835700  0.87561200  1
  N  283  1  0.18890200  0.03477400  0.95595000  1
  N  284  1  0.19951300  0.13819800  0.92383900  1
  N  285  1  0.09177700  0.02873400  0.83566400  1
  N  286  1  0.19567000  0.03479600  0.80458000  1
  N  303  1  0.39678200  0.89413200  0.38339100  1
  N  304  1  0.32573400  0.82539800  0.37562500  1
  N  309  1  0.31859100  0.90900100  0.45595100  1
  N  310  1  0.30802700  0.80556500  0.42385900  1
  N  311  1  0.41573400  0.91503200  0.33568500  1
  N  312  1  0.31184500  0.90900100  0.30458900  1
  N  329  1  0.67294700  0.61537000  0.37433900  1
  N  330  1  0.60989300  0.54391300  0.38266000  1
  N  335  1  0.69561200  0.53054300  0.30427000  1
  N  336  1  0.59168000  0.52284400  0.33488800  1
  N  337  1  0.68706200  0.63835700  0.42119700  1
  N  338  1  0.68836200  0.53427500  0.45543100  1
  N  355  1  0.83461400  0.32839400  0.87435300  1
  N  356  1  0.89760800  0.39983500  0.88267100  1
  N  361  1  0.81189800  0.41329500  0.80428700  1
  N  362  1  0.91583100  0.42093300  0.83490900  1
  N  363  1  0.82053700  0.30541600  0.92122500  1
  N  364  1  0.81916500  0.40950800  0.95542700  1
  N  381  1  0.39997400  0.04484500  0.62539600  1
  N  382  1  0.33042600  0.11510300  0.63319300  1
  N  387  1  0.31595700  0.02968400  0.55470100  1
  N  388  1  0.30873800  0.13350300  0.58559400  1
  N  389  1  0.42036500  0.02796700  0.67370200  1
  N  390  1  0.31685100  0.03736200  0.70603600  1
  N  407  1  0.10755600  0.89893600  0.12539900  1
  N  408  1  0.17708000  0.82866100  0.13317200  1
  N  413  1  0.19154600  0.91411100  0.05470400  1
  N  414  1  0.19875900  0.81028100  0.08557100  1
  N  415  1  0.08717100  0.91581700  0.17370700  1
  N  416  1  0.19068700  0.90643700  0.20603400  1
  N  421  1  0.24319300  0.39525700  0.73752900  1
  N  423  1  0.22784500  0.39750600  0.75870600  1
  N  436  1  0.26433400  0.54847000  0.23752700  1
  N  438  1  0.27968100  0.54621000  0.25870400  1
  N  451  1  0.83181600  0.96222500  0.98759900  1
  N  453  1  0.82973600  0.94657100  0.00865800  1
  N  466  1  0.67570200  0.98154500  0.48760200  1
  N  468  1  0.67778000  0.99720600  0.50866000  1
  N  481  1  0.76351100  0.54921700  0.26982900  1
  N  483  1  0.77899300  0.54718700  0.24869700  1
  N  496  1  0.74402900  0.39460100  0.76982200  1
  N  498  1  0.72855600  0.39663300  0.74868600  1
  N  511  1  0.17272800  0.98164500  0.01983900  1
  N  513  1  0.17476900  0.99695900  0.99862700  1
  N  526  1  0.33473800  0.96211300  0.51984700  1
  N  528  1  0.33269900  0.94679500  0.49863600  1
  N  541  1  0.74331300  0.89100800  0.23752900  1
  N  543  1  0.72790500  0.89340700  0.25867600  1
  N  556  1  0.76421700  0.05273300  0.73752500  1
  N  558  1  0.77962000  0.05033400  0.75867500  1
  N  571  1  0.33086600  0.46148300  0.48755200  1
  N  573  1  0.32848900  0.44593700  0.50863200  1
  N  586  1  0.17661200  0.48226800  0.98757500  1
  N  588  1  0.17900400  0.49782300  0.00865100  1
  N  601  1  0.26347900  0.05336700  0.76986100  1
  N  603  1  0.27895100  0.05122100  0.74872500  1
  N  616  1  0.24404600  0.89042900  0.26985900  1
  N  618  1  0.22858200  0.89257300  0.24871900  1
  N  631  1  0.67351500  0.48248500  0.51992400  1
  N  633  1  0.67585000  0.49766400  0.49867900  1
  N  646  1  0.83403800  0.46130400  0.01991200  1
  N  648  1  0.83169500  0.44612500  0.99866800  1
  N  661  1  0.16964300  0.21502300  0.92085700  1
  N  663  1  0.17470500  0.24557500  0.92255200  1
  N  676  1  0.33788100  0.72875200  0.42084800  1
  N  678  1  0.33281800  0.69820000  0.42253500  1
  N  691  1  0.01057900  0.88487400  0.17020700  1
  N  693  1  0.97994500  0.88950700  0.17181300  1
  N  706  1  0.49695900  0.05889600  0.67019000  1
  N  708  1  0.52759200  0.05425800  0.67178900  1
  N  721  1  0.33830200  0.21030400  0.58615400  1
  N  723  1  0.33307000  0.24078000  0.58397500  1
  N  736  1  0.16914600  0.73350600  0.08605000  1
  N  738  1  0.17436700  0.70302700  0.08388300  1
  N  751  1  0.49232100  0.88444000  0.33680800  1
  N  753  1  0.52288300  0.88925500  0.33472900  1
  N  766  1  0.01519100  0.05933600  0.83677500  1
  N  768  1  0.98462800  0.05451600  0.83470700  1
  N  781  1  0.83763500  0.72837600  0.08694100  1
  N  783  1  0.83341100  0.69766900  0.08559400  1
  N  796  1  0.66989000  0.21540700  0.58692900  1
  N  798  1  0.67412100  0.24611200  0.58559200  1
  N  811  1  0.66947400  0.73308800  0.42094300  1
  N  813  1  0.67387700  0.70244800  0.42278100  1
  N  826  1  0.83811300  0.21068200  0.92100500  1
  N  828  1  0.83371300  0.24132300  0.92283700  1
  N  841  1  0.51048200  0.39096700  0.67121100  1
  N  843  1  0.47986800  0.39564500  0.67278200  1
  N  856  1  0.99705300  0.55283100  0.17124800  1
  N  858  1  0.02767000  0.54814100  0.17279100  1
  N  871  1  0.99217500  0.39046800  0.83578900  1
  N  873  1  0.02271900  0.39531500  0.83372800  1
  N  886  1  0.51532200  0.55329900  0.33577400  1
  N  888  1  0.48477900  0.54844100  0.33372200  1
  N  913  1  0.33872600  0.49705700  0.87410100  1
  N  914  1  0.27502000  0.56267100  0.88236500  1
  N  919  1  0.35725400  0.57656900  0.80178700  1
  N  920  1  0.25278800  0.57618600  0.83527100  1
  N  921  1  0.35565700  0.47566600  0.92072500  1
  N  922  1  0.36015400  0.58038600  0.95302000  1
  N  939  1  0.50158400  0.77950200  0.37409500  1
  N  940  1  0.56526100  0.71389000  0.38237000  1
  N  945  1  0.48305000  0.69990700  0.30178700  1
  N  946  1  0.58750100  0.70034700  0.33528200  1
  N  947  1  0.48465700  0.80089600  0.42072300  1
  N  948  1  0.48016700  0.69617500  0.45301600  1
  N  965  1  0.06051050  0.05202490  0.12354500  1
  N  966  1  0.98797200  0.99076000  0.13137100  1
  N  971  1  0.98212400  0.07471290  0.05116600  1
  N  972  1  0.97205000  0.97085900  0.08281400  1
  N  973  1  0.08229450  0.06944390  0.16999300  1
  N  974  1  0.97773400  0.07458390  0.20263000  1
  N  991  1  0.77982400  0.22455500  0.62353000  1
  N  992  1  0.85233700  0.28583900  0.63135800  1
  N  997  1  0.85817700  0.20186500  0.55116500  1
  N  998  1  0.86824100  0.30573000  0.58279500  1
  N  999  1  0.75803100  0.20711100  0.66997000  1
  N  1000  1  0.86258600  0.20195500  0.70262000  1
  N  1017  1  0.49670600  0.49338300  0.63251700  1
  N  1018  1  0.56151700  0.55793200  0.62423800  1
  N  1023  1  0.47766100  0.57881100  0.70286400  1
  N  1024  1  0.58245200  0.57556800  0.67084100  1
  N  1025  1  0.48395300  0.47072600  0.58542600  1
  N  1026  1  0.48235600  0.57512900  0.55165500  1
  N  1043  1  0.34354300  0.78322100  0.13249400  1
  N  1044  1  0.27882600  0.71865900  0.12421300  1
  N  1049  1  0.36265200  0.69773100  0.20284900  1
  N  1050  1  0.25787800  0.70102000  0.17081500  1
  N  1051  1  0.35623700  0.80586600  0.08537800  1
  N  1052  1  0.35795300  0.70144800  0.05165700  1
  N  1069  1  0.77626100  0.05674890  0.38304000  1
  N  1070  1  0.84746600  0.99418200  0.37472700  1
  N  1075  1  0.86068200  0.07972990  0.45331100  1
  N  1076  1  0.86750200  0.97561800  0.42268200  1
  N  1077  1  0.75319200  0.07009590  0.33613300  1
  N  1078  1  0.85739700  0.07228190  0.30192700  1
  N  1095  1  0.06404550  0.21981700  0.88303900  1
  N  1096  1  0.99286400  0.28240100  0.87473900  1
  N  1101  1  0.97965500  0.19684000  0.95331100  1
  N  1102  1  0.97284900  0.30096000  0.92269700  1
  N  1103  1  0.08710750  0.20647500  0.83612700  1
  N  1104  1  0.98290900  0.20423200  0.80192900  1
  N  1121  1  0.00571249  0.77822400  0.13399900  1
  N  1122  1  0.06747550  0.70543300  0.12614200  1
  N  1127  1  0.98348200  0.69945400  0.20624900  1
  N  1128  1  0.08709350  0.68841700  0.17454200  1
  N  1129  1  0.98750400  0.79985200  0.08763300  1
  N  1130  1  0.98325800  0.69535800  0.05501100  1
  N  1147  1  0.83462000  0.49835100  0.63399900  1
  N  1148  1  0.77288100  0.57115100  0.62612400  1
  N  1153  1  0.85685300  0.57717600  0.70624300  1
  N  1154  1  0.75324900  0.58817600  0.67452700  1
  N  1155  1  0.85282400  0.47671900  0.58763000  1
  N  1156  1  0.85706200  0.58121400  0.55501000  1
  N  1173  1  0.27710900  0.21601900  0.88337700  1
  N  1174  1  0.34818600  0.28475200  0.87561200  1
  N  1179  1  0.35529600  0.20116900  0.95595000  1
  N  1180  1  0.36590700  0.30459300  0.92383900  1
  N  1181  1  0.25817100  0.19512900  0.83566400  1
  N  1182  1  0.36206400  0.20119100  0.80458000  1
  N  1199  1  0.56317600  0.06052690  0.38339100  1
  N  1200  1  0.49212800  0.99179300  0.37562500  1
  N  1205  1  0.48498500  0.07539590  0.45595100  1
  N  1206  1  0.47442100  0.97196000  0.42385900  1
  N  1207  1  0.58212800  0.08142690  0.33568500  1
  N  1208  1  0.47823900  0.07539590  0.30458900  1
  N  1225  1  0.83934100  0.78176500  0.37433900  1
  N  1226  1  0.77628700  0.71030800  0.38266000  1
  N  1231  1  0.86200600  0.69693800  0.30427000  1
  N  1232  1  0.75807400  0.68923900  0.33488800  1
  N  1233  1  0.85345600  0.80475200  0.42119700  1
  N  1234  1  0.85475600  0.70067000  0.45543100  1
  N  1251  1  0.00100849  0.49478900  0.87435300  1
  N  1252  1  0.06400250  0.56623000  0.88267100  1
  N  1257  1  0.97829200  0.57969000  0.80428700  1
  N  1258  1  0.08222550  0.58732800  0.83490900  1
  N  1259  1  0.98693100  0.47181100  0.92122500  1
  N  1260  1  0.98555900  0.57590300  0.95542700  1
  N  1277  1  0.56636800  0.21124000  0.62539600  1
  N  1278  1  0.49682000  0.28149800  0.63319300  1
  N  1283  1  0.48235100  0.19607900  0.55470100  1
  N  1284  1  0.47513200  0.29989800  0.58559400  1
  N  1285  1  0.58675900  0.19436200  0.67370200  1
  N  1286  1  0.48324500  0.20375700  0.70603600  1
  N  1303  1  0.27395000  0.06533090  0.12539900  1
  N  1304  1  0.34347400  0.99505600  0.13317200  1
  N  1309  1  0.35794000  0.08050590  0.05470400  1
  N  1310  1  0.36515300  0.97667600  0.08557100  1
  N  1311  1  0.25356500  0.08221190  0.17370700  1
  N  1312  1  0.35708100  0.07283190  0.20603400  1
  N  1317  1  0.40958700  0.56165200  0.73752900  1
  N  1319  1  0.39423900  0.56390100  0.75870600  1
  N  1332  1  0.43072800  0.71486500  0.23752700  1
  N  1334  1  0.44607500  0.71260500  0.25870400  1
  N  1347  1  0.99821000  0.12862000  0.98759900  1
  N  1349  1  0.99613000  0.11296600  0.00865800  1
  N  1362  1  0.84209600  0.14794000  0.48760200  1
  N  1364  1  0.84417400  0.16360100  0.50866000  1
  N  1377  1  0.92990500  0.71561200  0.26982900  1
  N  1379  1  0.94538700  0.71358200  0.24869700  1
  N  1392  1  0.91042300  0.56099600  0.76982200  1
  N  1394  1  0.89495000  0.56302800  0.74868600  1
  N  1407  1  0.33912200  0.14804000  0.01983900  1
  N  1409  1  0.34116300  0.16335400  0.99862700  1
  N  1422  1  0.50113200  0.12850800  0.51984700  1
  N  1424  1  0.49909300  0.11319000  0.49863600  1
  N  1437  1  0.90970700  0.05740290  0.23752900  1
  N  1439  1  0.89429900  0.05980190  0.25867600  1
  N  1452  1  0.93061100  0.21912800  0.73752500  1
  N  1454  1  0.94601400  0.21672900  0.75867500  1
  N  1467  1  0.49726000  0.62787800  0.48755200  1
  N  1469  1  0.49488300  0.61233200  0.50863200  1
  N  1482  1  0.34300600  0.64866300  0.98757500  1
  N  1484  1  0.34539800  0.66421800  0.00865100  1
  N  1497  1  0.42987300  0.21976200  0.76986100  1
  N  1499  1  0.44534500  0.21761600  0.74872500  1
  N  1512  1  0.41044000  0.05682390  0.26985900  1
  N  1514  1  0.39497600  0.05896790  0.24871900  1
  N  1527  1  0.83990900  0.64888000  0.51992400  1
  N  1529  1  0.84224400  0.66405900  0.49867900  1
  N  1542  1  0.00043249  0.62769900  0.01991200  1
  N  1544  1  0.99808900  0.61252000  0.99866800  1
  N  1557  1  0.33603700  0.38141800  0.92085700  1
  N  1559  1  0.34109900  0.41197000  0.92255200  1
  N  1572  1  0.50427500  0.89514700  0.42084800  1
  N  1574  1  0.49921200  0.86459500  0.42253500  1
  N  1587  1  0.17697300  0.05126890  0.17020700  1
  N  1589  1  0.14633900  0.05590190  0.17181300  1
  N  1602  1  0.66335300  0.22529100  0.67019000  1
  N  1604  1  0.69398600  0.22065300  0.67178900  1
  N  1617  1  0.50469600  0.37669900  0.58615400  1
  N  1619  1  0.49946400  0.40717500  0.58397500  1
  N  1632  1  0.33554000  0.89990100  0.08605000  1
  N  1634  1  0.34076100  0.86942200  0.08388300  1
  N  1647  1  0.65871500  0.05083490  0.33680800  1
  N  1649  1  0.68927700  0.05564990  0.33472900  1
  N  1662  1  0.18158500  0.22573100  0.83677500  1
  N  1664  1  0.15102200  0.22091100  0.83470700  1
  N  1677  1  0.00402949  0.89477100  0.08694100  1
  N  1679  1  0.99980500  0.86406400  0.08559400  1
  N  1692  1  0.83628400  0.38180200  0.58692900  1
  N  1694  1  0.84051500  0.41250700  0.58559200  1
  N  1707  1  0.83586800  0.89948300  0.42094300  1
  N  1709  1  0.84027100  0.86884300  0.42278100  1
  N  1722  1  0.00450749  0.37707700  0.92100500  1
  N  1724  1  0.00010749  0.40771800  0.92283700  1
  N  1737  1  0.67687600  0.55736200  0.67121100  1
  N  1739  1  0.64626200  0.56204000  0.67278200  1
  N  1752  1  0.16344700  0.71922600  0.17124800  1
  N  1754  1  0.19406400  0.71453600  0.17279100  1
  N  1767  1  0.15856900  0.55686300  0.83578900  1
  N  1769  1  0.18911300  0.56171000  0.83372800  1
  N  1782  1  0.68171600  0.71969400  0.33577400  1
  N  1784  1  0.65117300  0.71483600  0.33372200  1
