# generated using pymatgen
data_Ni2H19C30O7
_symmetry_space_group_name_H-M   'P 1'
_cell_length_a   23.13670000
_cell_length_b   26.14320000
_cell_length_c   26.38616000
_cell_angle_alpha   88.28768000
_cell_angle_beta   79.31398000
_cell_angle_gamma   77.92286000
_symmetry_Int_Tables_number   1
_chemical_formula_structural   Ni2H19C30O7
_chemical_formula_sum   'Ni32 H304 C480 O112'
_cell_volume   15335.56503267
_cell_formula_units_Z   16
loop_
 _symmetry_equiv_pos_site_id
 _symmetry_equiv_pos_as_xyz
  1  'x, y, z'
loop_
 _atom_site_type_symbol
 _atom_site_label
 _atom_site_symmetry_multiplicity
 _atom_site_fract_x
 _atom_site_fract_y
 _atom_site_fract_z
 _atom_site_occupancy
  Ni  Ni1  1  0.97544000  0.94235000  0.04396000  1.0
  Ni  Ni2  1  0.99442000  0.01579000  0.94833000  1.0
  Ni  Ni3  1  0.97168000  0.07406000  0.05968000  1.0
  Ni  Ni4  1  0.95810000  0.90085000  0.93603000  1.0
  Ni  Ni5  1  0.03779000  0.42260000  0.03926000  1.0
  Ni  Ni6  1  0.05919000  0.51152000  0.95883000  1.0
  Ni  Ni7  1  0.09909000  0.52150000  0.06765000  1.0
  Ni  Ni8  1  0.03488000  0.39392000  0.92070000  1.0
  Ni  Ni9  1  0.99171000  0.95231000  0.52585000  1.0
  Ni  Ni10  1  0.00704000  0.04761000  0.45311000  1.0
  Ni  Ni11  1  0.03537000  0.05564000  0.56622000  1.0
  Ni  Ni12  1  0.00035000  0.92709000  0.40585000  1.0
  Ni  Ni13  1  0.94328000  0.46623000  0.56307000  1.0
  Ni  Ni14  1  0.00130000  0.52248000  0.46644000  1.0
  Ni  Ni15  1  0.99881000  0.57334000  0.57681000  1.0
  Ni  Ni16  1  0.92465000  0.43298000  0.45257000  1.0
  Ni  Ni17  1  0.45462000  0.96506000  0.05752000  1.0
  Ni  Ni18  1  0.49692000  0.03818000  0.96623000  1.0
  Ni  Ni19  1  0.52866000  0.05483000  0.07631000  1.0
  Ni  Ni20  1  0.43045000  0.94306000  0.94398000  1.0
  Ni  Ni21  1  0.53699000  0.45863000  0.03387000  1.0
  Ni  Ni22  1  0.56131000  0.54235000  0.94945000  1.0
  Ni  Ni23  1  0.58143000  0.56579000  0.06208000  1.0
  Ni  Ni24  1  0.54345000  0.42455000  0.91646000  1.0
  Ni  Ni25  1  0.47497000  0.99313000  0.53778000  1.0
  Ni  Ni26  1  0.51565000  0.07431000  0.45396000  1.0
  Ni  Ni27  1  0.56060000  0.07389000  0.56218000  1.0
  Ni  Ni28  1  0.42595000  0.99933000  0.43133000  1.0
  Ni  Ni29  1  0.46701000  0.49083000  0.54985000  1.0
  Ni  Ni30  1  0.46860000  0.57386000  0.46216000  1.0
  Ni  Ni31  1  0.46155000  0.61633000  0.57595000  1.0
  Ni  Ni32  1  0.44579000  0.45547000  0.44048000  1.0
  H  H1  1  0.90857000  0.02852000  0.02213000  1.0
  H  H2  1  0.04962000  0.92041000  0.96015000  1.0
  H  H3  1  0.99842000  0.52253000  0.04972000  1.0
  H  H4  1  0.11518000  0.41641000  0.95804000  1.0
  H  H5  1  0.93939000  0.05015000  0.54068000  1.0
  H  H6  1  0.07300000  0.95540000  0.44913000  1.0
  H  H7  1  0.91271000  0.56371000  0.53654000  1.0
  H  H8  1  0.02066000  0.42344000  0.48628000  1.0
  H  H9  1  0.42586000  0.06705000  0.05258000  1.0
  H  H10  1  0.52900000  0.93647000  0.97220000  1.0
  H  H11  1  0.48737000  0.55694000  0.03399000  1.0
  H  H12  1  0.62314000  0.44734000  0.95718000  1.0
  H  H13  1  0.45457000  0.09494000  0.54603000  1.0
  H  H14  1  0.53295000  0.97323000  0.44504000  1.0
  H  H15  1  0.38623000  0.57695000  0.54251000  1.0
  H  H16  1  0.53500000  0.48157000  0.46235000  1.0
  H  H17  1  0.57967000  0.23433000  0.41806000  1.0
  H  H18  1  0.50477000  0.31137000  0.59394000  1.0
  H  H19  1  0.55137000  0.38342000  0.30393000  1.0
  H  H20  1  0.64805000  0.41067000  0.30322000  1.0
  H  H21  1  0.69856000  0.39347000  0.37868000  1.0
  H  H22  1  0.65470000  0.34643000  0.45400000  1.0
  H  H23  1  0.50748000  0.33545000  0.37869000  1.0
  H  H24  1  0.43622000  0.21432000  0.60632000  1.0
  H  H25  1  0.43007000  0.16445000  0.68773000  1.0
  H  H26  1  0.62823000  0.19170000  0.59475000  1.0
  H  H27  1  0.62165000  0.14032000  0.67521000  1.0
  H  H28  1  0.52275000  0.12753000  0.72216000  1.0
  H  H29  1  0.45553000  0.84816000  0.41219000  1.0
  H  H30  1  0.40354000  0.74490000  0.56873000  1.0
  H  H31  1  0.37532000  0.75078000  0.29340000  1.0
  H  H32  1  0.47654000  0.71029000  0.24595000  1.0
  H  H33  1  0.56356000  0.69183000  0.29098000  1.0
  H  H34  1  0.55041000  0.71864000  0.38251000  1.0
  H  H35  1  0.36165000  0.77679000  0.38489000  1.0
  H  H36  1  0.29408000  0.86849000  0.56183000  1.0
  H  H37  1  0.24071000  0.91667000  0.64203000  1.0
  H  H38  1  0.45737000  0.83420000  0.62410000  1.0
  H  H39  1  0.40315000  0.88200000  0.70444000  1.0
  H  H40  1  0.29526000  0.92374000  0.71322000  1.0
  H  H41  1  0.41897000  0.52179000  0.19754000  1.0
  H  H42  1  0.57942000  0.49682000  0.30313000  1.0
  H  H43  1  0.29918000  0.68130000  0.33760000  1.0
  H  H44  1  0.21740000  0.63174000  0.35760000  1.0
  H  H45  1  0.23793000  0.53722000  0.33602000  1.0
  H  H46  1  0.34052000  0.49167000  0.29576000  1.0
  H  H47  1  0.40180000  0.63626000  0.29704000  1.0
  H  H48  1  0.59585000  0.38471000  0.19645000  1.0
  H  H49  1  0.69938000  0.33952000  0.15867000  1.0
  H  H50  1  0.65959000  0.52613000  0.21162000  1.0
  H  H51  1  0.76321000  0.47986000  0.17564000  1.0
  H  H52  1  0.78305000  0.38700000  0.14812000  1.0
  H  H53  1  0.45586000  0.45773000  0.72380000  1.0
  H  H54  1  0.55956000  0.58946000  0.77884000  1.0
  H  H55  1  0.57090000  0.30379000  0.82030000  1.0
  H  H56  1  0.47519000  0.30036000  0.87967000  1.0
  H  H57  1  0.39223000  0.37847000  0.89210000  1.0
  H  H58  1  0.40598000  0.46130000  0.84850000  1.0
  H  H59  1  0.58410000  0.38560000  0.77412000  1.0
  H  H60  1  0.61592000  0.57876000  0.65683000  1.0
  H  H61  1  0.63068000  0.65216000  0.59764000  1.0
  H  H62  1  0.43594000  0.66137000  0.71741000  1.0
  H  H63  1  0.45154000  0.73517000  0.65898000  1.0
  H  H64  1  0.54808000  0.72997000  0.59797000  1.0
  H  H65  1  0.49945000  0.93749000  0.23708000  1.0
  H  H66  1  0.43250000  0.12641000  0.28088000  1.0
  H  H67  1  0.56234000  0.85703000  0.38979000  1.0
  H  H68  1  0.66354000  0.87606000  0.38615000  1.0
  H  H69  1  0.69243000  0.95096000  0.33532000  1.0
  H  H70  1  0.61985000  0.00794000  0.28913000  1.0
  H  H71  1  0.48860000  0.91429000  0.34477000  1.0
  H  H72  1  0.30965000  0.10005000  0.26542000  1.0
  H  H73  1  0.23779000  0.16219000  0.22261000  1.0
  H  H74  1  0.45149000  0.11124000  0.13681000  1.0
  H  H75  1  0.37827000  0.17079000  0.09322000  1.0
  H  H76  1  0.27204000  0.19766000  0.13679000  1.0
  H  H77  1  0.42295000  0.07386000  0.71224000  1.0
  H  H78  1  0.56812000  0.94192000  0.79020000  1.0
  H  H79  1  0.43560000  0.20449000  0.87274000  1.0
  H  H80  1  0.32453000  0.22045000  0.88517000  1.0
  H  H81  1  0.27512000  0.15657000  0.85174000  1.0
  H  H82  1  0.33643000  0.07670000  0.80545000  1.0
  H  H83  1  0.49772000  0.12603000  0.82461000  1.0
  H  H84  1  0.63791000  0.94996000  0.65246000  1.0
  H  H85  1  0.68249000  0.87185000  0.59695000  1.0
  H  H86  1  0.49946000  0.87200000  0.72884000  1.0
  H  H87  1  0.54902000  0.79197000  0.67765000  1.0
  H  H88  1  0.63979000  0.79205000  0.61074000  1.0
  H  H89  1  0.47294000  0.20171000  0.07222000  1.0
  H  H90  1  0.58991000  0.28516000  0.92837000  1.0
  H  H91  1  0.50304000  0.34411000  0.20448000  1.0
  H  H92  1  0.39614000  0.38932000  0.21361000  1.0
  H  H93  1  0.33746000  0.37762000  0.14673000  1.0
  H  H94  1  0.38611000  0.32262000  0.06944000  1.0
  H  H95  1  0.55215000  0.28864000  0.12766000  1.0
  H  H96  1  0.66693000  0.14574000  0.95435000  1.0
  H  H97  1  0.72926000  0.09186000  0.88051000  1.0
  H  H98  1  0.54032000  0.21362000  0.85785000  1.0
  H  H99  1  0.60293000  0.15978000  0.78420000  1.0
  H  H100  1  0.69723000  0.09871000  0.79546000  1.0
  H  H101  1  0.51154000  0.71897000  0.91794000  1.0
  H  H102  1  0.46877000  0.79147000  0.09628000  1.0
  H  H103  1  0.32005000  0.84395000  0.87071000  1.0
  H  H104  1  0.38483000  0.89163000  0.80980000  1.0
  H  H105  1  0.48906000  0.88998000  0.82134000  1.0
  H  H106  1  0.52818000  0.84291000  0.89456000  1.0
  H  H107  1  0.35937000  0.79481000  0.94313000  1.0
  H  H108  1  0.43199000  0.66718000  0.10274000  1.0
  H  H109  1  0.44698000  0.61530000  0.18081000  1.0
  H  H110  1  0.60607000  0.70545000  0.09317000  1.0
  H  H111  1  0.62241000  0.64990000  0.16905000  1.0
  H  H112  1  0.54306000  0.60469000  0.21283000  1.0
  H  H113  1  0.18913000  0.41159000  0.49280000  1.0
  H  H114  1  0.25838000  0.53559000  0.59551000  1.0
  H  H115  1  0.38186000  0.33410000  0.37613000  1.0
  H  H116  1  0.42777000  0.26579000  0.43237000  1.0
  H  H117  1  0.39753000  0.27406000  0.52742000  1.0
  H  H118  1  0.32236000  0.35101000  0.56653000  1.0
  H  H119  1  0.30605000  0.41096000  0.41468000  1.0
  H  H120  1  0.17542000  0.61523000  0.53812000  1.0
  H  H121  1  0.12057000  0.69529000  0.58636000  1.0
  H  H122  1  0.10135000  0.52240000  0.66080000  1.0
  H  H123  1  0.04674000  0.60266000  0.70899000  1.0
  H  H124  1  0.05825000  0.68915000  0.67322000  1.0
  H  H125  1  0.63108000  0.51128000  0.59026000  1.0
  H  H126  1  0.77869000  0.55948000  0.44502000  1.0
  H  H127  1  0.78283000  0.58058000  0.70591000  1.0
  H  H128  1  0.77146000  0.50059000  0.75631000  1.0
  H  H129  1  0.73650000  0.42947000  0.71867000  1.0
  H  H130  1  0.71635000  0.43644000  0.62947000  1.0
  H  H131  1  0.75913000  0.58974000  0.61797000  1.0
  H  H132  1  0.66144000  0.65425000  0.43165000  1.0
  H  H133  1  0.65438000  0.67528000  0.34059000  1.0
  H  H134  1  0.68021000  0.49073000  0.39787000  1.0
  H  H135  1  0.67534000  0.51217000  0.30673000  1.0
  H  H136  1  0.65906000  0.60456000  0.27848000  1.0
  H  H137  1  0.16664000  0.12010000  0.48347000  1.0
  H  H138  1  0.30099000  0.95965000  0.52889000  1.0
  H  H139  1  0.25107000  0.20796000  0.64133000  1.0
  H  H140  1  0.25654000  0.27981000  0.57843000  1.0
  H  H141  1  0.26096000  0.26315000  0.48563000  1.0
  H  H142  1  0.25811000  0.17501000  0.45570000  1.0
  H  H143  1  0.24704000  0.11988000  0.61227000  1.0
  H  H144  1  0.16877000  0.91737000  0.48411000  1.0
  H  H145  1  0.18007000  0.85025000  0.41695000  1.0
  H  H146  1  0.32990000  0.96281000  0.40340000  1.0
  H  H147  1  0.34717000  0.88817000  0.34309000  1.0
  H  H148  1  0.27147000  0.83263000  0.34894000  1.0
  H  H149  1  0.83600000  0.03359000  0.43086000  1.0
  H  H150  1  0.69160000  0.91894000  0.49171000  1.0
  H  H151  1  0.69033000  0.11977000  0.29650000  1.0
  H  H152  1  0.68102000  0.20446000  0.34037000  1.0
  H  H153  1  0.70103000  0.20593000  0.42938000  1.0
  H  H154  1  0.72894000  0.12297000  0.47518000  1.0
  H  H155  1  0.71989000  0.03650000  0.34131000  1.0
  H  H156  1  0.78563000  0.82765000  0.47322000  1.0
  H  H157  1  0.78982000  0.75831000  0.53894000  1.0
  H  H158  1  0.80498000  0.93660000  0.58536000  1.0
  H  H159  1  0.81458000  0.86546000  0.64900000  1.0
  H  H160  1  0.80812000  0.77596000  0.62561000  1.0
  H  H161  1  0.93875000  0.19057000  0.58941000  1.0
  H  H162  1  0.98370000  0.32374000  0.45789000  1.0
  H  H163  1  0.90809000  0.28776000  0.75095000  1.0
  H  H164  1  0.79895000  0.32612000  0.76163000  1.0
  H  H165  1  0.74912000  0.33828000  0.68538000  1.0
  H  H166  1  0.80867000  0.31537000  0.59808000  1.0
  H  H167  1  0.96774000  0.26272000  0.66414000  1.0
  H  H168  1  0.11377000  0.20657000  0.44683000  1.0
  H  H169  1  0.17249000  0.18771000  0.35849000  1.0
  H  H170  1  0.95017000  0.24298000  0.38494000  1.0
  H  H171  1  0.00950000  0.22446000  0.29686000  1.0
  H  H172  1  0.12062000  0.19891000  0.28336000  1.0
  H  H173  1  0.93285000  0.79786000  0.48677000  1.0
  H  H174  1  0.12569000  0.66741000  0.46508000  1.0
  H  H175  1  0.81623000  0.71174000  0.39182000  1.0
  H  H176  1  0.76960000  0.65883000  0.46086000  1.0
  H  H177  1  0.81705000  0.63365000  0.53727000  1.0
  H  H178  1  0.91075000  0.66194000  0.54524000  1.0
  H  H179  1  0.91021000  0.73972000  0.39896000  1.0
  H  H180  1  0.19231000  0.71958000  0.41047000  1.0
  H  H181  1  0.29148000  0.72648000  0.42829000  1.0
  H  H182  1  0.10627000  0.81410000  0.54545000  1.0
  H  H183  1  0.20555000  0.82317000  0.56088000  1.0
  H  H184  1  0.29832000  0.77939000  0.50250000  1.0
  H  H185  1  0.03362000  0.38332000  0.31259000  1.0
  H  H186  1  0.02707000  0.53747000  0.19732000  1.0
  H  H187  1  0.97787000  0.26118000  0.19092000  1.0
  H  H188  1  0.08256000  0.20991000  0.17315000  1.0
  H  H189  1  0.16755000  0.25297000  0.17673000  1.0
  H  H190  1  0.14777000  0.34592000  0.20356000  1.0
  H  H191  1  0.95739000  0.35414000  0.21790000  1.0
  H  H192  1  0.92990000  0.59299000  0.28601000  1.0
  H  H193  1  0.92733000  0.68292000  0.31449000  1.0
  H  H194  1  0.11331000  0.54639000  0.30887000  1.0
  H  H195  1  0.10900000  0.63585000  0.33979000  1.0
  H  H196  1  0.01635000  0.70419000  0.34231000  1.0
  H  H197  1  0.89178000  0.56196000  0.74989000  1.0
  H  H198  1  0.07759000  0.43828000  0.77757000  1.0
  H  H199  1  0.92726000  0.69048000  0.89577000  1.0
  H  H200  1  0.82026000  0.68988000  0.93008000  1.0
  H  H201  1  0.77629000  0.61634000  0.90878000  1.0
  H  H202  1  0.83932000  0.54276000  0.85408000  1.0
  H  H203  1  0.99005000  0.61885000  0.83816000  1.0
  H  H204  1  0.97163000  0.38921000  0.68389000  1.0
  H  H205  1  0.02500000  0.32400000  0.61584000  1.0
  H  H206  1  0.13720000  0.43984000  0.68457000  1.0
  H  H207  1  0.18940000  0.37511000  0.61621000  1.0
  H  H208  1  0.13320000  0.31777000  0.58112000  1.0
  H  H209  1  0.24859000  0.55386000  0.92673000  1.0
  H  H210  1  0.37632000  0.40539000  0.00225000  1.0
  H  H211  1  0.40929000  0.63038000  0.81691000  1.0
  H  H212  1  0.42541000  0.69221000  0.87980000  1.0
  H  H213  1  0.39872000  0.67704000  0.97367000  1.0
  H  H214  1  0.35676000  0.59976000  0.00490000  1.0
  H  H215  1  0.36591000  0.55375000  0.84753000  1.0
  H  H216  1  0.25200000  0.36710000  0.92496000  1.0
  H  H217  1  0.19619000  0.29910000  0.95944000  1.0
  H  H218  1  0.27524000  0.39833000  0.07859000  1.0
  H  H219  1  0.22285000  0.32755000  0.11206000  1.0
  H  H220  1  0.17988000  0.28027000  0.05324000  1.0
  H  H221  1  0.76238000  0.57340000  0.00068000  1.0
  H  H222  1  0.85250000  0.38770000  0.95336000  1.0
  H  H223  1  0.93488000  0.64686000  0.01115000  1.0
  H  H224  1  0.91335000  0.64730000  0.10683000  1.0
  H  H225  1  0.86297000  0.58035000  0.15376000  1.0
  H  H226  1  0.83082000  0.51496000  0.10521000  1.0
  H  H227  1  0.91175000  0.57637000  0.96263000  1.0
  H  H228  1  0.75475000  0.45851000  0.85515000  1.0
  H  H229  1  0.70387000  0.40189000  0.81292000  1.0
  H  H230  1  0.73073000  0.36821000  0.99408000  1.0
  H  H231  1  0.67672000  0.31407000  0.95241000  1.0
  H  H232  1  0.66149000  0.33190000  0.86239000  1.0
  H  H233  1  0.07643000  0.99445000  0.18439000  1.0
  H  H234  1  0.88340000  0.03538000  0.30883000  1.0
  H  H235  1  0.18102000  0.10906000  0.28197000  1.0
  H  H236  1  0.23246000  0.03665000  0.33063000  1.0
  H  H237  1  0.19554000  0.95406000  0.34280000  1.0
  H  H238  1  0.10557000  0.94433000  0.30920000  1.0
  H  H239  1  0.08955000  0.10094000  0.24934000  1.0
  H  H240  1  0.81443000  0.06818000  0.24023000  1.0
  H  H241  1  0.72090000  0.04051000  0.23133000  1.0
  H  H242  1  0.91327000  0.90978000  0.20937000  1.0
  H  H243  1  0.81955000  0.88324000  0.19883000  1.0
  H  H244  1  0.72335000  0.94826000  0.21039000  1.0
  H  H245  1  0.02392000  0.88629000  0.78394000  1.0
  H  H246  1  0.95780000  0.05437000  0.69846000  1.0
  H  H247  1  0.10949000  0.77091000  0.63318000  1.0
  H  H248  1  0.02082000  0.75106000  0.60283000  1.0
  H  H249  1  0.91965000  0.80428000  0.63426000  1.0
  H  H250  1  0.90734000  0.88307000  0.68833000  1.0
  H  H251  1  0.09858000  0.85046000  0.68486000  1.0
  H  H252  1  0.08198000  0.05416000  0.78587000  1.0
  H  H253  1  0.08202000  0.14351000  0.81458000  1.0
  H  H254  1  0.88986000  0.09670000  0.79605000  1.0
  H  H255  1  0.89206000  0.18719000  0.81823000  1.0
  H  H256  1  0.98744000  0.21036000  0.82964000  1.0
  H  H257  1  0.13735000  0.00198000  0.08416000  1.0
  H  H258  1  0.28557000  0.06206000  0.94817000  1.0
  H  H259  1  0.28423000  0.02376000  0.22046000  1.0
  H  H260  1  0.29214000  0.92938000  0.23848000  1.0
  H  H261  1  0.27117000  0.87107000  0.17481000  1.0
  H  H262  1  0.24265000  0.90700000  0.09297000  1.0
  H  H263  1  0.25373000  0.06083000  0.13962000  1.0
  H  H264  1  0.18687000  0.12090000  0.89830000  1.0
  H  H265  1  0.19601000  0.11424000  0.80378000  1.0
  H  H266  1  0.20572000  0.95372000  0.90975000  1.0
  H  H267  1  0.21224000  0.94784000  0.81536000  1.0
  H  H268  1  0.20861000  0.02785000  0.76221000  1.0
  H  H269  1  0.67751000  0.06074000  0.00772000  1.0
  H  H270  1  0.78892000  0.87761000  0.01549000  1.0
  H  H271  1  0.76703000  0.18612000  0.03268000  1.0
  H  H272  1  0.81542000  0.17355000  0.10966000  1.0
  H  H273  1  0.84143000  0.08504000  0.14559000  1.0
  H  H274  1  0.80863000  0.01085000  0.11117000  1.0
  H  H275  1  0.75568000  0.10911000  0.98625000  1.0
  H  H276  1  0.69935000  0.89874000  0.90260000  1.0
  H  H277  1  0.65360000  0.82666000  0.88070000  1.0
  H  H278  1  0.65924000  0.86061000  0.06368000  1.0
  H  H279  1  0.61332000  0.78888000  0.04118000  1.0
  H  H280  1  0.61193000  0.77104000  0.94972000  1.0
  H  H281  1  0.93424000  0.30500000  0.00308000  1.0
  H  H282  1  0.08246000  0.14128000  0.94886000  1.0
  H  H283  1  0.85943000  0.32802000  0.84135000  1.0
  H  H284  1  0.78208000  0.27420000  0.84717000  1.0
  H  H285  1  0.77532000  0.20648000  0.91446000  1.0
  H  H286  1  0.85206000  0.18625000  0.96977000  1.0
  H  H287  1  0.93743000  0.30732000  0.89568000  1.0
  H  H288  1  0.18103000  0.21021000  0.93215000  1.0
  H  H289  1  0.27555000  0.17416000  0.96372000  1.0
  H  H290  1  0.07981000  0.18835000  0.08264000  1.0
  H  H291  1  0.17476000  0.15235000  0.11361000  1.0
  H  H292  1  0.27251000  0.14452000  0.05393000  1.0
  H  H293  1  0.05841000  0.78293000  0.94000000  1.0
  H  H294  1  0.02202000  0.66246000  0.08619000  1.0
  H  H295  1  0.08227000  0.66967000  0.78938000  1.0
  H  H296  1  0.18975000  0.62582000  0.77914000  1.0
  H  H297  1  0.24209000  0.61915000  0.85374000  1.0
  H  H298  1  0.18664000  0.65428000  0.93921000  1.0
  H  H299  1  0.02692000  0.70677000  0.87411000  1.0
  H  H300  1  0.89256000  0.75025000  0.10380000  1.0
  H  H301  1  0.84299000  0.77569000  0.19353000  1.0
  H  H302  1  0.05890000  0.77935000  0.13594000  1.0
  H  H303  1  0.00840000  0.80582000  0.22524000  1.0
  H  H304  1  0.90082000  0.80323000  0.25432000  1.0
  C  C1  1  0.09330000  0.03496000  0.99842000  1.0
  C  C2  1  0.98081000  0.99398000  0.14065000  1.0
  C  C3  1  0.96641000  0.13284000  0.96414000  1.0
  C  C4  1  0.85587000  0.94970000  0.01357000  1.0
  C  C5  1  0.99806000  0.96850000  0.84739000  1.0
  C  C6  1  0.98769000  0.83214000  0.02377000  1.0
  C  C7  1  0.18709000  0.48373000  0.97564000  1.0
  C  C8  1  0.05097000  0.44747000  0.14469000  1.0
  C  C9  1  0.07042000  0.61140000  0.99709000  1.0
  C  C10  1  0.92616000  0.43209000  0.99695000  1.0
  C  C11  1  0.01866000  0.49255000  0.86253000  1.0
  C  C12  1  0.04917000  0.31273000  0.99889000  1.0
  C  C13  1  0.13077000  0.02884000  0.47800000  1.0
  C  C14  1  0.99459000  0.97268000  0.63415000  1.0
  C  C15  1  0.00146000  0.14777000  0.49988000  1.0
  C  C16  1  0.88564000  0.94795000  0.47880000  1.0
  C  C17  1  0.97879000  0.02782000  0.35329000  1.0
  C  C18  1  0.02736000  0.84262000  0.47982000  1.0
  C  C19  1  0.09924000  0.49179000  0.53200000  1.0
  C  C20  1  0.95178000  0.51079000  0.66368000  1.0
  C  C21  1  0.03026000  0.62388000  0.47834000  1.0
  C  C22  1  0.83117000  0.50634000  0.51932000  1.0
  C  C23  1  0.00491000  0.47452000  0.36475000  1.0
  C  C24  1  0.91532000  0.36651000  0.54518000  1.0
  C  C25  1  0.61337000  0.99063000  0.99783000  1.0
  C  C26  1  0.46603000  0.99930000  0.16025000  1.0
  C  C27  1  0.52676000  0.13488000  0.99443000  1.0
  C  C28  1  0.33937000  0.00658000  0.01969000  1.0
  C  C29  1  0.48904000  0.00603000  0.85982000  1.0
  C  C30  1  0.43593000  0.86510000  0.02736000  1.0
  C  C31  1  0.68312000  0.51924000  0.98035000  1.0
  C  C32  1  0.53063000  0.49387000  0.14082000  1.0
  C  C33  1  0.55355000  0.64784000  0.98542000  1.0
  C  C34  1  0.43237000  0.48392000  0.97581000  1.0
  C  C35  1  0.56357000  0.50608000  0.84191000  1.0
  C  C36  1  0.52927000  0.35325000  0.00303000  1.0
  C  C37  1  0.63767000  0.01680000  0.47265000  1.0
  C  C38  1  0.50064000  0.00902000  0.64259000  1.0
  C  C39  1  0.55580000  0.16251000  0.48973000  1.0
  C  C40  1  0.35067000  0.04585000  0.52328000  1.0
  C  C41  1  0.47806000  0.06783000  0.35432000  1.0
  C  C42  1  0.43554000  0.90471000  0.49942000  1.0
  C  C43  1  0.57683000  0.56094000  0.51543000  1.0
  C  C44  1  0.46257000  0.53531000  0.65540000  1.0
  C  C45  1  0.45987000  0.68436000  0.48609000  1.0
  C  C46  1  0.34723000  0.47798000  0.52809000  1.0
  C  C47  1  0.47048000  0.53332000  0.35862000  1.0
  C  C48  1  0.49628000  0.38164000  0.51694000  1.0
  C  C49  1  0.52936000  0.32716000  0.51301000  1.0
  C  C50  1  0.55548000  0.30494000  0.46397000  1.0
  C  C51  1  0.56405000  0.25094000  0.45655000  1.0
  C  C52  1  0.55309000  0.21830000  0.49869000  1.0
  C  C53  1  0.53604000  0.24000000  0.54907000  1.0
  C  C54  1  0.52272000  0.29448000  0.55577000  1.0
  C  C55  1  0.53270000  0.20626000  0.59489000  1.0
  C  C56  1  0.47684000  0.19806000  0.62106000  1.0
  C  C57  1  0.47333000  0.16971000  0.66694000  1.0
  C  C58  1  0.52553000  0.14897000  0.68643000  1.0
  C  C59  1  0.58132000  0.15642000  0.66006000  1.0
  C  C60  1  0.58496000  0.18532000  0.61457000  1.0
  C  C61  1  0.57824000  0.33750000  0.42138000  1.0
  C  C62  1  0.54892000  0.34839000  0.37905000  1.0
  C  C63  1  0.57374000  0.37535000  0.33674000  1.0
  C  C64  1  0.62796000  0.39114000  0.33648000  1.0
  C  C65  1  0.65660000  0.38126000  0.37900000  1.0
  C  C66  1  0.63175000  0.35470000  0.42150000  1.0
  C  C67  1  0.43735000  0.74154000  0.48662000  1.0
  C  C68  1  0.44816000  0.77153000  0.44182000  1.0
  C  C69  1  0.44640000  0.82519000  0.44651000  1.0
  C  C70  1  0.43189000  0.84943000  0.49517000  1.0
  C  C71  1  0.41164000  0.82119000  0.53887000  1.0
  C  C72  1  0.41595000  0.76719000  0.53458000  1.0
  C  C73  1  0.37952000  0.84859000  0.58730000  1.0
  C  C74  1  0.31811000  0.87134000  0.59284000  1.0
  C  C75  1  0.28791000  0.89859000  0.63810000  1.0
  C  C76  1  0.31867000  0.90259000  0.67821000  1.0
  C  C77  1  0.37962000  0.87914000  0.67321000  1.0
  C  C78  1  0.41008000  0.85202000  0.62790000  1.0
  C  C79  1  0.45492000  0.74884000  0.39010000  1.0
  C  C80  1  0.40554000  0.75748000  0.36484000  1.0
  C  C81  1  0.41335000  0.74326000  0.31303000  1.0
  C  C82  1  0.47036000  0.71998000  0.28636000  1.0
  C  C83  1  0.51948000  0.70996000  0.31173000  1.0
  C  C84  1  0.51193000  0.72471000  0.36348000  1.0
  C  C85  1  0.48607000  0.52720000  0.30200000  1.0
  C  C86  1  0.44016000  0.53342000  0.27213000  1.0
  C  C87  1  0.45392000  0.51552000  0.22071000  1.0
  C  C88  1  0.51350000  0.49449000  0.19771000  1.0
  C  C89  1  0.55870000  0.48600000  0.22841000  1.0
  C  C90  1  0.54490000  0.50380000  0.27970000  1.0
  C  C91  1  0.62069000  0.45842000  0.20704000  1.0
  C  C92  1  0.63216000  0.40570000  0.19184000  1.0
  C  C93  1  0.69063000  0.38010000  0.17055000  1.0
  C  C94  1  0.73781000  0.40687000  0.16460000  1.0
  C  C95  1  0.72661000  0.45930000  0.17993000  1.0
  C  C96  1  0.66815000  0.48520000  0.20080000  1.0
  C  C97  1  0.37822000  0.56091000  0.29372000  1.0
  C  C98  1  0.36618000  0.61455000  0.30536000  1.0
  C  C99  1  0.30826000  0.63999000  0.32836000  1.0
  C  C100  1  0.26212000  0.61208000  0.33953000  1.0
  C  C101  1  0.27373000  0.55874000  0.32741000  1.0
  C  C102  1  0.33163000  0.53313000  0.30446000  1.0
  C  C103  1  0.53345000  0.51544000  0.79634000  1.0
  C  C104  1  0.50340000  0.47805000  0.78046000  1.0
  C  C105  1  0.47897000  0.48623000  0.73544000  1.0
  C  C106  1  0.48477000  0.53023000  0.70498000  1.0
  C  C107  1  0.51354000  0.56818000  0.72124000  1.0
  C  C108  1  0.53684000  0.56074000  0.76706000  1.0
  C  C109  1  0.52372000  0.61368000  0.68877000  1.0
  C  C110  1  0.57948000  0.61220000  0.65644000  1.0
  C  C111  1  0.58810000  0.65396000  0.62352000  1.0
  C  C112  1  0.54164000  0.69792000  0.62388000  1.0
  C  C113  1  0.48710000  0.70076000  0.65813000  1.0
  C  C114  1  0.47838000  0.65906000  0.69113000  1.0
  C  C115  1  0.49709000  0.42998000  0.81025000  1.0
  C  C116  1  0.54263000  0.38462000  0.80076000  1.0
  C  C117  1  0.53509000  0.33825000  0.82651000  1.0
  C  C118  1  0.48111000  0.33626000  0.85988000  1.0
  C  C119  1  0.43461000  0.38057000  0.86752000  1.0
  C  C120  1  0.44249000  0.42739000  0.84289000  1.0
  C  C121  1  0.48525000  0.05285000  0.30025000  1.0
  C  C122  1  0.50533000  0.99945000  0.28669000  1.0
  C  C123  1  0.48353000  0.97857000  0.24736000  1.0
  C  C124  1  0.45057000  0.01176000  0.21529000  1.0
  C  C125  1  0.42872000  0.06479000  0.22998000  1.0
  C  C126  1  0.44926000  0.08554000  0.27005000  1.0
  C  C127  1  0.38503000  0.09935000  0.20298000  1.0
  C  C128  1  0.32481000  0.11498000  0.22763000  1.0
  C  C129  1  0.28415000  0.15013000  0.20356000  1.0
  C  C130  1  0.30347000  0.17019000  0.15517000  1.0
  C  C131  1  0.36350000  0.15530000  0.13076000  1.0
  C  C132  1  0.40456000  0.12078000  0.15498000  1.0
  C  C133  1  0.54910000  0.96511000  0.31381000  1.0
  C  C134  1  0.53313000  0.92229000  0.34228000  1.0
  C  C135  1  0.57461000  0.89005000  0.36793000  1.0
  C  C136  1  0.63177000  0.90071000  0.36579000  1.0
  C  C137  1  0.64796000  0.94312000  0.33733000  1.0
  C  C138  1  0.60690000  0.97521000  0.31121000  1.0
  C  C139  1  0.49905000  0.01202000  0.80365000  1.0
  C  C140  1  0.45841000  0.04992000  0.78123000  1.0
  C  C141  1  0.45400000  0.04467000  0.72943000  1.0
  C  C142  1  0.49212000  0.00397000  0.69887000  1.0
  C  C143  1  0.53237000  0.96583000  0.72138000  1.0
  C  C144  1  0.53748000  0.97148000  0.77292000  1.0
  C  C145  1  0.56409000  0.91710000  0.69299000  1.0
  C  C146  1  0.61748000  0.91602000  0.65727000  1.0
  C  C147  1  0.64367000  0.87146000  0.62671000  1.0
  C  C148  1  0.61906000  0.82672000  0.63405000  1.0
  C  C149  1  0.56765000  0.82676000  0.67149000  1.0
  C  C150  1  0.53985000  0.87197000  0.70060000  1.0
  C  C151  1  0.42140000  0.09601000  0.81149000  1.0
  C  C152  1  0.44918000  0.13226000  0.83073000  1.0
  C  C153  1  0.41418000  0.17674000  0.85769000  1.0
  C  C154  1  0.35151000  0.18561000  0.86494000  1.0
  C  C155  1  0.32362000  0.14951000  0.84616000  1.0
  C  C156  1  0.35836000  0.10459000  0.81975000  1.0
  C  C157  1  0.53595000  0.29605000  0.00479000  1.0
  C  C158  1  0.50281000  0.27224000  0.04559000  1.0
  C  C159  1  0.49768000  0.22017000  0.04051000  1.0
  C  C160  1  0.52587000  0.19130000  0.99537000  1.0
  C  C161  1  0.56147000  0.21434000  0.95565000  1.0
  C  C162  1  0.56519000  0.26675000  0.96016000  1.0
  C  C163  1  0.59894000  0.18276000  0.91134000  1.0
  C  C164  1  0.65275000  0.14875000  0.91736000  1.0
  C  C165  1  0.68799000  0.11838000  0.87566000  1.0
  C  C166  1  0.66995000  0.12227000  0.82771000  1.0
  C  C167  1  0.61677000  0.15670000  0.82136000  1.0
  C  C168  1  0.58134000  0.18703000  0.86304000  1.0
  C  C169  1  0.47245000  0.30186000  0.09330000  1.0
  C  C170  1  0.50518000  0.30767000  0.13180000  1.0
  C  C171  1  0.47761000  0.33922000  0.17507000  1.0
  C  C172  1  0.41729000  0.36465000  0.18026000  1.0
  C  C173  1  0.38425000  0.35820000  0.14244000  1.0
  C  C174  1  0.41169000  0.32687000  0.09898000  1.0
  C  C175  1  0.45998000  0.80802000  0.01711000  1.0
  C  C176  1  0.47008000  0.78626000  0.96673000  1.0
  C  C177  1  0.50207000  0.73460000  0.95691000  1.0
  C  C178  1  0.52157000  0.70300000  0.99686000  1.0
  C  C179  1  0.50752000  0.72344000  0.04786000  1.0
  C  C180  1  0.47818000  0.77589000  0.05729000  1.0
  C  C181  1  0.51828000  0.68939000  0.09226000  1.0
  C  C182  1  0.47371000  0.66342000  0.11694000  1.0
  C  C183  1  0.48247000  0.63339000  0.16062000  1.0
  C  C184  1  0.53643000  0.62785000  0.17891000  1.0
  C  C185  1  0.58098000  0.65370000  0.15446000  1.0
  C  C186  1  0.57166000  0.68508000  0.11164000  1.0
  C  C187  1  0.44617000  0.81624000  0.92424000  1.0
  C  C188  1  0.38762000  0.81604000  0.91694000  1.0
  C  C189  1  0.36544000  0.84357000  0.87595000  1.0
  C  C190  1  0.40196000  0.87043000  0.84160000  1.0
  C  C191  1  0.46070000  0.86973000  0.84818000  1.0
  C  C192  1  0.48279000  0.84291000  0.88950000  1.0
  C  C193  1  0.28525000  0.47038000  0.54279000  1.0
  C  C194  1  0.26549000  0.43293000  0.51659000  1.0
  C  C195  1  0.20418000  0.43942000  0.51430000  1.0
  C  C196  1  0.16243000  0.48194000  0.53955000  1.0
  C  C197  1  0.18202000  0.51570000  0.57098000  1.0
  C  C198  1  0.24311000  0.50823000  0.57357000  1.0
  C  C199  1  0.14116000  0.56304000  0.59557000  1.0
  C  C200  1  0.14663000  0.61225000  0.57502000  1.0
  C  C201  1  0.11600000  0.65761000  0.60251000  1.0
  C  C202  1  0.08044000  0.65415000  0.65107000  1.0
  C  C203  1  0.07439000  0.60532000  0.67150000  1.0
  C  C204  1  0.10508000  0.55986000  0.64412000  1.0
  C  C205  1  0.30852000  0.38598000  0.49326000  1.0
  C  C206  1  0.32544000  0.38097000  0.43945000  1.0
  C  C207  1  0.36837000  0.33764000  0.41761000  1.0
  C  C208  1  0.39428000  0.29911000  0.44933000  1.0
  C  C209  1  0.37731000  0.30383000  0.50293000  1.0
  C  C210  1  0.33468000  0.34723000  0.52495000  1.0
  C  C211  1  0.76581000  0.52807000  0.52199000  1.0
  C  C212  1  0.72265000  0.51885000  0.56469000  1.0
  C  C213  1  0.66298000  0.52250000  0.55861000  1.0
  C  C214  1  0.64299000  0.54452000  0.51385000  1.0
  C  C215  1  0.68573000  0.55733000  0.47232000  1.0
  C  C216  1  0.74617000  0.55034000  0.47737000  1.0
  C  C217  1  0.67028000  0.57107000  0.42121000  1.0
  C  C218  1  0.66264000  0.62325000  0.40488000  1.0
  C  C219  1  0.65863000  0.63521000  0.35346000  1.0
  C  C220  1  0.66177000  0.59528000  0.31834000  1.0
  C  C221  1  0.66982000  0.54326000  0.33442000  1.0
  C  C222  1  0.67308000  0.53118000  0.38587000  1.0
  C  C223  1  0.73701000  0.51334000  0.61726000  1.0
  C  C224  1  0.75505000  0.55429000  0.63942000  1.0
  C  C225  1  0.76807000  0.54934000  0.68923000  1.0
  C  C226  1  0.76173000  0.50421000  0.71762000  1.0
  C  C227  1  0.74250000  0.46387000  0.69622000  1.0
  C  C228  1  0.73063000  0.46811000  0.64598000  1.0
  C  C229  1  0.28725000  0.04355000  0.52574000  1.0
  C  C230  1  0.24681000  0.08935000  0.51483000  1.0
  C  C231  1  0.19993000  0.08540000  0.48875000  1.0
  C  C232  1  0.19220000  0.03618000  0.47474000  1.0
  C  C233  1  0.23599000  0.99191000  0.48199000  1.0
  C  C234  1  0.27476000  0.99507000  0.51599000  1.0
  C  C235  1  0.24777000  0.94568000  0.44782000  1.0
  C  C236  1  0.20675000  0.91238000  0.45252000  1.0
  C  C237  1  0.21422000  0.87304000  0.41573000  1.0
  C  C238  1  0.26532000  0.86370000  0.37688000  1.0
  C  C239  1  0.30781000  0.89519000  0.37341000  1.0
  C  C240  1  0.29850000  0.93681000  0.40807000  1.0
  C  C241  1  0.25222000  0.14129000  0.53195000  1.0
  C  C242  1  0.25063000  0.15082000  0.58436000  1.0
  C  C243  1  0.25268000  0.20063000  0.60089000  1.0
  C  C244  1  0.25609000  0.24110000  0.56536000  1.0
  C  C245  1  0.25826000  0.23174000  0.51308000  1.0
  C  C246  1  0.25654000  0.18194000  0.49627000  1.0
  C  C247  1  0.70233000  0.99307000  0.45765000  1.0
  C  C248  1  0.74422000  0.02447000  0.43813000  1.0
  C  C249  1  0.80413000  0.00913000  0.44521000  1.0
  C  C250  1  0.82253000  0.96324000  0.47201000  1.0
  C  C251  1  0.78156000  0.93057000  0.48897000  1.0
  C  C252  1  0.72320000  0.94389000  0.47805000  1.0
  C  C253  1  0.79611000  0.88682000  0.52438000  1.0
  C  C254  1  0.79305000  0.83596000  0.51121000  1.0
  C  C255  1  0.79646000  0.79638000  0.54798000  1.0
  C  C256  1  0.80545000  0.80672000  0.59725000  1.0
  C  C257  1  0.80928000  0.85714000  0.61039000  1.0
  C  C258  1  0.80444000  0.89719000  0.57420000  1.0
  C  C259  1  0.72568000  0.07404000  0.41156000  1.0
  C  C260  1  0.71525000  0.07334000  0.36088000  1.0
  C  C261  1  0.69884000  0.12034000  0.33543000  1.0
  C  C262  1  0.69372000  0.16810000  0.36013000  1.0
  C  C263  1  0.70491000  0.16893000  0.41035000  1.0
  C  C264  1  0.72073000  0.12204000  0.43614000  1.0
  C  C265  1  0.94033000  0.31067000  0.53548000  1.0
  C  C266  1  0.92801000  0.27297000  0.57306000  1.0
  C  C267  1  0.94822000  0.21970000  0.56065000  1.0
  C  C268  1  0.97971000  0.20375000  0.51108000  1.0
  C  C269  1  0.99312000  0.24151000  0.47395000  1.0
  C  C270  1  0.97354000  0.29465000  0.48651000  1.0
  C  C271  1  0.02791000  0.22597000  0.42193000  1.0
  C  C272  1  0.09075000  0.21008000  0.41428000  1.0
  C  C273  1  0.12401000  0.19978000  0.36438000  1.0
  C  C274  1  0.09475000  0.20572000  0.32204000  1.0
  C  C275  1  0.03211000  0.22051000  0.32961000  1.0
  C  C276  1  0.99865000  0.23074000  0.37941000  1.0
  C  C277  1  0.89267000  0.28869000  0.62493000  1.0
  C  C278  1  0.92033000  0.28029000  0.66840000  1.0
  C  C279  1  0.88659000  0.29408000  0.71754000  1.0
  C  C280  1  0.82502000  0.31547000  0.72359000  1.0
  C  C281  1  0.79700000  0.32272000  0.68054000  1.0
  C  C282  1  0.83069000  0.30962000  0.63125000  1.0
  C  C283  1  0.03018000  0.67943000  0.46935000  1.0
  C  C284  1  0.97539000  0.71649000  0.47508000  1.0
  C  C285  1  0.97499000  0.76941000  0.48239000  1.0
  C  C286  1  0.02880000  0.78626000  0.48178000  1.0
  C  C287  1  0.08405000  0.74927000  0.47487000  1.0
  C  C288  1  0.08398000  0.69625000  0.46811000  1.0
  C  C289  1  0.14191000  0.76455000  0.47797000  1.0
  C  C290  1  0.19477000  0.74181000  0.44370000  1.0
  C  C291  1  0.25096000  0.74610000  0.45339000  1.0
  C  C292  1  0.25485000  0.77532000  0.49563000  1.0
  C  C293  1  0.20254000  0.80004000  0.52849000  1.0
  C  C294  1  0.14625000  0.79487000  0.51972000  1.0
  C  C295  1  0.91853000  0.70062000  0.47140000  1.0
  C  C296  1  0.89069000  0.71578000  0.42881000  1.0
  C  C297  1  0.83741000  0.70025000  0.42486000  1.0
  C  C298  1  0.81124000  0.67022000  0.46368000  1.0
  C  C299  1  0.83805000  0.65599000  0.50676000  1.0
  C  C300  1  0.89110000  0.67185000  0.51110000  1.0
  C  C301  1  0.03514000  0.45380000  0.20127000  1.0
  C  C302  1  0.03895000  0.40990000  0.23393000  1.0
  C  C303  1  0.03310000  0.41691000  0.28738000  1.0
  C  C304  1  0.02539000  0.46704000  0.30860000  1.0
  C  C305  1  0.02470000  0.51059000  0.27559000  1.0
  C  C306  1  0.02794000  0.50383000  0.22250000  1.0
  C  C307  1  0.02158000  0.56335000  0.29598000  1.0
  C  C308  1  0.96909000  0.60210000  0.29776000  1.0
  C  C309  1  0.96749000  0.65288000  0.31401000  1.0
  C  C310  1  0.01784000  0.66497000  0.32932000  1.0
  C  C311  1  0.07015000  0.62646000  0.32778000  1.0
  C  C312  1  0.07234000  0.57586000  0.31066000  1.0
  C  C313  1  0.05119000  0.35635000  0.21262000  1.0
  C  C314  1  0.00336000  0.33237000  0.20852000  1.0
  C  C315  1  0.01484000  0.27986000  0.19337000  1.0
  C  C316  1  0.07395000  0.25108000  0.18268000  1.0
  C  C317  1  0.12181000  0.27520000  0.18542000  1.0
  C  C318  1  0.11056000  0.32773000  0.20046000  1.0
  C  C319  1  0.00687000  0.50259000  0.80978000  1.0
  C  C320  1  0.95345000  0.53699000  0.80205000  1.0
  C  C321  1  0.93215000  0.53462000  0.75594000  1.0
  C  C322  1  0.96431000  0.49981000  0.71625000  1.0
  C  C323  1  0.01689000  0.46396000  0.72439000  1.0
  C  C324  1  0.03833000  0.46656000  0.77068000  1.0
  C  C325  1  0.04925000  0.42285000  0.68536000  1.0
  C  C326  1  0.01863000  0.38767000  0.66798000  1.0
  C  C327  1  0.04890000  0.35018000  0.63014000  1.0
  C  C328  1  0.11007000  0.34646000  0.61073000  1.0
  C  C329  1  0.14163000  0.37907000  0.63020000  1.0
  C  C330  1  0.11171000  0.41651000  0.66807000  1.0
  C  C331  1  0.91906000  0.57582000  0.84204000  1.0
  C  C332  1  0.94380000  0.61755000  0.85428000  1.0
  C  C333  1  0.90820000  0.65841000  0.88624000  1.0
  C  C334  1  0.84780000  0.65807000  0.90564000  1.0
  C  C335  1  0.82314000  0.61639000  0.89397000  1.0
  C  C336  1  0.85883000  0.57490000  0.86298000  1.0
  C  C337  1  0.37046000  0.48301000  0.97103000  1.0
  C  C338  1  0.33557000  0.52400000  0.94681000  1.0
  C  C339  1  0.27690000  0.52096000  0.94201000  1.0
  C  C340  1  0.25283000  0.47778000  0.96161000  1.0
  C  C341  1  0.29042000  0.43462000  0.98068000  1.0
  C  C342  1  0.34825000  0.43807000  0.98626000  1.0
  C  C343  1  0.26733000  0.38753000  0.99941000  1.0
  C  C344  1  0.24627000  0.35832000  0.96575000  1.0
  C  C345  1  0.21481000  0.31972000  0.98518000  1.0
  C  C346  1  0.20578000  0.30903000  0.03800000  1.0
  C  C347  1  0.22934000  0.33620000  0.07129000  1.0
  C  C348  1  0.25979000  0.37560000  0.05220000  1.0
  C  C349  1  0.35910000  0.57102000  0.92835000  1.0
  C  C350  1  0.37353000  0.58016000  0.87524000  1.0
  C  C351  1  0.39777000  0.62362000  0.85787000  1.0
  C  C352  1  0.40692000  0.65846000  0.89333000  1.0
  C  C353  1  0.39187000  0.64991000  0.94626000  1.0
  C  C354  1  0.36799000  0.60631000  0.96384000  1.0
  C  C355  1  0.86430000  0.45694000  0.98937000  1.0
  C  C356  1  0.83889000  0.51029000  0.00161000  1.0
  C  C357  1  0.78272000  0.53319000  0.98917000  1.0
  C  C358  1  0.74926000  0.50308000  0.96817000  1.0
  C  C359  1  0.77630000  0.45086000  0.95299000  1.0
  C  C360  1  0.83308000  0.42824000  0.96394000  1.0
  C  C361  1  0.74435000  0.41839000  0.92811000  1.0
  C  C362  1  0.73751000  0.42724000  0.87663000  1.0
  C  C363  1  0.70869000  0.39536000  0.85275000  1.0
  C  C364  1  0.68487000  0.35581000  0.88064000  1.0
  C  C365  1  0.69319000  0.34589000  0.93146000  1.0
  C  C366  1  0.72402000  0.37635000  0.95485000  1.0
  C  C367  1  0.86793000  0.54197000  0.03042000  1.0
  C  C368  1  0.89940000  0.57810000  0.00418000  1.0
  C  C369  1  0.91400000  0.61704000  0.03165000  1.0
  C  C370  1  0.90125000  0.61764000  0.08557000  1.0
  C  C371  1  0.87268000  0.57996000  0.11202000  1.0
  C  C372  1  0.85521000  0.54264000  0.08457000  1.0
  C  C373  1  0.97905000  0.02980000  0.29757000  1.0
  C  C374  1  0.03380000  0.01858000  0.26201000  1.0
  C  C375  1  0.03436000  0.00226000  0.21183000  1.0
  C  C376  1  0.98085000  0.99713000  0.19630000  1.0
  C  C377  1  0.92629000  0.00695000  0.23253000  1.0
  C  C378  1  0.92540000  0.02718000  0.28128000  1.0
  C  C379  1  0.87127000  0.99158000  0.22214000  1.0
  C  C380  1  0.81613000  0.02792000  0.23027000  1.0
  C  C381  1  0.76309000  0.01228000  0.22570000  1.0
  C  C382  1  0.76445000  0.96025000  0.21399000  1.0
  C  C383  1  0.81875000  0.92360000  0.20735000  1.0
  C  C384  1  0.87185000  0.93887000  0.21247000  1.0
  C  C385  1  0.09099000  0.02219000  0.27745000  1.0
  C  C386  1  0.11275000  0.06859000  0.26946000  1.0
  C  C387  1  0.16394000  0.07355000  0.28840000  1.0
  C  C388  1  0.19318000  0.03255000  0.31558000  1.0
  C  C389  1  0.17248000  0.98588000  0.32244000  1.0
  C  C390  1  0.12184000  0.98040000  0.30305000  1.0
  C  C391  1  0.98011000  0.97055000  0.69046000  1.0
  C  C392  1  0.99669000  0.92295000  0.71556000  1.0
  C  C393  1  0.01111000  0.92313000  0.76479000  1.0
  C  C394  1  0.00499000  0.97037000  0.79109000  1.0
  C  C395  1  0.98640000  0.01810000  0.76647000  1.0
  C  C396  1  0.97089000  0.01761000  0.71766000  1.0
  C  C397  1  0.98572000  0.06886000  0.79007000  1.0
  C  C398  1  0.04004000  0.08248000  0.79499000  1.0
  C  C399  1  0.04026000  0.13311000  0.81054000  1.0
  C  C400  1  0.98682000  0.17076000  0.81937000  1.0
  C  C401  1  0.93282000  0.15755000  0.81387000  1.0
  C  C402  1  0.93191000  0.10648000  0.80050000  1.0
  C  C403  1  0.00238000  0.87272000  0.68932000  1.0
  C  C404  1  0.05920000  0.84029000  0.67448000  1.0
  C  C405  1  0.06549000  0.79553000  0.64485000  1.0
  C  C406  1  0.01546000  0.78388000  0.62850000  1.0
  C  C407  1  0.95841000  0.81457000  0.64536000  1.0
  C  C408  1  0.95160000  0.85875000  0.67617000  1.0
  C  C409  1  0.27349000  0.02366000  0.02198000  1.0
  C  C410  1  0.23050000  0.00761000  0.06139000  1.0
  C  C411  1  0.17119000  0.01180000  0.05335000  1.0
  C  C412  1  0.15615000  0.02685000  0.00505000  1.0
  C  C413  1  0.19990000  0.04054000  0.96562000  1.0
  C  C414  1  0.25441000  0.04640000  0.97729000  1.0
  C  C415  1  0.19452000  0.03798000  0.91081000  1.0
  C  C416  1  0.19150000  0.08319000  0.88060000  1.0
  C  C417  1  0.19691000  0.07942000  0.82711000  1.0
  C  C418  1  0.20440000  0.03067000  0.80362000  1.0
  C  C419  1  0.20635000  0.98559000  0.83360000  1.0
  C  C420  1  0.20200000  0.98906000  0.88700000  1.0
  C  C421  1  0.24649000  0.98635000  0.11058000  1.0
  C  C422  1  0.25744000  0.01940000  0.14709000  1.0
  C  C423  1  0.27460000  0.99861000  0.19281000  1.0
  C  C424  1  0.27931000  0.94525000  0.20287000  1.0
  C  C425  1  0.26745000  0.91239000  0.16699000  1.0
  C  C426  1  0.25113000  0.93279000  0.12087000  1.0
  C  C427  1  0.79071000  0.95883000  0.02483000  1.0
  C  C428  1  0.75760000  0.01074000  0.02544000  1.0
  C  C429  1  0.70331000  0.02101000  0.00710000  1.0
  C  C430  1  0.67810000  0.98003000  0.99443000  1.0
  C  C431  1  0.70901000  0.92800000  0.99792000  1.0
  C  C432  1  0.76408000  0.91766000  0.01483000  1.0
  C  C433  1  0.68325000  0.88409000  0.98458000  1.0
  C  C434  1  0.68110000  0.87461000  0.93296000  1.0
  C  C435  1  0.65514000  0.83401000  0.92054000  1.0
  C  C436  1  0.63118000  0.80288000  0.95950000  1.0
  C  C437  1  0.63248000  0.81265000  0.01104000  1.0
  C  C438  1  0.65861000  0.85308000  0.02365000  1.0
  C  C439  1  0.77865000  0.05455000  0.04640000  1.0
  C  C440  1  0.77027000  0.10404000  0.02305000  1.0
  C  C441  1  0.77942000  0.14731000  0.04793000  1.0
  C  C442  1  0.80522000  0.14043000  0.09206000  1.0
  C  C443  1  0.81843000  0.09071000  0.11319000  1.0
  C  C444  1  0.80214000  0.04838000  0.09227000  1.0
  C  C445  1  0.99000000  0.18099000  0.95696000  1.0
  C  C446  1  0.95011000  0.22980000  0.96612000  1.0
  C  C447  1  0.96640000  0.26873000  0.99272000  1.0
  C  C448  1  0.02639000  0.26431000  0.99857000  1.0
  C  C449  1  0.06752000  0.21656000  0.98530000  1.0
  C  C450  1  0.05038000  0.17743000  0.95997000  1.0
  C  C451  1  0.12394000  0.20353000  0.00575000  1.0
  C  C452  1  0.17941000  0.19863000  0.97207000  1.0
  C  C453  1  0.23287000  0.17813000  0.98975000  1.0
  C  C454  1  0.23117000  0.16162000  0.04076000  1.0
  C  C455  1  0.17605000  0.16594000  0.07435000  1.0
  C  C456  1  0.12249000  0.18687000  0.05697000  1.0
  C  C457  1  0.90063000  0.24481000  0.93647000  1.0
  C  C458  1  0.90183000  0.28550000  0.90042000  1.0
  C  C459  1  0.85813000  0.29694000  0.86930000  1.0
  C  C460  1  0.81354000  0.26756000  0.87347000  1.0
  C  C461  1  0.81050000  0.22866000  0.91074000  1.0
  C  C462  1  0.85395000  0.21719000  0.94211000  1.0
  C  C463  1  0.05602000  0.66833000  0.00490000  1.0
  C  C464  1  0.06891000  0.70247000  0.96391000  1.0
  C  C465  1  0.05027000  0.75662000  0.97188000  1.0
  C  C466  1  0.01909000  0.77702000  0.02024000  1.0
  C  C467  1  0.01024000  0.74289000  0.06207000  1.0
  C  C468  1  0.02946000  0.68878000  0.05419000  1.0
  C  C469  1  0.97913000  0.76307000  0.11376000  1.0
  C  C470  1  0.91802000  0.76241000  0.13013000  1.0
  C  C471  1  0.89000000  0.77662000  0.18083000  1.0
  C  C472  1  0.92264000  0.79207000  0.21513000  1.0
  C  C473  1  0.98329000  0.79358000  0.19873000  1.0
  C  C474  1  0.01165000  0.77891000  0.14819000  1.0
  C  C475  1  0.10252000  0.68196000  0.91280000  1.0
  C  C476  1  0.07353000  0.68691000  0.87011000  1.0
  C  C477  1  0.10490000  0.66633000  0.82212000  1.0
  C  C478  1  0.16551000  0.64163000  0.81634000  1.0
  C  C479  1  0.19496000  0.63767000  0.85847000  1.0
  C  C480  1  0.16361000  0.65770000  0.90668000  1.0
  O  O1  1  0.95201000  0.01879000  0.02256000  1.0
  O  O2  1  0.95821000  0.95787000  0.12215000  1.0
  O  O3  1  0.01223000  0.02177000  0.10900000  1.0
  O  O4  1  0.88746000  0.93456000  0.04989000  1.0
  O  O5  1  0.94697000  0.84868000  0.99454000  1.0
  O  O6  1  0.05557000  0.07646000  0.01970000  1.0
  O  O7  1  0.98791000  0.09413000  0.93012000  1.0
  O  O8  1  0.00678000  0.93839000  0.96759000  1.0
  O  O9  1  0.99797000  0.86428000  0.05719000  1.0
  O  O10  1  0.02577000  0.99661000  0.87173000  1.0
  O  O11  1  0.95310000  0.94928000  0.87266000  1.0
  O  O12  1  0.88216000  0.95197000  0.96579000  1.0
  O  O13  1  0.08030000  0.01021000  0.96076000  1.0
  O  O14  1  0.93497000  0.12481000  0.00951000  1.0
  O  O15  1  0.03836000  0.50113000  0.03543000  1.0
  O  O16  1  0.01828000  0.42571000  0.11898000  1.0
  O  O17  1  0.10038000  0.46094000  0.12048000  1.0
  O  O18  1  0.94781000  0.44546000  0.03603000  1.0
  O  O19  1  0.07500000  0.32912000  0.95444000  1.0
  O  O20  1  0.16429000  0.47062000  0.02189000  1.0
  O  O21  1  0.04944000  0.59058000  0.96100000  1.0
  O  O22  1  0.07164000  0.43196000  0.96393000  1.0
  O  O23  1  0.03168000  0.34430000  0.04006000  1.0
  O  O24  1  0.05776000  0.51409000  0.88041000  1.0
  O  O25  1  0.98929000  0.46179000  0.89192000  1.0
  O  O26  1  0.95597000  0.39162000  0.96850000  1.0
  O  O27  1  0.15161000  0.50611000  0.94398000  1.0
  O  O28  1  0.11246000  0.58284000  0.01994000  1.0
  O  O29  1  0.98156000  0.03221000  0.52804000  1.0
  O  O30  1  0.96665000  0.94992000  0.60491000  1.0
  O  O31  1  0.04183000  0.99106000  0.61339000  1.0
  O  O32  1  0.90309000  0.96717000  0.51744000  1.0
  O  O33  1  0.04757000  0.86286000  0.43526000  1.0
  O  O34  1  0.10579000  0.01016000  0.52052000  1.0
  O  O35  1  0.98690000  0.12674000  0.46033000  1.0
  O  O36  1  0.02893000  0.96752000  0.45335000  1.0
  O  O37  1  0.99729000  0.87260000  0.52011000  1.0
  O  O38  1  0.01161000  0.05341000  0.37456000  1.0
  O  O39  1  0.95085000  0.99497000  0.38097000  1.0
  O  O40  1  0.92291000  0.91222000  0.44855000  1.0
  O  O41  1  0.09730000  0.05110000  0.44492000  1.0
  O  O42  1  0.04385000  0.12129000  0.52366000  1.0
  O  O43  1  0.95182000  0.54041000  0.53822000  1.0
  O  O44  1  0.92539000  0.47955000  0.64199000  1.0
  O  O45  1  0.94954000  0.55847000  0.64676000  1.0
  O  O46  1  0.85228000  0.48624000  0.56038000  1.0
  O  O47  1  0.88477000  0.39318000  0.51204000  1.0
  O  O48  1  0.05641000  0.50282000  0.57250000  1.0
  O  O49  1  0.01394000  0.59583000  0.44534000  1.0
  O  O50  1  0.98390000  0.45132000  0.48915000  1.0
  O  O51  1  0.93398000  0.39157000  0.57944000  1.0
  O  O52  1  0.03646000  0.49565000  0.39202000  1.0
  O  O53  1  0.94934000  0.47116000  0.38424000  1.0
  O  O54  1  0.86639000  0.50120000  0.47419000  1.0
  O  O55  1  0.08723000  0.50118000  0.48475000  1.0
  O  O56  1  0.05192000  0.60118000  0.51754000  1.0
  O  O57  1  0.46383000  0.04082000  0.04339000  1.0
  O  O58  1  0.43237000  0.97671000  0.13687000  1.0
  O  O59  1  0.51870000  0.00404000  0.13628000  1.0
  O  O60  1  0.36244000  0.98440000  0.05882000  1.0
  O  O61  1  0.40041000  0.89293000  0.99849000  1.0
  O  O62  1  0.58129000  0.98853000  0.04296000  1.0
  O  O63  1  0.50368000  0.11495000  0.95937000  1.0
  O  O64  1  0.49009000  0.96175000  0.98009000  1.0
  O  O65  1  0.44995000  0.88822000  0.06561000  1.0
  O  O66  1  0.51871000  0.02922000  0.88696000  1.0
  O  O67  1  0.43914000  0.99240000  0.88165000  1.0
  O  O68  1  0.37414000  0.00803000  0.97550000  1.0
  O  O69  1  0.58902000  0.01806000  0.96205000  1.0
  O  O70  1  0.56101000  0.10361000  0.02191000  1.0
  O  O71  1  0.52953000  0.53745000  0.02504000  1.0
  O  O72  1  0.50518000  0.46754000  0.11238000  1.0
  O  O73  1  0.57928000  0.51070000  0.12011000  1.0
  O  O74  1  0.45017000  0.46773000  0.01984000  1.0
  O  O75  1  0.50227000  0.37899000  0.96793000  1.0
  O  O76  1  0.65644000  0.51449000  0.02787000  1.0
  O  O77  1  0.54284000  0.62209000  0.94710000  1.0
  O  O78  1  0.57998000  0.46212000  0.96015000  1.0
  O  O79  1  0.54455000  0.37888000  0.03901000  1.0
  O  O80  1  0.56950000  0.54531000  0.86943000  1.0
  O  O81  1  0.58625000  0.45858000  0.85368000  1.0
  O  O82  1  0.47182000  0.48473000  0.93311000  1.0
  O  O83  1  0.65214000  0.54183000  0.94536000  1.0
  O  O84  1  0.59481000  0.62512000  0.01207000  1.0
  O  O85  1  0.49053000  0.06799000  0.53210000  1.0
  O  O86  1  0.46643000  0.98939000  0.61711000  1.0
  O  O87  1  0.55195000  0.01834000  0.61867000  1.0
  O  O88  1  0.38169000  0.01777000  0.55488000  1.0
  O  O89  1  0.39983000  0.94023000  0.47641000  1.0
  O  O90  1  0.61143000  0.01156000  0.51995000  1.0
  O  O91  1  0.53035000  0.14843000  0.45335000  1.0
  O  O92  1  0.49809000  0.00065000  0.46010000  1.0
  O  O93  1  0.46142000  0.91882000  0.53585000  1.0
  O  O94  1  0.52368000  0.07477000  0.37440000  1.0
  O  O95  1  0.42868000  0.06336000  0.38461000  1.0
  O  O96  1  0.37922000  0.05777000  0.47957000  1.0
  O  O97  1  0.60809000  0.04562000  0.44015000  1.0
  O  O98  1  0.59165000  0.12696000  0.51212000  1.0
  O  O99  1  0.43068000  0.56878000  0.53742000  1.0
  O  O100  1  0.46315000  0.49289000  0.62917000  1.0
  O  O101  1  0.43214000  0.58044000  0.64333000  1.0
  O  O102  1  0.38255000  0.47264000  0.56253000  1.0
  O  O103  1  0.45151000  0.39528000  0.49140000  1.0
  O  O104  1  0.54122000  0.56426000  0.56093000  1.0
  O  O105  1  0.44603000  0.65370000  0.45368000  1.0
  O  O106  1  0.49130000  0.49536000  0.47324000  1.0
  O  O107  1  0.50245000  0.41278000  0.55330000  1.0
  O  O108  1  0.49546000  0.56370000  0.38326000  1.0
  O  O109  1  0.42865000  0.51051000  0.38405000  1.0
  O  O110  1  0.36582000  0.49211000  0.48111000  1.0
  O  O111  1  0.55484000  0.57723000  0.47301000  1.0
  O  O112  1  0.49223000  0.66383000  0.52013000  1.0
