# generated using pymatgen
data_H23C31N8
_symmetry_space_group_name_H-M   'P 1'
_cell_length_a   35.03040000
_cell_length_b   50.00960000
_cell_length_c   91.86170000
_cell_angle_alpha   90.00000000
_cell_angle_beta   90.00000000
_cell_angle_gamma   90.07520000
_symmetry_Int_Tables_number   1
_chemical_formula_structural   H23C31N8
_chemical_formula_sum   'H1104 C1488 N384'
_cell_volume   160928.35851452
_cell_formula_units_Z   48
loop_
 _symmetry_equiv_pos_site_id
 _symmetry_equiv_pos_as_xyz
  1  'x, y, z'
loop_
 _atom_site_type_symbol
 _atom_site_label
 _atom_site_symmetry_multiplicity
 _atom_site_fract_x
 _atom_site_fract_y
 _atom_site_fract_z
 _atom_site_occupancy
  H  49  1  0.71728100  0.75212700  0.78275400  1
  H  50  1  0.75655400  0.75112400  0.80414100  1
  H  51  1  0.61853400  0.74855500  0.80902000  1
  H  52  1  0.65779400  0.74762400  0.83041700  1
  H  53  1  0.72789400  0.69570800  0.82142300  1
  H  54  1  0.75669100  0.66006900  0.83772000  1
  H  55  1  0.76948500  0.73227900  0.85788200  1
  H  56  1  0.79178400  0.76501900  0.87373600  1
  H  57  1  0.72098800  0.80325600  0.82254600  1
  H  58  1  0.74981300  0.83890400  0.83901400  1
  H  59  1  0.84940600  0.84455400  0.85535000  1
  H  60  1  0.86104600  0.89181000  0.85593400  1
  H  61  1  0.73929900  0.85698900  0.87282000  1
  H  62  1  0.75094300  0.90427500  0.87338800  1
  H  63  1  0.82296100  0.83739700  0.89054800  1
  H  64  1  0.83982000  0.80168400  0.90901600  1
  H  65  1  0.81437200  0.65855900  0.89198500  1
  H  66  1  0.83098400  0.69412500  0.91071800  1
  H  67  1  0.77544200  0.75891800  0.92251600  1
  H  68  1  0.78954000  0.76027400  0.94799400  1
  H  69  1  0.89015600  0.73883100  0.91354700  1
  H  70  1  0.90420800  0.73995200  0.93921000  1
  H  71  1  0.85212300  0.65375200  0.85761300  1
  H  72  1  0.86424300  0.60656600  0.85810900  1
  H  73  1  0.74998000  0.59247200  0.87059000  1
  H  74  1  0.73781600  0.63974200  0.87017000  1
  H  127  1  0.71687100  0.74599200  0.21553900  1
  H  128  1  0.75604200  0.74698600  0.19412500  1
  H  129  1  0.61801200  0.74930100  0.18933600  1
  H  130  1  0.65717500  0.75021400  0.16791200  1
  H  131  1  0.72646900  0.80234200  0.17665700  1
  H  132  1  0.75553900  0.83799700  0.16041100  1
  H  133  1  0.76957000  0.76569500  0.14049600  1
  H  134  1  0.79398000  0.73302600  0.12504100  1
  H  135  1  0.72080100  0.69474000  0.17584600  1
  H  136  1  0.74993300  0.65911700  0.15947900  1
  H  137  1  0.84944000  0.65353400  0.14292800  1
  H  138  1  0.86102000  0.60629500  0.14236300  1
  H  139  1  0.73897200  0.64088900  0.12579300  1
  H  140  1  0.75056600  0.59361800  0.12523700  1
  H  141  1  0.82115000  0.66041600  0.10760400  1
  H  142  1  0.83876500  0.69613400  0.08922400  1
  H  143  1  0.81703200  0.83940800  0.10672900  1
  H  144  1  0.83452100  0.80380000  0.08814500  1
  H  145  1  0.77696200  0.74206800  0.07570400  1
  H  146  1  0.79196200  0.74145200  0.05033100  1
  H  147  1  0.89298300  0.75619600  0.08561200  1
  H  148  1  0.90793000  0.75602000  0.06000400  1
  H  149  1  0.85187800  0.84438000  0.14123500  1
  H  150  1  0.86407100  0.89158600  0.14076300  1
  H  151  1  0.75050600  0.90546200  0.12738600  1
  H  152  1  0.73827900  0.85817000  0.12777200  1
  H  205  1  0.95017600  0.25126900  0.21603700  1
  H  206  1  0.91093700  0.25049300  0.19464000  1
  H  207  1  0.04898300  0.25176800  0.18973400  1
  H  208  1  0.00974500  0.25109400  0.16832900  1
  H  209  1  0.94429800  0.19684200  0.17656300  1
  H  210  1  0.91625200  0.16087900  0.16026600  1
  H  211  1  0.89570700  0.23331100  0.14136300  1
  H  212  1  0.87263300  0.26552500  0.12549400  1
  H  213  1  0.94297200  0.30452800  0.17678900  1
  H  214  1  0.91381400  0.33987300  0.16026600  1
  H  215  1  0.81497200  0.34481900  0.14042500  1
  H  216  1  0.80329200  0.39205100  0.13976100  1
  H  217  1  0.92981700  0.35824600  0.12838700  1
  H  218  1  0.91813400  0.40556400  0.12784800  1
  H  219  1  0.84917800  0.33798800  0.10712000  1
  H  220  1  0.83257900  0.30204700  0.08875700  1
  H  221  1  0.85013500  0.15895300  0.10745400  1
  H  222  1  0.83330400  0.19427700  0.08863600  1
  H  223  1  0.89322600  0.25706400  0.07614800  1
  H  224  1  0.87946500  0.25824700  0.05064000  1
  H  225  1  0.77727500  0.24055800  0.08507100  1
  H  226  1  0.76355800  0.24146500  0.05937700  1
  H  227  1  0.82213700  0.15307000  0.14571300  1
  H  228  1  0.81165100  0.10567400  0.14577600  1
  H  229  1  0.91753200  0.09431300  0.12462800  1
  H  230  1  0.92795500  0.14164200  0.12457400  1
  H  283  1  0.95048800  0.24705200  0.78271900  1
  H  284  1  0.91139000  0.24785000  0.80414900  1
  H  285  1  0.04944800  0.24653600  0.80893300  1
  H  286  1  0.01033900  0.24722400  0.83037300  1
  H  287  1  0.94574400  0.30150400  0.82242300  1
  H  288  1  0.91740300  0.33739900  0.83865700  1
  H  289  1  0.89541900  0.26486000  0.85724200  1
  H  290  1  0.87101700  0.23257400  0.87290900  1
  H  291  1  0.94291400  0.19383200  0.82183500  1
  H  292  1  0.91357600  0.15842300  0.83830100  1
  H  293  1  0.81509800  0.15321000  0.85843100  1
  H  294  1  0.80344800  0.10595400  0.85906300  1
  H  295  1  0.93020500  0.13996400  0.87009200  1
  H  296  1  0.91854600  0.09261600  0.87060500  1
  H  297  1  0.85080300  0.16000300  0.89174900  1
  H  298  1  0.83344700  0.19592000  0.91002000  1
  H  299  1  0.84775500  0.33904000  0.89083100  1
  H  300  1  0.83018600  0.30363900  0.90954100  1
  H  301  1  0.89174100  0.24407500  0.92264900  1
  H  302  1  0.87715500  0.24350400  0.94804600  1
  H  303  1  0.77486300  0.25433900  0.91290800  1
  H  304  1  0.76029800  0.25426800  0.93854500  1
  H  305  1  0.82264500  0.34503800  0.85245900  1
  H  306  1  0.81218400  0.39241700  0.85237900  1
  H  307  1  0.91675900  0.40383100  0.87447300  1
  H  308  1  0.92716100  0.35652600  0.87453900  1
  H  361  1  0.21559500  0.26295300  0.28281800  1
  H  362  1  0.25487000  0.26310600  0.30425600  1
  H  363  1  0.12302700  0.23355400  0.30749600  1
  H  364  1  0.16203900  0.23399000  0.32895200  1
  H  365  1  0.23422500  0.19619100  0.32000600  1
  H  366  1  0.26243200  0.16049600  0.33642100  1
  H  367  1  0.26736200  0.23184500  0.35796400  1
  H  368  1  0.29005300  0.26472800  0.37391100  1
  H  369  1  0.21790700  0.30342800  0.32324800  1
  H  370  1  0.24653700  0.33882100  0.33986400  1
  H  371  1  0.34867400  0.34420600  0.35468100  1
  H  372  1  0.36049800  0.39143600  0.35529600  1
  H  373  1  0.24012500  0.35656400  0.37353000  1
  H  374  1  0.25194100  0.40384200  0.37411000  1
  H  375  1  0.32537100  0.33664400  0.39011200  1
  H  376  1  0.34186000  0.30083000  0.40858000  1
  H  377  1  0.31187200  0.15808200  0.39193000  1
  H  378  1  0.32800600  0.19351800  0.41081400  1
  H  379  1  0.27515200  0.25948300  0.42234700  1
  H  380  1  0.28912300  0.26086600  0.44783400  1
  H  381  1  0.38911900  0.23718800  0.41356600  1
  H  382  1  0.40304700  0.23837100  0.43923400  1
  H  383  1  0.35331300  0.15364500  0.35801800  1
  H  384  1  0.36543400  0.10645900  0.35851300  1
  H  385  1  0.25008500  0.09218000  0.36936800  1
  H  386  1  0.23790400  0.13943600  0.36891800  1
  H  439  1  0.21514400  0.23483000  0.71551500  1
  H  440  1  0.25427300  0.23449500  0.69404500  1
  H  441  1  0.12234200  0.26357200  0.69080100  1
  H  442  1  0.16121900  0.26294900  0.66931100  1
  H  443  1  0.23277400  0.30116200  0.67808400  1
  H  444  1  0.26131000  0.33683100  0.66171600  1
  H  445  1  0.26735900  0.26532300  0.64038100  1
  H  446  1  0.29201700  0.23253400  0.62484700  1
  H  447  1  0.21759600  0.19380300  0.67515800  1
  H  448  1  0.24650000  0.15840600  0.65865200  1
  H  449  1  0.34855700  0.15308300  0.64363700  1
  H  450  1  0.36034700  0.10587500  0.64304900  1
  H  451  1  0.23965700  0.14047700  0.62509700  1
  H  452  1  0.25144700  0.09321700  0.62453500  1
  H  453  1  0.32347600  0.16026600  0.60805200  1
  H  454  1  0.34072900  0.19605300  0.58965700  1
  H  455  1  0.31449500  0.33905400  0.60670400  1
  H  456  1  0.33142600  0.30355800  0.58796700  1
  H  457  1  0.27646800  0.24058800  0.57581800  1
  H  458  1  0.29137500  0.23993200  0.55043500  1
  H  459  1  0.39194800  0.25702500  0.58558800  1
  H  460  1  0.40678900  0.25677400  0.55997200  1
  H  461  1  0.35315300  0.34365700  0.64078100  1
  H  462  1  0.36536500  0.39086300  0.64031800  1
  H  463  1  0.25061000  0.40496500  0.62860000  1
  H  464  1  0.23834400  0.35769200  0.62900700  1
  H  517  1  0.45213600  0.76237800  0.71597200  1
  H  518  1  0.41283200  0.76268300  0.69453400  1
  H  519  1  0.54598800  0.73661700  0.69085600  1
  H  520  1  0.50695700  0.73724500  0.66940600  1
  H  521  1  0.43774800  0.69715700  0.67813000  1
  H  522  1  0.41029800  0.66115000  0.66173000  1
  H  523  1  0.39943600  0.73287300  0.64092000  1
  H  524  1  0.37485700  0.76514200  0.62527900  1
  H  525  1  0.44706600  0.80480800  0.67594900  1
  H  526  1  0.41798200  0.83989900  0.65932500  1
  H  527  1  0.31607100  0.84450400  0.64112100  1
  H  528  1  0.30428700  0.89172200  0.64043400  1
  H  529  1  0.42972600  0.85781400  0.62750900  1
  H  530  1  0.41796200  0.90513700  0.62697400  1
  H  531  1  0.34694400  0.83730400  0.60747200  1
  H  532  1  0.33064700  0.80126700  0.58912700  1
  H  533  1  0.35368100  0.65838700  0.60726500  1
  H  534  1  0.33710100  0.69360900  0.58834700  1
  H  535  1  0.39391200  0.75765100  0.57623300  1
  H  536  1  0.38020900  0.75889400  0.55072100  1
  H  537  1  0.27858600  0.73890100  0.58502200  1
  H  538  1  0.26492700  0.73990800  0.55932700  1
  H  539  1  0.32106100  0.65296000  0.64515300  1
  H  540  1  0.31053000  0.60556500  0.64526900  1
  H  541  1  0.41861900  0.59383100  0.62589300  1
  H  542  1  0.42909800  0.64117200  0.62578600  1
  H  595  1  0.45245500  0.73542300  0.28274300  1
  H  596  1  0.41331800  0.73495700  0.30422000  1
  H  597  1  0.54658800  0.76100300  0.30780800  1
  H  598  1  0.50771300  0.76020700  0.32930200  1
  H  599  1  0.43899800  0.80038700  0.32075100  1
  H  600  1  0.41120200  0.83630900  0.33707700  1
  H  601  1  0.39944100  0.76449300  0.35774200  1
  H  602  1  0.37336400  0.73218500  0.37311600  1
  H  603  1  0.44725100  0.69271400  0.32269600  1
  H  604  1  0.41796200  0.65756200  0.33925500  1
  H  605  1  0.31628800  0.65269600  0.35766500  1
  H  606  1  0.30453500  0.60545600  0.35833400  1
  H  607  1  0.43016000  0.63958300  0.37101000  1
  H  608  1  0.41842200  0.59223100  0.37153100  1
  H  609  1  0.34849400  0.65981600  0.39137500  1
  H  610  1  0.33142000  0.69582500  0.40962500  1
  H  611  1  0.35140900  0.83883100  0.39105500  1
  H  612  1  0.33410100  0.80353900  0.40986600  1
  H  613  1  0.39253300  0.74269900  0.42258200  1
  H  614  1  0.37798000  0.74211500  0.44798600  1
  H  615  1  0.27606000  0.75519300  0.41291800  1
  H  616  1  0.26154100  0.75506600  0.43855900  1
  H  617  1  0.32142300  0.84432100  0.35304300  1
  H  618  1  0.31091800  0.89170100  0.35290700  1
  H  619  1  0.41796500  0.90352100  0.37312600  1
  H  620  1  0.42841900  0.85620700  0.37325000  1
  H  631  1  0.79524600  0.75449300  0.00490600  1
  H  635  1  0.94913800  0.76991100  0.97492600  1
  H  637  1  0.99908200  0.71748300  0.97524500  1
  H  638  1  0.04421200  0.73293000  0.97618300  1
  H  639  1  0.01081900  0.74357700  0.96288200  1
  H  641  1  0.05032400  0.77870900  0.98709100  1
  H  642  1  0.00923100  0.79557000  0.99322600  1
  H  643  1  0.01804700  0.79243700  0.97424800  1
  H  645  1  0.90253100  0.73606100  0.96623500  1
  H  647  1  0.81637700  0.76802100  0.02990900  1
  H  654  1  0.87324300  0.25463600  0.99367200  1
  H  658  1  0.71919700  0.26981300  0.02351400  1
  H  660  1  0.66938100  0.21719800  0.02330400  1
  H  661  1  0.62421800  0.23249700  0.02228700  1
  H  662  1  0.65750000  0.24336600  0.03558800  1
  H  664  1  0.61804900  0.27815300  0.01124800  1
  H  665  1  0.65913600  0.29508900  0.00510600  1
  H  666  1  0.65020600  0.29210000  0.02408400  1
  H  668  1  0.76568800  0.23627000  0.03234700  1
  H  670  1  0.85206000  0.26831800  0.96868500  1
  H  677  1  0.29406100  0.25378900  0.50483400  1
  H  681  1  0.44815900  0.26921800  0.47495500  1
  H  683  1  0.49819600  0.21684200  0.47539800  1
  H  684  1  0.54329100  0.23233100  0.47638900  1
  H  685  1  0.51002000  0.24290600  0.46302800  1
  H  687  1  0.54921400  0.27814900  0.48725900  1
  H  688  1  0.50803300  0.29499600  0.49331900  1
  H  689  1  0.51704200  0.29180700  0.47435700  1
  H  691  1  0.40147400  0.23538600  0.46624800  1
  H  693  1  0.31472300  0.26671400  0.52990100  1
  H  700  1  0.37455700  0.75413400  0.49369800  1
  H  704  1  0.22038000  0.76917300  0.52351000  1
  H  706  1  0.17045100  0.71660700  0.52315400  1
  H  707  1  0.12532800  0.73196300  0.52211300  1
  H  708  1  0.15853600  0.74271300  0.53547000  1
  H  710  1  0.11934700  0.77769100  0.51115100  1
  H  711  1  0.16051400  0.79462100  0.50508400  1
  H  712  1  0.15143700  0.79152400  0.52404600  1
  H  714  1  0.26699300  0.73559400  0.53229900  1
  H  716  1  0.35370100  0.76738800  0.46866600  1
  H  723  1  0.88650000  0.00240800  0.84864100  1
  H  727  1  0.76069400  0.96093300  0.89155800  1
  H  729  1  0.68638600  0.99611100  0.88729100  1
  H  730  1  0.67149700  0.99651300  0.90559200  1
  H  731  1  0.68303500  0.96562900  0.89716500  1
  H  733  1  0.71974000  0.99047800  0.92548900  1
  H  734  1  0.76791900  0.98472500  0.92100900  1
  H  735  1  0.73370100  0.95883100  0.91859700  1
  H  737  1  0.76849100  0.94924500  0.86641200  1
  H  739  1  0.89779700  0.04892800  0.86018700  1
  H  746  1  0.88622300  0.49574600  0.14990100  1
  H  750  1  0.76082200  0.53699700  0.10686200  1
  H  752  1  0.68623800  0.50198500  0.11117300  1
  H  753  1  0.67137400  0.50150700  0.09287000  1
  H  754  1  0.68313500  0.53241600  0.10124600  1
  H  756  1  0.71969900  0.50733400  0.07297300  1
  H  757  1  0.76791300  0.51302400  0.07745600  1
  H  758  1  0.73388600  0.53899300  0.07981600  1
  H  760  1  0.76826200  0.54867500  0.13206300  1
  H  762  1  0.89755600  0.44924500  0.13835000  1
  H  769  1  0.78328600  0.99589600  0.14976000  1
  H  773  1  0.88070200  0.97381000  0.09822900  1
  H  775  1  0.96299000  0.96282100  0.10147400  1
  H  776  1  0.98852400  0.98536000  0.09040700  1
  H  777  1  0.97350400  0.99546600  0.10800900  1
  H  779  1  0.95372400  0.02237800  0.07765500  1
  H  780  1  0.90439100  0.02661200  0.08058900  1
  H  781  1  0.93741400  0.03596300  0.09436900  1
  H  783  1  0.89363000  0.05067400  0.12365300  1
  H  785  1  0.77119700  0.94905400  0.13864900  1
  H  792  1  0.78313300  0.50198000  0.84870100  1
  H  796  1  0.88045100  0.52453900  0.90021300  1
  H  798  1  0.96262800  0.53587400  0.89698300  1
  H  799  1  0.98829300  0.51346000  0.90805200  1
  H  800  1  0.97332600  0.50327200  0.89045300  1
  H  802  1  0.95370500  0.47629900  0.92081900  1
  H  803  1  0.90439900  0.47182900  0.91788400  1
  H  804  1  0.93748100  0.46261900  0.90410900  1
  H  806  1  0.89347800  0.44758400  0.87491200  1
  H  808  1  0.77111500  0.54889400  0.85963600  1
  H  815  1  0.38713800  0.50198000  0.34889800  1
  H  819  1  0.26139000  0.46049200  0.39177200  1
  H  821  1  0.18669200  0.49523500  0.38730800  1
  H  822  1  0.17166500  0.49574300  0.40559200  1
  H  823  1  0.18359400  0.46483600  0.39726900  1
  H  825  1  0.21983700  0.49017200  0.42555700  1
  H  826  1  0.26810400  0.48461700  0.42114300  1
  H  827  1  0.23417600  0.45852500  0.41877700  1
  H  829  1  0.26886600  0.44882500  0.36661600  1
  H  831  1  0.39845600  0.54847100  0.36061700  1
  H  838  1  0.38678100  0.99536400  0.64967200  1
  H  842  1  0.26152100  0.03660900  0.60664400  1
  H  844  1  0.18648300  0.00209300  0.61117000  1
  H  845  1  0.17149300  0.00148100  0.59288200  1
  H  846  1  0.18368300  0.03242200  0.60113800  1
  H  848  1  0.21976300  0.00676800  0.57292100  1
  H  849  1  0.26807000  0.01223800  0.57733900  1
  H  850  1  0.23436500  0.03843200  0.57963200  1
  H  852  1  0.26856100  0.04826900  0.63186500  1
  H  854  1  0.39812500  0.94887500  0.63796300  1
  H  861  1  0.28385300  0.49541200  0.65019500  1
  H  865  1  0.38086000  0.47338700  0.59857700  1
  H  867  1  0.46307500  0.46237900  0.60168000  1
  H  868  1  0.48855000  0.48490200  0.59058400  1
  H  869  1  0.47371400  0.49501100  0.60820900  1
  H  871  1  0.45369700  0.52194100  0.57787500  1
  H  872  1  0.40440600  0.52622900  0.58088200  1
  H  873  1  0.43758500  0.53555200  0.59461100  1
  H  875  1  0.39301800  0.55062000  0.62359400  1
  H  877  1  0.27216300  0.44845200  0.63936000  1
  H  884  1  0.28369600  0.00168200  0.34823400  1
  H  888  1  0.38054900  0.02411300  0.39986800  1
  H  890  1  0.46256900  0.03550800  0.39681100  1
  H  891  1  0.48822100  0.01309000  0.40788000  1
  H  892  1  0.47344600  0.00296000  0.39024700  1
  H  894  1  0.45366300  0.97582100  0.42056100  1
  H  895  1  0.40440300  0.97126100  0.41755200  1
  H  896  1  0.43765700  0.96217000  0.40381400  1
  H  898  1  0.39288400  0.94684100  0.37491700  1
  H  900  1  0.27202300  0.04868200  0.35892600  1
  H  907  1  0.64231000  0.73288200  0.74035800  1
  H  911  1  0.47447000  0.76226600  0.75138100  1
  H  913  1  0.46560100  0.82491700  0.75358900  1
  H  914  1  0.42774000  0.82559300  0.76617800  1
  H  915  1  0.42433700  0.80498800  0.75049900  1
  H  917  1  0.41858200  0.78715400  0.78338100  1
  H  918  1  0.44914100  0.75927900  0.78234200  1
  H  919  1  0.41357800  0.76414200  0.76880500  1
  H  921  1  0.51015100  0.77813800  0.72981300  1
  H  923  1  0.66933800  0.73900400  0.76530900  1
  H  930  1  0.64235300  0.76523600  0.25799300  1
  H  934  1  0.47433900  0.73558300  0.24732600  1
  H  936  1  0.46550400  0.67289700  0.24511600  1
  H  937  1  0.42744000  0.67215000  0.23261700  1
  H  938  1  0.42426800  0.69272300  0.24831300  1
  H  940  1  0.41797400  0.71059400  0.21545200  1
  H  941  1  0.44851600  0.73854100  0.21643500  1
  H  942  1  0.41316900  0.73356900  0.23005100  1
  H  944  1  0.51029100  0.71977100  0.26880500  1
  H  946  1  0.66903900  0.75914400  0.23299800  1
  H  953  1  0.02549200  0.23250500  0.25826700  1
  H  957  1  0.19346000  0.26294700  0.24753800  1
  H  959  1  0.20141900  0.32568600  0.24515500  1
  H  960  1  0.23935200  0.32657300  0.23260000  1
  H  961  1  0.24295700  0.30617000  0.24834900  1
  H  963  1  0.24918000  0.28803800  0.21552800  1
  H  964  1  0.21903200  0.25989700  0.21663100  1
  H  965  1  0.25444400  0.26523100  0.23018200  1
  H  967  1  0.15735100  0.27791100  0.26913600  1
  H  969  1  0.99852800  0.23886800  0.23333500  1
  H  976  1  0.02534600  0.26530600  0.74033600  1
  H  980  1  0.19342900  0.23589000  0.75095100  1
  H  982  1  0.20228100  0.17323800  0.75320000  1
  H  983  1  0.24028200  0.17258700  0.76572800  1
  H  984  1  0.24352800  0.19314100  0.75002400  1
  H  986  1  0.24965100  0.21107900  0.78288100  1
  H  987  1  0.21910100  0.23895700  0.78186300  1
  H  988  1  0.25451600  0.23404300  0.76827500  1
  H  990  1  0.15728000  0.22015400  0.72943300  1
  H  992  1  0.99873800  0.25923800  0.76534200  1
  H  1041  1  0.40326800  0.61215400  0.77186800  1
  H  1042  1  0.44254100  0.61115100  0.79325500  1
  H  1043  1  0.30452100  0.60858200  0.79813400  1
  H  1044  1  0.34378100  0.60765100  0.81953100  1
  H  1045  1  0.41388100  0.55573500  0.81053700  1
  H  1046  1  0.44267800  0.52009600  0.82683400  1
  H  1047  1  0.45547200  0.59230600  0.84699600  1
  H  1048  1  0.47777100  0.62504600  0.86285000  1
  H  1049  1  0.40697500  0.66328300  0.81166000  1
  H  1050  1  0.43580000  0.69893100  0.82812800  1
  H  1051  1  0.53539300  0.70458100  0.84446400  1
  H  1052  1  0.54703300  0.75183700  0.84504800  1
  H  1053  1  0.42528600  0.71701600  0.86193400  1
  H  1054  1  0.43693000  0.76430200  0.86250200  1
  H  1055  1  0.50894800  0.69742400  0.87966200  1
  H  1056  1  0.52580700  0.66171100  0.89813000  1
  H  1057  1  0.50035900  0.51858600  0.88109900  1
  H  1058  1  0.51697100  0.55415200  0.89983200  1
  H  1059  1  0.46142900  0.61894500  0.91163010  1
  H  1060  1  0.47552700  0.62030100  0.93710810  1
  H  1061  1  0.57614300  0.59885800  0.90266110  1
  H  1062  1  0.59019500  0.59997900  0.92832410  1
  H  1063  1  0.53811000  0.51377900  0.84672700  1
  H  1064  1  0.55023000  0.46659300  0.84722300  1
  H  1065  1  0.43596700  0.45249900  0.85970400  1
  H  1066  1  0.42380300  0.49976900  0.85928400  1
  H  1119  1  0.40285800  0.60601900  0.20465300  1
  H  1120  1  0.44202900  0.60701300  0.18323900  1
  H  1121  1  0.30399900  0.60932800  0.17845000  1
  H  1122  1  0.34316200  0.61024100  0.15702600  1
  H  1123  1  0.41245600  0.66236900  0.16577100  1
  H  1124  1  0.44152600  0.69802400  0.14952500  1
  H  1125  1  0.45555700  0.62572200  0.12961000  1
  H  1126  1  0.47996700  0.59305300  0.11415500  1
  H  1127  1  0.40678800  0.55476700  0.16496000  1
  H  1128  1  0.43592000  0.51914400  0.14859300  1
  H  1129  1  0.53542700  0.51356100  0.13204200  1
  H  1130  1  0.54700700  0.46632200  0.13147700  1
  H  1131  1  0.42495900  0.50091600  0.11490700  1
  H  1132  1  0.43655300  0.45364500  0.11435100  1
  H  1133  1  0.50713700  0.52044300  0.09671800  1
  H  1134  1  0.52475200  0.55616100  0.07833800  1
  H  1135  1  0.50301900  0.69943500  0.09584300  1
  H  1136  1  0.52050800  0.66382700  0.07725900  1
  H  1137  1  0.46294900  0.60209500  0.06481800  1
  H  1138  1  0.47794900  0.60147900  0.03944500  1
  H  1139  1  0.57897000  0.61622300  0.07472600  1
  H  1140  1  0.59391700  0.61604700  0.04911800  1
  H  1141  1  0.53786500  0.70440700  0.13034900  1
  H  1142  1  0.55005800  0.75161300  0.12987700  1
  H  1143  1  0.43649300  0.76548900  0.11650000  1
  H  1144  1  0.42426600  0.71819700  0.11688600  1
  H  1197  1  0.63616300  0.11129600  0.20515100  1
  H  1198  1  0.59692400  0.11052000  0.18375400  1
  H  1199  1  0.73497000  0.11179500  0.17884800  1
  H  1200  1  0.69573200  0.11112100  0.15744300  1
  H  1201  1  0.63028500  0.05686900  0.16567700  1
  H  1202  1  0.60223900  0.02090600  0.14938000  1
  H  1203  1  0.58169400  0.09333800  0.13047700  1
  H  1204  1  0.55862000  0.12555200  0.11460800  1
  H  1205  1  0.62895900  0.16455500  0.16590300  1
  H  1206  1  0.59980100  0.19990000  0.14938000  1
  H  1207  1  0.50095900  0.20484600  0.12953900  1
  H  1208  1  0.48927900  0.25207800  0.12887500  1
  H  1209  1  0.61580400  0.21827300  0.11750100  1
  H  1210  1  0.60412100  0.26559100  0.11696200  1
  H  1211  1  0.53516500  0.19801500  0.09623400  1
  H  1212  1  0.51856600  0.16207400  0.07787100  1
  H  1213  1  0.53612200  0.01898000  0.09656800  1
  H  1214  1  0.51929100  0.05430400  0.07775000  1
  H  1215  1  0.57921300  0.11709100  0.06526200  1
  H  1216  1  0.56545200  0.11827400  0.03975400  1
  H  1217  1  0.46326200  0.10058500  0.07418500  1
  H  1218  1  0.44954500  0.10149200  0.04849100  1
  H  1219  1  0.50812400  0.01309700  0.13482700  1
  H  1220  1  0.49763800  0.96570090  0.13489000  1
  H  1221  1  0.60351900  0.95433990  0.11374200  1
  H  1222  1  0.61394200  0.00166900  0.11368800  1
  H  1275  1  0.63647500  0.10707900  0.77183300  1
  H  1276  1  0.59737700  0.10787700  0.79326300  1
  H  1277  1  0.73543500  0.10656300  0.79804700  1
  H  1278  1  0.69632600  0.10725100  0.81948700  1
  H  1279  1  0.63173100  0.16153100  0.81153700  1
  H  1280  1  0.60339000  0.19742600  0.82777100  1
  H  1281  1  0.58140600  0.12488700  0.84635600  1
  H  1282  1  0.55700400  0.09260100  0.86202300  1
  H  1283  1  0.62890100  0.05385900  0.81094900  1
  H  1284  1  0.59956300  0.01845000  0.82741500  1
  H  1285  1  0.50108500  0.01323700  0.84754500  1
  H  1286  1  0.48943500  0.96598090  0.84817700  1
  H  1287  1  0.61619200  0.99999087  0.85920600  1
  H  1288  1  0.60453300  0.95264290  0.85971900  1
  H  1289  1  0.53679000  0.02003000  0.88086300  1
  H  1290  1  0.51943400  0.05594700  0.89913400  1
  H  1291  1  0.53374200  0.19906700  0.87994500  1
  H  1292  1  0.51617300  0.16366600  0.89865500  1
  H  1293  1  0.57772800  0.10410200  0.91176310  1
  H  1294  1  0.56314200  0.10353100  0.93716010  1
  H  1295  1  0.46085000  0.11436600  0.90202210  1
  H  1296  1  0.44628500  0.11429500  0.92765910  1
  H  1297  1  0.50863200  0.20506500  0.84157300  1
  H  1298  1  0.49817100  0.25244400  0.84149300  1
  H  1299  1  0.60274600  0.26385800  0.86358700  1
  H  1300  1  0.61314800  0.21655300  0.86365300  1
  H  1353  1  0.90158200  0.12298000  0.27193200  1
  H  1354  1  0.94085700  0.12313300  0.29337000  1
  H  1355  1  0.80901400  0.09358100  0.29661000  1
  H  1356  1  0.84802600  0.09401700  0.31806600  1
  H  1357  1  0.92021200  0.05621800  0.30912000  1
  H  1358  1  0.94841900  0.02052300  0.32553500  1
  H  1359  1  0.95334900  0.09187200  0.34707800  1
  H  1360  1  0.97604000  0.12475500  0.36302500  1
  H  1361  1  0.90389400  0.16345500  0.31236200  1
  H  1362  1  0.93252400  0.19884800  0.32897800  1
  H  1363  1  0.03466100  0.20423300  0.34379500  1
  H  1364  1  0.04648500  0.25146300  0.34441000  1
  H  1365  1  0.92611200  0.21659100  0.36264400  1
  H  1366  1  0.93792800  0.26386900  0.36322400  1
  H  1367  1  0.01135800  0.19667100  0.37922600  1
  H  1368  1  0.02784700  0.16085700  0.39769400  1
  H  1369  1  0.99785903  0.01810900  0.38104400  1
  H  1370  1  0.01399300  0.05354500  0.39992800  1
  H  1371  1  0.96113900  0.11951000  0.41146100  1
  H  1372  1  0.97511000  0.12089300  0.43694800  1
  H  1373  1  0.07510600  0.09721500  0.40268000  1
  H  1374  1  0.08903400  0.09839800  0.42834800  1
  H  1375  1  0.03930000  0.01367200  0.34713200  1
  H  1376  1  0.05142100  0.96648590  0.34762700  1
  H  1377  1  0.93607200  0.95220690  0.35848200  1
  H  1378  1  0.92389100  0.99946287  0.35803200  1
  H  1431  1  0.90113100  0.09485700  0.70462900  1
  H  1432  1  0.94026000  0.09452200  0.68315900  1
  H  1433  1  0.80832900  0.12359900  0.67991500  1
  H  1434  1  0.84720600  0.12297600  0.65842500  1
  H  1435  1  0.91876100  0.16118900  0.66719800  1
  H  1436  1  0.94729700  0.19685800  0.65083000  1
  H  1437  1  0.95334600  0.12535000  0.62949500  1
  H  1438  1  0.97800400  0.09256100  0.61396100  1
  H  1439  1  0.90358300  0.05383000  0.66427200  1
  H  1440  1  0.93248700  0.01843300  0.64776600  1
  H  1441  1  0.03454400  0.01311000  0.63275100  1
  H  1442  1  0.04633400  0.96590190  0.63216300  1
  H  1443  1  0.92564400  0.00050400  0.61421100  1
  H  1444  1  0.93743400  0.95324390  0.61364900  1
  H  1445  1  0.00946300  0.02029300  0.59716600  1
  H  1446  1  0.02671600  0.05608000  0.57877100  1
  H  1447  1  0.00048200  0.19908100  0.59581800  1
  H  1448  1  0.01741300  0.16358500  0.57708100  1
  H  1449  1  0.96245500  0.10061500  0.56493200  1
  H  1450  1  0.97736200  0.09995900  0.53954900  1
  H  1451  1  0.07793500  0.11705200  0.57470200  1
  H  1452  1  0.09277600  0.11680100  0.54908600  1
  H  1453  1  0.03914000  0.20368400  0.62989500  1
  H  1454  1  0.05135200  0.25089000  0.62943200  1
  H  1455  1  0.93659700  0.26499200  0.61771400  1
  H  1456  1  0.92433100  0.21771900  0.61812100  1
  H  1509  1  0.13812300  0.62240500  0.70508600  1
  H  1510  1  0.09881900  0.62271000  0.68364800  1
  H  1511  1  0.23197500  0.59664400  0.67997000  1
  H  1512  1  0.19294400  0.59727200  0.65852000  1
  H  1513  1  0.12373500  0.55718400  0.66724400  1
  H  1514  1  0.09628500  0.52117700  0.65084400  1
  H  1515  1  0.08542300  0.59290000  0.63003400  1
  H  1516  1  0.06084400  0.62516900  0.61439300  1
  H  1517  1  0.13305300  0.66483500  0.66506300  1
  H  1518  1  0.10396900  0.69992600  0.64843900  1
  H  1519  1  0.00205800  0.70453100  0.63023500  1
  H  1520  1  0.99027403  0.75174900  0.62954800  1
  H  1521  1  0.11571300  0.71784100  0.61662300  1
  H  1522  1  0.10394900  0.76516400  0.61608800  1
  H  1523  1  0.03293100  0.69733100  0.59658600  1
  H  1524  1  0.01663400  0.66129400  0.57824100  1
  H  1525  1  0.03966800  0.51841400  0.59637900  1
  H  1526  1  0.02308800  0.55363600  0.57746100  1
  H  1527  1  0.07989900  0.61767800  0.56534700  1
  H  1528  1  0.06619600  0.61892100  0.53983500  1
  H  1529  1  0.96457300  0.59892800  0.57413600  1
  H  1530  1  0.95091400  0.59993500  0.54844100  1
  H  1531  1  0.00704800  0.51298700  0.63426700  1
  H  1532  1  0.99651703  0.46559200  0.63438300  1
  H  1533  1  0.10460600  0.45385800  0.61500700  1
  H  1534  1  0.11508500  0.50119900  0.61490000  1
  H  1587  1  0.13844200  0.59545000  0.27185700  1
  H  1588  1  0.09930500  0.59498400  0.29333400  1
  H  1589  1  0.23257500  0.62103000  0.29692200  1
  H  1590  1  0.19370000  0.62023400  0.31841600  1
  H  1591  1  0.12498500  0.66041400  0.30986500  1
  H  1592  1  0.09718900  0.69633600  0.32619100  1
  H  1593  1  0.08542800  0.62452000  0.34685600  1
  H  1594  1  0.05935100  0.59221200  0.36223000  1
  H  1595  1  0.13323800  0.55274100  0.31181000  1
  H  1596  1  0.10394900  0.51758900  0.32836900  1
  H  1597  1  0.00227500  0.51272300  0.34677900  1
  H  1598  1  0.99052203  0.46548300  0.34744800  1
  H  1599  1  0.11614700  0.49961000  0.36012400  1
  H  1600  1  0.10440900  0.45225800  0.36064500  1
  H  1601  1  0.03448100  0.51984300  0.38048900  1
  H  1602  1  0.01740700  0.55585200  0.39873900  1
  H  1603  1  0.03739600  0.69885800  0.38016900  1
  H  1604  1  0.02008800  0.66356600  0.39898000  1
  H  1605  1  0.07852000  0.60272600  0.41169600  1
  H  1606  1  0.06396700  0.60214200  0.43710000  1
  H  1607  1  0.96204700  0.61522000  0.40203200  1
  H  1608  1  0.94752800  0.61509300  0.42767300  1
  H  1609  1  0.00741000  0.70434800  0.34215700  1
  H  1610  1  0.99690503  0.75172800  0.34202100  1
  H  1611  1  0.10395200  0.76354800  0.36224000  1
  H  1612  1  0.11440600  0.71623400  0.36236400  1
  H  1623  1  0.48123300  0.61452000  0.99402007  1
  H  1627  1  0.63512500  0.62993800  0.96404010  1
  H  1629  1  0.68506900  0.57751000  0.96435910  1
  H  1630  1  0.73019900  0.59295700  0.96529710  1
  H  1631  1  0.69680600  0.60360400  0.95199610  1
  H  1633  1  0.73631100  0.63873600  0.97620510  1
  H  1634  1  0.69521800  0.65559700  0.98234010  1
  H  1635  1  0.70403400  0.65246400  0.96336210  1
  H  1637  1  0.58851800  0.59608800  0.95534910  1
  H  1639  1  0.50236400  0.62804800  0.01902300  1
  H  1646  1  0.55923000  0.11466300  0.98278610  1
  H  1650  1  0.40518400  0.12984000  0.01262800  1
  H  1652  1  0.35536800  0.07722500  0.01241800  1
  H  1653  1  0.31020500  0.09252400  0.01140100  1
  H  1654  1  0.34348700  0.10339300  0.02470200  1
  H  1656  1  0.30403600  0.13818000  0.00036200  1
  H  1657  1  0.34512300  0.15511600  0.99422007  1
  H  1658  1  0.33619300  0.15212700  0.01319800  1
  H  1660  1  0.45167500  0.09629700  0.02146100  1
  H  1662  1  0.53804700  0.12834500  0.95779910  1
  H  1669  1  0.98004800  0.11381600  0.49394800  1
  H  1673  1  0.13414600  0.12924500  0.46406900  1
  H  1675  1  0.18418300  0.07686900  0.46451200  1
  H  1676  1  0.22927800  0.09235800  0.46550300  1
  H  1677  1  0.19600700  0.10293300  0.45214200  1
  H  1679  1  0.23520100  0.13817600  0.47637300  1
  H  1680  1  0.19402000  0.15502300  0.48243300  1
  H  1681  1  0.20302900  0.15183400  0.46347100  1
  H  1683  1  0.08746100  0.09541300  0.45536200  1
  H  1685  1  0.00071000  0.12674100  0.51901500  1
  H  1692  1  0.06054400  0.61416100  0.48281200  1
  H  1696  1  0.90636700  0.62920000  0.51262400  1
  H  1698  1  0.85643800  0.57663400  0.51226800  1
  H  1699  1  0.81131500  0.59199000  0.51122700  1
  H  1700  1  0.84452300  0.60274000  0.52458400  1
  H  1702  1  0.80533400  0.63771800  0.50026500  1
  H  1703  1  0.84650100  0.65464800  0.49419800  1
  H  1704  1  0.83742400  0.65155100  0.51316000  1
  H  1706  1  0.95298000  0.59562100  0.52141300  1
  H  1708  1  0.03968800  0.62741500  0.45778000  1
  H  1715  1  0.57248700  0.86243500  0.83775500  1
  H  1719  1  0.44668100  0.82096000  0.88067200  1
  H  1721  1  0.37237300  0.85613800  0.87640500  1
  H  1722  1  0.35748400  0.85654000  0.89470600  1
  H  1723  1  0.36902200  0.82565600  0.88627900  1
  H  1725  1  0.40572700  0.85050500  0.91460310  1
  H  1726  1  0.45390600  0.84475200  0.91012310  1
  H  1727  1  0.41968800  0.81885800  0.90771110  1
  H  1729  1  0.45447800  0.80927200  0.85552600  1
  H  1731  1  0.58378400  0.90895490  0.84930100  1
  H  1738  1  0.57221000  0.35577300  0.13901500  1
  H  1742  1  0.44680900  0.39702400  0.09597600  1
  H  1744  1  0.37222500  0.36201200  0.10028700  1
  H  1745  1  0.35736100  0.36153400  0.08198400  1
  H  1746  1  0.36912200  0.39244300  0.09036000  1
  H  1748  1  0.40568600  0.36736100  0.06208700  1
  H  1749  1  0.45390000  0.37305100  0.06657000  1
  H  1750  1  0.41987300  0.39902000  0.06893000  1
  H  1752  1  0.45424900  0.40870200  0.12117700  1
  H  1754  1  0.58354300  0.30927200  0.12746400  1
  H  1761  1  0.46927300  0.85592300  0.13887400  1
  H  1765  1  0.56668900  0.83383700  0.08734300  1
  H  1767  1  0.64897700  0.82284800  0.09058800  1
  H  1768  1  0.67451100  0.84538700  0.07952100  1
  H  1769  1  0.65949100  0.85549300  0.09712300  1
  H  1771  1  0.63971100  0.88240500  0.06676900  1
  H  1772  1  0.59037800  0.88663900  0.06970300  1
  H  1773  1  0.62340100  0.89599000  0.08348300  1
  H  1775  1  0.57961700  0.91070090  0.11276700  1
  H  1777  1  0.45718400  0.80908100  0.12776300  1
  H  1784  1  0.46912000  0.36200700  0.83781500  1
  H  1788  1  0.56643800  0.38456600  0.88932700  1
  H  1790  1  0.64861500  0.39590100  0.88609700  1
  H  1791  1  0.67428000  0.37348700  0.89716600  1
  H  1792  1  0.65931300  0.36329900  0.87956700  1
  H  1794  1  0.63969200  0.33632600  0.90993310  1
  H  1795  1  0.59038600  0.33185600  0.90699810  1
  H  1796  1  0.62346800  0.32264600  0.89322300  1
  H  1798  1  0.57946500  0.30761100  0.86402600  1
  H  1800  1  0.45710200  0.40892100  0.84875000  1
  H  1807  1  0.07312500  0.36200700  0.33801200  1
  H  1811  1  0.94737700  0.32051900  0.38088600  1
  H  1813  1  0.87267900  0.35526200  0.37642200  1
  H  1814  1  0.85765200  0.35577000  0.39470600  1
  H  1815  1  0.86958100  0.32486300  0.38638300  1
  H  1817  1  0.90582400  0.35019900  0.41467100  1
  H  1818  1  0.95409100  0.34464400  0.41025700  1
  H  1819  1  0.92016300  0.31855200  0.40789100  1
  H  1821  1  0.95485300  0.30885200  0.35573000  1
  H  1823  1  0.08444300  0.40849800  0.34973100  1
  H  1830  1  0.07276800  0.85539100  0.63878600  1
  H  1834  1  0.94750800  0.89663600  0.59575800  1
  H  1836  1  0.87247000  0.86212000  0.60028400  1
  H  1837  1  0.85748000  0.86150800  0.58199600  1
  H  1838  1  0.86967000  0.89244900  0.59025200  1
  H  1840  1  0.90575000  0.86679500  0.56203500  1
  H  1841  1  0.95405700  0.87226500  0.56645300  1
  H  1842  1  0.92035200  0.89845900  0.56874600  1
  H  1844  1  0.95454800  0.90829590  0.62097900  1
  H  1846  1  0.08411200  0.80890200  0.62707700  1
  H  1853  1  0.96984000  0.35543900  0.63930900  1
  H  1857  1  0.06684700  0.33341400  0.58769100  1
  H  1859  1  0.14906200  0.32240600  0.59079400  1
  H  1860  1  0.17453700  0.34492900  0.57969800  1
  H  1861  1  0.15970100  0.35503800  0.59732300  1
  H  1863  1  0.13968400  0.38196800  0.56698900  1
  H  1864  1  0.09039300  0.38625600  0.56999600  1
  H  1865  1  0.12357200  0.39557900  0.58372500  1
  H  1867  1  0.07900500  0.41064700  0.61270800  1
  H  1869  1  0.95815000  0.30847900  0.62847400  1
  H  1876  1  0.96968300  0.86170900  0.33734800  1
  H  1880  1  0.06653600  0.88414000  0.38898200  1
  H  1882  1  0.14855600  0.89553500  0.38592500  1
  H  1883  1  0.17420800  0.87311700  0.39699400  1
  H  1884  1  0.15943300  0.86298700  0.37936100  1
  H  1886  1  0.13965000  0.83584800  0.40967500  1
  H  1887  1  0.09039000  0.83128800  0.40666600  1
  H  1888  1  0.12364400  0.82219700  0.39292800  1
  H  1890  1  0.07887100  0.80686800  0.36403100  1
  H  1892  1  0.95801000  0.90870890  0.34804000  1
  H  1899  1  0.32829700  0.59290900  0.72947200  1
  H  1903  1  0.16045700  0.62229300  0.74049500  1
  H  1905  1  0.15158800  0.68494400  0.74270300  1
  H  1906  1  0.11372700  0.68562000  0.75529200  1
  H  1907  1  0.11032400  0.66501500  0.73961300  1
  H  1909  1  0.10456900  0.64718100  0.77249500  1
  H  1910  1  0.13512800  0.61930600  0.77145600  1
  H  1911  1  0.09956500  0.62416900  0.75791900  1
  H  1913  1  0.19613800  0.63816500  0.71892700  1
  H  1915  1  0.35532500  0.59903100  0.75442300  1
  H  1922  1  0.32834000  0.62526300  0.24710700  1
  H  1926  1  0.16032600  0.59561000  0.23644000  1
  H  1928  1  0.15149100  0.53292400  0.23423000  1
  H  1929  1  0.11342700  0.53217700  0.22173100  1
  H  1930  1  0.11025500  0.55275000  0.23742700  1
  H  1932  1  0.10396100  0.57062100  0.20456600  1
  H  1933  1  0.13450300  0.59856800  0.20554900  1
  H  1934  1  0.09915600  0.59359600  0.21916500  1
  H  1936  1  0.19627800  0.57979800  0.25791900  1
  H  1938  1  0.35502600  0.61917100  0.22211200  1
  H  1945  1  0.71147900  0.09253200  0.24738100  1
  H  1949  1  0.87944700  0.12297400  0.23665200  1
  H  1951  1  0.88740600  0.18571300  0.23426900  1
  H  1952  1  0.92533900  0.18660000  0.22171400  1
  H  1953  1  0.92894400  0.16619700  0.23746300  1
  H  1955  1  0.93516700  0.14806500  0.20464200  1
  H  1956  1  0.90501900  0.11992400  0.20574500  1
  H  1957  1  0.94043100  0.12525800  0.21929600  1
  H  1959  1  0.84333800  0.13793800  0.25825000  1
  H  1961  1  0.68451500  0.09889500  0.22244900  1
  H  1968  1  0.71133300  0.12533300  0.72945000  1
  H  1972  1  0.87941600  0.09591700  0.74006500  1
  H  1974  1  0.88826800  0.03326500  0.74231400  1
  H  1975  1  0.92626900  0.03261400  0.75484200  1
  H  1976  1  0.92951500  0.05316800  0.73913800  1
  H  1978  1  0.93563800  0.07110600  0.77199500  1
  H  1979  1  0.90508800  0.09898400  0.77097700  1
  H  1980  1  0.94050300  0.09407000  0.75738900  1
  H  1982  1  0.84326700  0.08018100  0.71854700  1
  H  1984  1  0.68472500  0.11926500  0.75445600  1
  H  2033  1  0.08925500  0.47218100  0.76098200  1
  H  2034  1  0.12852800  0.47117800  0.78236900  1
  H  2035  1  0.99050806  0.46860900  0.78724800  1
  H  2036  1  0.02976800  0.46767800  0.80864500  1
  H  2037  1  0.09986800  0.41576200  0.79965100  1
  H  2038  1  0.12866500  0.38012300  0.81594800  1
  H  2039  1  0.14145900  0.45233300  0.83611000  1
  H  2040  1  0.16375800  0.48507300  0.85196400  1
  H  2041  1  0.09296200  0.52331000  0.80077400  1
  H  2042  1  0.12178700  0.55895800  0.81724200  1
  H  2043  1  0.22138000  0.56460800  0.83357800  1
  H  2044  1  0.23302000  0.61186400  0.83416200  1
  H  2045  1  0.11127300  0.57704300  0.85104800  1
  H  2046  1  0.12291700  0.62432900  0.85161600  1
  H  2047  1  0.19493500  0.55745100  0.86877600  1
  H  2048  1  0.21179400  0.52173800  0.88724400  1
  H  2049  1  0.18634600  0.37861300  0.87021300  1
  H  2050  1  0.20295800  0.41417900  0.88894600  1
  H  2051  1  0.14741600  0.47897200  0.90074410  1
  H  2052  1  0.16151400  0.48032800  0.92622210  1
  H  2053  1  0.26213000  0.45888500  0.89177500  1
  H  2054  1  0.27618200  0.46000600  0.91743810  1
  H  2055  1  0.22409700  0.37380600  0.83584100  1
  H  2056  1  0.23621700  0.32662000  0.83633700  1
  H  2057  1  0.12195400  0.31252600  0.84881800  1
  H  2058  1  0.10979000  0.35979600  0.84839800  1
  H  2111  1  0.08884500  0.46604600  0.19376700  1
  H  2112  1  0.12801600  0.46704000  0.17235300  1
  H  2113  1  0.98998610  0.46935500  0.16756400  1
  H  2114  1  0.02914900  0.47026800  0.14614000  1
  H  2115  1  0.09844300  0.52239600  0.15488500  1
  H  2116  1  0.12751300  0.55805100  0.13863900  1
  H  2117  1  0.14154400  0.48574900  0.11872400  1
  H  2118  1  0.16595400  0.45308000  0.10326900  1
  H  2119  1  0.09277500  0.41479400  0.15407400  1
  H  2120  1  0.12190700  0.37917100  0.13770700  1
  H  2121  1  0.22141400  0.37358800  0.12115600  1
  H  2122  1  0.23299400  0.32634900  0.12059100  1
  H  2123  1  0.11094600  0.36094300  0.10402100  1
  H  2124  1  0.12254000  0.31367200  0.10346500  1
  H  2125  1  0.19312400  0.38047000  0.08583200  1
  H  2126  1  0.21073900  0.41618800  0.06745200  1
  H  2127  1  0.18900600  0.55946200  0.08495700  1
  H  2128  1  0.20649500  0.52385400  0.06637300  1
  H  2129  1  0.14893600  0.46212200  0.05393200  1
  H  2130  1  0.16393600  0.46150600  0.02855900  1
  H  2131  1  0.26495700  0.47625000  0.06384000  1
  H  2132  1  0.27990400  0.47607400  0.03823200  1
  H  2133  1  0.22385200  0.56443400  0.11946300  1
  H  2134  1  0.23604500  0.61164000  0.11899100  1
  H  2135  1  0.12248000  0.62551600  0.10561400  1
  H  2136  1  0.11025300  0.57822400  0.10600000  1
  H  2189  1  0.32215000  0.97132270  0.19426500  1
  H  2190  1  0.28291100  0.97054670  0.17286800  1
  H  2191  1  0.42095700  0.97182170  0.16796200  1
  H  2192  1  0.38171900  0.97114770  0.14655700  1
  H  2193  1  0.31627200  0.91689570  0.15479100  1
  H  2194  1  0.28822600  0.88093300  0.13849400  1
  H  2195  1  0.26768100  0.95336470  0.11959100  1
  H  2196  1  0.24460700  0.98557870  0.10372200  1
  H  2197  1  0.31494600  0.02458200  0.15501700  1
  H  2198  1  0.28578800  0.05992700  0.13849400  1
  H  2199  1  0.18694600  0.06487300  0.11865300  1
  H  2200  1  0.17526600  0.11210500  0.11798900  1
  H  2201  1  0.30179100  0.07830000  0.10661500  1
  H  2202  1  0.29010800  0.12561800  0.10607600  1
  H  2203  1  0.22115200  0.05804200  0.08534800  1
  H  2204  1  0.20455300  0.02210100  0.06698500  1
  H  2205  1  0.22210900  0.87900700  0.08568200  1
  H  2206  1  0.20527800  0.91433070  0.06686400  1
  H  2207  1  0.26520000  0.97711770  0.05437600  1
  H  2208  1  0.25143900  0.97830070  0.02886800  1
  H  2209  1  0.14924900  0.96061170  0.06329900  1
  H  2210  1  0.13553200  0.96151870  0.03760500  1
  H  2211  1  0.19411100  0.87312400  0.12394100  1
  H  2212  1  0.18362500  0.82572800  0.12400400  1
  H  2213  1  0.28950600  0.81436700  0.10285600  1
  H  2214  1  0.29992900  0.86169600  0.10280200  1
  H  2267  1  0.32246200  0.96710570  0.76094700  1
  H  2268  1  0.28336400  0.96790370  0.78237700  1
  H  2269  1  0.42142200  0.96658970  0.78716100  1
  H  2270  1  0.38231300  0.96727770  0.80860100  1
  H  2271  1  0.31771800  0.02155800  0.80065100  1
  H  2272  1  0.28937700  0.05745300  0.81688500  1
  H  2273  1  0.26739300  0.98491370  0.83547000  1
  H  2274  1  0.24299100  0.95262770  0.85113700  1
  H  2275  1  0.31488800  0.91388570  0.80006300  1
  H  2276  1  0.28555000  0.87847700  0.81652900  1
  H  2277  1  0.18707200  0.87326400  0.83665900  1
  H  2278  1  0.17542200  0.82600800  0.83729100  1
  H  2279  1  0.30217900  0.86001800  0.84832000  1
  H  2280  1  0.29052000  0.81267000  0.84883300  1
  H  2281  1  0.22277700  0.88005700  0.86997700  1
  H  2282  1  0.20542100  0.91597370  0.88824800  1
  H  2283  1  0.21972900  0.05909400  0.86905900  1
  H  2284  1  0.20216000  0.02369300  0.88776900  1
  H  2285  1  0.26371500  0.96412870  0.90087710  1
  H  2286  1  0.24912900  0.96355770  0.92627410  1
  H  2287  1  0.14683700  0.97439270  0.89113600  1
  H  2288  1  0.13227200  0.97432170  0.91677310  1
  H  2289  1  0.19461900  0.06509200  0.83068700  1
  H  2290  1  0.18415800  0.11247100  0.83060700  1
  H  2291  1  0.28873300  0.12388500  0.85270100  1
  H  2292  1  0.29913500  0.07658000  0.85276700  1
  H  2345  1  0.58756900  0.98300670  0.26104600  1
  H  2346  1  0.62684400  0.98315970  0.28248400  1
  H  2347  1  0.49500100  0.95360770  0.28572400  1
  H  2348  1  0.53401300  0.95404370  0.30718000  1
  H  2349  1  0.60619900  0.91624470  0.29823400  1
  H  2350  1  0.63440600  0.88055000  0.31464900  1
  H  2351  1  0.63933600  0.95189870  0.33619200  1
  H  2352  1  0.66202700  0.98478170  0.35213900  1
  H  2353  1  0.58988100  0.02348200  0.30147600  1
  H  2354  1  0.61851100  0.05887500  0.31809200  1
  H  2355  1  0.72064800  0.06426000  0.33290900  1
  H  2356  1  0.73247200  0.11149000  0.33352400  1
  H  2357  1  0.61209900  0.07661800  0.35175800  1
  H  2358  1  0.62391500  0.12389600  0.35233800  1
  H  2359  1  0.69734500  0.05669800  0.36834000  1
  H  2360  1  0.71383400  0.02088400  0.38680800  1
  H  2361  1  0.68384600  0.87813600  0.37015800  1
  H  2362  1  0.69998000  0.91357170  0.38904200  1
  H  2363  1  0.64712600  0.97953670  0.40057500  1
  H  2364  1  0.66109700  0.98091970  0.42606200  1
  H  2365  1  0.76109300  0.95724170  0.39179400  1
  H  2366  1  0.77502100  0.95842470  0.41746200  1
  H  2367  1  0.72528700  0.87369900  0.33624600  1
  H  2368  1  0.73740800  0.82651300  0.33674100  1
  H  2369  1  0.62205900  0.81223400  0.34759600  1
  H  2370  1  0.60987800  0.85949000  0.34714600  1
  H  2423  1  0.58711800  0.95488370  0.69374300  1
  H  2424  1  0.62624700  0.95454870  0.67227300  1
  H  2425  1  0.49431600  0.98362570  0.66902900  1
  H  2426  1  0.53319300  0.98300270  0.64753900  1
  H  2427  1  0.60474800  0.02121600  0.65631200  1
  H  2428  1  0.63328400  0.05688500  0.63994400  1
  H  2429  1  0.63933300  0.98537670  0.61860900  1
  H  2430  1  0.66399100  0.95258770  0.60307500  1
  H  2431  1  0.58957000  0.91385670  0.65338600  1
  H  2432  1  0.61847400  0.87846000  0.63688000  1
  H  2433  1  0.72053100  0.87313700  0.62186500  1
  H  2434  1  0.73232100  0.82592900  0.62127700  1
  H  2435  1  0.61163100  0.86053100  0.60332500  1
  H  2436  1  0.62342100  0.81327100  0.60276300  1
  H  2437  1  0.69545000  0.88032000  0.58628000  1
  H  2438  1  0.71270300  0.91610670  0.56788500  1
  H  2439  1  0.68646900  0.05910800  0.58493200  1
  H  2440  1  0.70340000  0.02361200  0.56619500  1
  H  2441  1  0.64844200  0.96064170  0.55404600  1
  H  2442  1  0.66334900  0.95998570  0.52866300  1
  H  2443  1  0.76392200  0.97707870  0.56381600  1
  H  2444  1  0.77876300  0.97682770  0.53820000  1
  H  2445  1  0.72512700  0.06371100  0.61900900  1
  H  2446  1  0.73733900  0.11091700  0.61854600  1
  H  2447  1  0.62258400  0.12501900  0.60682800  1
  H  2448  1  0.61031800  0.07774600  0.60723500  1
  H  2501  1  0.82411000  0.48243200  0.69420000  1
  H  2502  1  0.78480600  0.48273700  0.67276200  1
  H  2503  1  0.91796210  0.45667100  0.66908400  1
  H  2504  1  0.87893100  0.45729900  0.64763400  1
  H  2505  1  0.80972200  0.41721100  0.65635800  1
  H  2506  1  0.78227200  0.38120400  0.63995800  1
  H  2507  1  0.77141000  0.45292700  0.61914800  1
  H  2508  1  0.74683100  0.48519600  0.60350700  1
  H  2509  1  0.81904000  0.52486200  0.65417700  1
  H  2510  1  0.78995600  0.55995300  0.63755300  1
  H  2511  1  0.68804500  0.56455800  0.61934900  1
  H  2512  1  0.67626100  0.61177600  0.61866200  1
  H  2513  1  0.80170000  0.57786800  0.60573700  1
  H  2514  1  0.78993600  0.62519100  0.60520200  1
  H  2515  1  0.71891800  0.55735800  0.58570000  1
  H  2516  1  0.70262100  0.52132100  0.56735500  1
  H  2517  1  0.72565500  0.37844100  0.58549300  1
  H  2518  1  0.70907500  0.41366300  0.56657500  1
  H  2519  1  0.76588600  0.47770500  0.55446100  1
  H  2520  1  0.75218300  0.47894800  0.52894900  1
  H  2521  1  0.65056000  0.45895500  0.56325000  1
  H  2522  1  0.63690100  0.45996200  0.53755500  1
  H  2523  1  0.69303500  0.37301400  0.62338100  1
  H  2524  1  0.68250400  0.32561900  0.62349700  1
  H  2525  1  0.79059300  0.31388500  0.60412100  1
  H  2526  1  0.80107200  0.36122600  0.60401400  1
  H  2579  1  0.82442900  0.45547700  0.26097100  1
  H  2580  1  0.78529200  0.45501100  0.28244800  1
  H  2581  1  0.91856210  0.48105700  0.28603600  1
  H  2582  1  0.87968700  0.48026100  0.30753000  1
  H  2583  1  0.81097200  0.52044100  0.29897900  1
  H  2584  1  0.78317600  0.55636300  0.31530500  1
  H  2585  1  0.77141500  0.48454700  0.33597000  1
  H  2586  1  0.74533800  0.45223900  0.35134400  1
  H  2587  1  0.81922500  0.41276800  0.30092400  1
  H  2588  1  0.78993600  0.37761600  0.31748300  1
  H  2589  1  0.68826200  0.37275000  0.33589300  1
  H  2590  1  0.67650900  0.32551000  0.33656200  1
  H  2591  1  0.80213400  0.35963700  0.34923800  1
  H  2592  1  0.79039600  0.31228500  0.34975900  1
  H  2593  1  0.72046800  0.37987000  0.36960300  1
  H  2594  1  0.70339400  0.41587900  0.38785300  1
  H  2595  1  0.72338300  0.55888500  0.36928300  1
  H  2596  1  0.70607500  0.52359300  0.38809400  1
  H  2597  1  0.76450700  0.46275300  0.40081000  1
  H  2598  1  0.74995400  0.46216900  0.42621400  1
  H  2599  1  0.64803400  0.47524700  0.39114600  1
  H  2600  1  0.63351500  0.47512000  0.41678700  1
  H  2601  1  0.69339700  0.56437500  0.33127100  1
  H  2602  1  0.68289200  0.61175500  0.33113500  1
  H  2603  1  0.78993900  0.62357500  0.35135400  1
  H  2604  1  0.80039300  0.57626100  0.35147800  1
  H  2615  1  0.16722000  0.47454700  0.98313410  1
  H  2619  1  0.32111200  0.48996500  0.95315410  1
  H  2621  1  0.37105600  0.43753700  0.95347310  1
  H  2622  1  0.41618600  0.45298400  0.95441110  1
  H  2623  1  0.38279300  0.46363100  0.94111010  1
  H  2625  1  0.42229800  0.49876300  0.96531910  1
  H  2626  1  0.38120500  0.51562400  0.97145410  1
  H  2627  1  0.39002100  0.51249100  0.95247610  1
  H  2629  1  0.27450500  0.45611500  0.94446310  1
  H  2631  1  0.18835100  0.48807500  0.00813700  1
  H  2638  1  0.24521700  0.97468970  0.97190010  1
  H  2642  1  0.09117100  0.98986670  0.00174200  1
  H  2644  1  0.04135500  0.93725170  0.00153200  1
  H  2645  1  0.99619206  0.95255070  0.00051500  1
  H  2646  1  0.02947400  0.96341970  0.01381600  1
  H  2648  1  0.99002306  0.99820675  0.98947610  1
  H  2649  1  0.03111000  0.01514300  0.98333410  1
  H  2650  1  0.02218000  0.01215400  0.00231200  1
  H  2652  1  0.13766200  0.95632370  0.01057500  1
  H  2654  1  0.22403400  0.98837170  0.94691310  1
  H  2661  1  0.66603500  0.97384270  0.48306200  1
  H  2665  1  0.82013300  0.98927170  0.45318300  1
  H  2667  1  0.87017000  0.93689570  0.45362600  1
  H  2668  1  0.91526510  0.95238470  0.45461700  1
  H  2669  1  0.88199400  0.96295970  0.44125600  1
  H  2671  1  0.92118810  0.99820275  0.46548700  1
  H  2672  1  0.88000700  0.01505000  0.47154700  1
  H  2673  1  0.88901600  0.01186100  0.45258500  1
  H  2675  1  0.77344800  0.95543970  0.44447600  1
  H  2677  1  0.68669700  0.98676770  0.50812900  1
  H  2684  1  0.74653100  0.47418800  0.47192600  1
  H  2688  1  0.59235400  0.48922700  0.50173800  1
  H  2690  1  0.54242500  0.43666100  0.50138200  1
  H  2691  1  0.49730200  0.45201700  0.50034100  1
  H  2692  1  0.53051000  0.46276700  0.51369800  1
  H  2694  1  0.49132100  0.49774500  0.48937900  1
  H  2695  1  0.53248800  0.51467500  0.48331200  1
  H  2696  1  0.52341100  0.51157800  0.50227400  1
  H  2698  1  0.63896700  0.45564800  0.51052700  1
  H  2700  1  0.72567500  0.48744200  0.44689400  1
  H  2707  1  0.25847400  0.72246200  0.82686900  1
  H  2711  1  0.13266800  0.68098700  0.86978600  1
  H  2713  1  0.05836000  0.71616500  0.86551900  1
  H  2714  1  0.04347100  0.71656700  0.88382000  1
  H  2715  1  0.05500900  0.68568300  0.87539300  1
  H  2717  1  0.09171400  0.71053200  0.90371710  1
  H  2718  1  0.13989300  0.70477900  0.89923700  1
  H  2719  1  0.10567500  0.67888500  0.89682500  1
  H  2721  1  0.14046500  0.66929900  0.84464000  1
  H  2723  1  0.26977100  0.76898200  0.83841500  1
  H  2730  1  0.25819700  0.21580000  0.12812900  1
  H  2734  1  0.13279600  0.25705100  0.08509000  1
  H  2736  1  0.05821200  0.22203900  0.08940100  1
  H  2737  1  0.04334800  0.22156100  0.07109800  1
  H  2738  1  0.05510900  0.25247000  0.07947400  1
  H  2740  1  0.09167300  0.22738800  0.05120100  1
  H  2741  1  0.13988700  0.23307800  0.05568400  1
  H  2742  1  0.10586000  0.25904700  0.05804400  1
  H  2744  1  0.14023600  0.26872900  0.11029100  1
  H  2746  1  0.26953000  0.16929900  0.11657800  1
  H  2753  1  0.15526000  0.71595000  0.12798800  1
  H  2757  1  0.25267600  0.69386400  0.07645700  1
  H  2759  1  0.33496400  0.68287500  0.07970200  1
  H  2760  1  0.36049800  0.70541400  0.06863500  1
  H  2761  1  0.34547800  0.71552000  0.08623700  1
  H  2763  1  0.32569800  0.74243200  0.05588300  1
  H  2764  1  0.27636500  0.74666600  0.05881700  1
  H  2765  1  0.30938800  0.75601700  0.07259700  1
  H  2767  1  0.26560400  0.77072800  0.10188100  1
  H  2769  1  0.14317100  0.66910800  0.11687700  1
  H  2776  1  0.15510700  0.22203400  0.82692900  1
  H  2780  1  0.25242500  0.24459300  0.87844100  1
  H  2782  1  0.33460200  0.25592800  0.87521100  1
  H  2783  1  0.36026700  0.23351400  0.88628000  1
  H  2784  1  0.34530000  0.22332600  0.86868100  1
  H  2786  1  0.32567900  0.19635300  0.89904700  1
  H  2787  1  0.27637300  0.19188300  0.89611200  1
  H  2788  1  0.30945500  0.18267300  0.88233700  1
  H  2790  1  0.26545200  0.16763800  0.85314000  1
  H  2792  1  0.14308900  0.26894800  0.83786400  1
  H  2799  1  0.75911200  0.22203400  0.32712600  1
  H  2803  1  0.63336400  0.18054600  0.37000000  1
  H  2805  1  0.55866600  0.21528900  0.36553600  1
  H  2806  1  0.54363900  0.21579700  0.38382000  1
  H  2807  1  0.55556800  0.18489000  0.37549700  1
  H  2809  1  0.59181100  0.21022600  0.40378500  1
  H  2810  1  0.64007800  0.20467100  0.39937100  1
  H  2811  1  0.60615000  0.17857900  0.39700500  1
  H  2813  1  0.64084000  0.16887900  0.34484400  1
  H  2815  1  0.77043000  0.26852500  0.33884500  1
  H  2822  1  0.75875500  0.71541800  0.62790000  1
  H  2826  1  0.63349500  0.75666300  0.58487200  1
  H  2828  1  0.55845700  0.72214700  0.58939800  1
  H  2829  1  0.54346700  0.72153500  0.57111000  1
  H  2830  1  0.55565700  0.75247600  0.57936600  1
  H  2832  1  0.59173700  0.72682200  0.55114900  1
  H  2833  1  0.64004400  0.73229200  0.55556700  1
  H  2834  1  0.60633900  0.75848600  0.55786000  1
  H  2836  1  0.64053500  0.76832300  0.61009300  1
  H  2838  1  0.77009900  0.66892900  0.61619100  1
  H  2845  1  0.65582700  0.21546600  0.62842300  1
  H  2849  1  0.75283400  0.19344100  0.57680500  1
  H  2851  1  0.83504900  0.18243300  0.57990800  1
  H  2852  1  0.86052400  0.20495600  0.56881200  1
  H  2853  1  0.84568800  0.21506500  0.58643700  1
  H  2855  1  0.82567100  0.24199500  0.55610300  1
  H  2856  1  0.77638000  0.24628300  0.55911000  1
  H  2857  1  0.80955900  0.25560600  0.57283900  1
  H  2859  1  0.76499200  0.27067400  0.60182200  1
  H  2861  1  0.64413700  0.16850600  0.61758800  1
  H  2868  1  0.65567000  0.72173600  0.32646200  1
  H  2872  1  0.75252300  0.74416700  0.37809600  1
  H  2874  1  0.83454300  0.75556200  0.37503900  1
  H  2875  1  0.86019500  0.73314400  0.38610800  1
  H  2876  1  0.84542000  0.72301400  0.36847500  1
  H  2878  1  0.82563700  0.69587500  0.39878900  1
  H  2879  1  0.77637700  0.69131500  0.39578000  1
  H  2880  1  0.80963100  0.68222400  0.38204200  1
  H  2882  1  0.76485800  0.66689500  0.35314500  1
  H  2884  1  0.64399700  0.76873600  0.33715400  1
  H  2891  1  0.01428400  0.45293600  0.71858600  1
  H  2895  1  0.84644400  0.48232000  0.72960900  1
  H  2897  1  0.83757500  0.54497100  0.73181700  1
  H  2898  1  0.79971400  0.54564700  0.74440600  1
  H  2899  1  0.79631100  0.52504200  0.72872700  1
  H  2901  1  0.79055600  0.50720800  0.76160900  1
  H  2902  1  0.82111500  0.47933300  0.76057000  1
  H  2903  1  0.78555200  0.48419600  0.74703300  1
  H  2905  1  0.88212500  0.49819200  0.70804100  1
  H  2907  1  0.04131200  0.45905800  0.74353700  1
  H  2914  1  0.01432700  0.48529000  0.23622100  1
  H  2918  1  0.84631300  0.45563700  0.22555400  1
  H  2920  1  0.83747800  0.39295100  0.22334400  1
  H  2921  1  0.79941400  0.39220400  0.21084500  1
  H  2922  1  0.79624200  0.41277700  0.22654100  1
  H  2924  1  0.78994800  0.43064800  0.19368000  1
  H  2925  1  0.82049000  0.45859500  0.19466300  1
  H  2926  1  0.78514300  0.45362300  0.20827900  1
  H  2928  1  0.88226500  0.43982500  0.24703300  1
  H  2930  1  0.04101300  0.47919800  0.21122600  1
  H  2937  1  0.39746600  0.95255870  0.23649500  1
  H  2941  1  0.56543400  0.98300070  0.22576600  1
  H  2943  1  0.57339300  0.04574000  0.22338300  1
  H  2944  1  0.61132600  0.04662700  0.21082800  1
  H  2945  1  0.61493100  0.02622400  0.22657700  1
  H  2947  1  0.62115400  0.00809200  0.19375600  1
  H  2948  1  0.59100600  0.97995070  0.19485900  1
  H  2949  1  0.62641800  0.98528470  0.20841000  1
  H  2951  1  0.52932500  0.99796475  0.24736400  1
  H  2953  1  0.37050200  0.95892170  0.21156300  1
  H  2960  1  0.39732000  0.98535970  0.71856400  1
  H  2964  1  0.56540300  0.95594370  0.72917900  1
  H  2966  1  0.57425500  0.89329200  0.73142800  1
  H  2967  1  0.61225600  0.89264100  0.74395600  1
  H  2968  1  0.61550200  0.91319470  0.72825200  1
  H  2970  1  0.62162500  0.93113270  0.76110900  1
  H  2971  1  0.59107500  0.95901070  0.76009100  1
  H  2972  1  0.62649000  0.95409670  0.74650300  1
  H  2974  1  0.52925400  0.94020770  0.70766100  1
  H  2976  1  0.37071200  0.97929170  0.74357000  1
  C  1  1  0.74036000  0.69940700  0.83128300  1
  C  2  1  0.75643900  0.68004500  0.84007800  1
  C  3  1  0.77072100  0.69250000  0.85256500  1
  C  5  1  0.74537500  0.72422300  0.83800900  1
  C  6  1  0.73372000  0.74920700  0.83208300  1
  C  7  1  0.74347500  0.77448900  0.83807300  1
  C  9  1  0.76861800  0.80587000  0.85261600  1
  C  10  1  0.75133000  0.81877700  0.84086200  1
  C  11  1  0.73520100  0.79945500  0.83204000  1
  C  12  1  0.78768100  0.81836900  0.86443900  1
  C  13  1  0.80224100  0.80488600  0.87689900  1
  C  15  1  0.81717800  0.77314300  0.89336500  1
  C  16  1  0.82744700  0.79797200  0.89913800  1
  C  17  1  0.81874000  0.81737000  0.88898700  1
  C  18  1  0.82206900  0.74821400  0.90057800  1
  C  19  1  0.81564300  0.72295300  0.89399000  1
  C  21  1  0.80072700  0.69165200  0.87752700  1
  C  22  1  0.81310800  0.67870000  0.89015200  1
  C  23  1  0.82148100  0.69799400  0.90041400  1
  C  24  1  0.78795900  0.67910000  0.86453900  1
  C  25  1  0.79360400  0.65098700  0.86350800  1
  C  26  1  0.76420700  0.63285700  0.86721000  1
  C  27  1  0.77133000  0.60516100  0.86741900  1
  C  28  1  0.80799900  0.59513500  0.86400000  1
  C  29  1  0.83729100  0.61331000  0.86036300  1
  C  30  1  0.83016500  0.64095800  0.86002400  1
  C  31  1  0.83150100  0.74868700  0.91567900  1
  C  32  1  0.80269900  0.75488300  0.92589200  1
  C  33  1  0.81099800  0.75568100  0.94084500  1
  C  34  1  0.84808200  0.75007600  0.94596900  1
  C  35  1  0.87701600  0.74386600  0.93578500  1
  C  36  1  0.86880700  0.74326000  0.92075700  1
  C  37  1  0.79297800  0.84655100  0.86374200  1
  C  38  1  0.82818100  0.85704200  0.85887100  1
  C  39  1  0.83502900  0.88473500  0.85927300  1
  C  40  1  0.80682900  0.90250900  0.86439800  1
  C  41  1  0.77152200  0.89197200  0.86923600  1
  C  42  1  0.76467600  0.86423500  0.86893600  1
  C  43  1  0.71081700  0.74898800  0.81924200  1
  C  44  1  0.72750500  0.75024700  0.80525800  1
  C  45  1  0.67061400  0.74827500  0.82040600  1
  C  46  1  0.64760300  0.74886000  0.80784600  1
  C  47  1  0.66408900  0.74986300  0.79383600  1
  C  48  1  0.70439700  0.75068800  0.79270600  1
  C  79  1  0.73923200  0.79863100  0.16685500  1
  C  80  1  0.75548400  0.81800400  0.15809400  1
  C  81  1  0.77026000  0.80552800  0.14570600  1
  C  83  1  0.74464600  0.77378200  0.16021800  1
  C  84  1  0.73313500  0.74877900  0.16619100  1
  C  85  1  0.74318300  0.72350900  0.16027500  1
  C  87  1  0.76860100  0.69213600  0.14581300  1
  C  88  1  0.75143100  0.67924100  0.15760900  1
  C  89  1  0.73519900  0.69855000  0.16639100  1
  C  90  1  0.78760000  0.67960600  0.13399500  1
  C  91  1  0.80215200  0.69303900  0.12150800  1
  C  93  1  0.81776800  0.72479300  0.10512200  1
  C  94  1  0.82689300  0.69989600  0.09918200  1
  C  95  1  0.81781600  0.68048400  0.10929000  1
  C  96  1  0.82355800  0.74975800  0.09803900  1
  C  97  1  0.81715900  0.77501900  0.10462000  1
  C  99  1  0.80149300  0.80634900  0.12095400  1
  C  100  1  0.81496600  0.81927100  0.10847500  1
  C  101  1  0.82399000  0.79996400  0.09830900  1
  C  102  1  0.78806100  0.81891600  0.13383500  1
  C  103  1  0.79368900  0.84704200  0.13488400  1
  C  104  1  0.76450700  0.86510800  0.13093200  1
  C  105  1  0.77168400  0.89281000  0.13072100  1
  C  106  1  0.80816500  0.90290600  0.13442000  1
  C  107  1  0.83724200  0.88478900  0.13830800  1
  C  108  1  0.83006300  0.85713500  0.13864600  1
  C  109  1  0.83355600  0.74942900  0.08299500  1
  C  110  1  0.80465500  0.74514500  0.07253700  1
  C  111  1  0.81346100  0.74498300  0.05761900  1
  C  112  1  0.85125300  0.74953100  0.05273400  1
  C  113  1  0.88026600  0.75311700  0.06322800  1
  C  114  1  0.87153600  0.75324300  0.07821700  1
  C  115  1  0.79283700  0.65143000  0.13470800  1
  C  116  1  0.82813100  0.64100700  0.13948100  1
  C  117  1  0.83494200  0.61332200  0.13909200  1
  C  118  1  0.80663600  0.59549100  0.13405900  1
  C  119  1  0.77123100  0.60596300  0.12932100  1
  C  120  1  0.76440700  0.63368900  0.12962100  1
  C  121  1  0.71025100  0.74896600  0.17904600  1
  C  122  1  0.72698800  0.74780100  0.19302500  1
  C  123  1  0.67004100  0.74961000  0.17791400  1
  C  124  1  0.64708300  0.74903900  0.19049300  1
  C  125  1  0.66361800  0.74810900  0.20449700  1
  C  126  1  0.70393400  0.74734800  0.20559400  1
  C  157  1  0.93048900  0.20049500  0.16696300  1
  C  158  1  0.91473700  0.18093600  0.15819600  1
  C  159  1  0.89835500  0.19335300  0.14608700  1
  C  161  1  0.92320800  0.22535700  0.16060800  1
  C  162  1  0.93376400  0.25048800  0.16668000  1
  C  163  1  0.92309200  0.27565000  0.16079600  1
  C  165  1  0.89771400  0.30678200  0.14617500  1
  C  166  1  0.91337600  0.31977800  0.15824300  1
  C  167  1  0.92965800  0.30063300  0.16711600  1
  C  168  1  0.87937400  0.31912700  0.13414600  1
  C  169  1  0.86606800  0.30551000  0.12151400  1
  C  171  1  0.85151100  0.27351800  0.10510400  1
  C  172  1  0.84346700  0.29837800  0.09888900  1
  C  173  1  0.85195300  0.31793000  0.10898500  1
  C  174  1  0.84570500  0.24845600  0.09810500  1
  C  175  1  0.85141400  0.22328000  0.10487600  1
  C  177  1  0.86678200  0.19217200  0.12138800  1
  C  178  1  0.85270400  0.17910100  0.10905200  1
  C  179  1  0.84396900  0.19825800  0.09876300  1
  C  180  1  0.88062000  0.17980300  0.13426100  1
  C  181  1  0.87620700  0.15159600  0.13529000  1
  C  182  1  0.90370700  0.13416900  0.12929200  1
  C  183  1  0.89742700  0.10637200  0.12928000  1
  C  184  1  0.86353600  0.09547300  0.13525000  1
  C  185  1  0.83654600  0.11298700  0.14148100  1
  C  186  1  0.84268600  0.14077700  0.14148000  1
  C  187  1  0.83652800  0.24859700  0.08297100  1
  C  188  1  0.86579200  0.25367300  0.07275500  1
  C  189  1  0.85768800  0.25438000  0.05778200  1
  C  190  1  0.82033900  0.24973400  0.05263100  1
  C  191  1  0.79095800  0.24459000  0.06281700  1
  C  192  1  0.79897200  0.24412600  0.07786300  1
  C  193  1  0.87366700  0.34728100  0.13474900  1
  C  194  1  0.83707300  0.35749100  0.13801700  1
  C  195  1  0.83021100  0.38516300  0.13757900  1
  C  196  1  0.85981700  0.40319300  0.13409400  1
  C  197  1  0.89648600  0.39298300  0.13084500  1
  C  198  1  0.90331900  0.36525400  0.13111200  1
  C  199  1  0.95671200  0.25053300  0.17951300  1
  C  200  1  0.94000900  0.25053400  0.19351100  1
  C  201  1  0.99692100  0.25093200  0.17834500  1
  C  202  1  0.01991600  0.25134400  0.19091200  1
  C  203  1  0.00343400  0.25108900  0.20493200  1
  C  204  1  0.96311100  0.25084700  0.20606800  1
  C  235  1  0.93176600  0.29781500  0.83198500  1
  C  236  1  0.91581100  0.31733300  0.84070600  1
  C  237  1  0.89880100  0.30485600  0.85268000  1
  C  239  1  0.92396500  0.27291100  0.83822000  1
  C  240  1  0.93432900  0.24780300  0.83209300  1
  C  241  1  0.92340600  0.22262800  0.83792000  1
  C  243  1  0.89787500  0.19142900  0.85249500  1
  C  244  1  0.91331900  0.17850100  0.84037400  1
  C  245  1  0.92969500  0.19768100  0.83152900  1
  C  246  1  0.87960100  0.17900400  0.86452600  1
  C  247  1  0.86632100  0.19255900  0.87717200  1
  C  249  1  0.85104000  0.22451900  0.89347700  1
  C  250  1  0.84398500  0.19962300  0.89983700  1
  C  251  1  0.85283900  0.18007700  0.88979000  1
  C  252  1  0.84440300  0.24957800  0.90034900  1
  C  253  1  0.84998800  0.27475100  0.89355100  1
  C  255  1  0.86591000  0.30591100  0.87713300  1
  C  256  1  0.85075100  0.31890900  0.88929700  1
  C  257  1  0.84163600  0.29972600  0.89953200  1
  C  258  1  0.88044100  0.31834000  0.86437900  1
  C  259  1  0.87609500  0.34654500  0.86334000  1
  C  260  1  0.90322200  0.36398500  0.86961000  1
  C  261  1  0.89696200  0.39177100  0.86960600  1
  C  262  1  0.86346000  0.40265300  0.86334800  1
  C  263  1  0.83682700  0.38512300  0.85686800  1
  C  264  1  0.84296200  0.35734400  0.85687400  1
  C  265  1  0.83468100  0.24954500  0.91542900  1
  C  266  1  0.86394600  0.24642300  0.92585800  1
  C  267  1  0.85536000  0.24628500  0.94079700  1
  C  268  1  0.81739500  0.24971100  0.94574700  1
  C  269  1  0.78807600  0.25220000  0.93528400  1
  C  270  1  0.79658200  0.25227800  0.92027300  1
  C  271  1  0.87391600  0.15083800  0.86391900  1
  C  272  1  0.83725400  0.14057100  0.86075400  1
  C  273  1  0.83040700  0.11288600  0.86117900  1
  C  274  1  0.86008900  0.09490200  0.86455200  1
  C  275  1  0.89683000  0.10517000  0.86769600  1
  C  276  1  0.90365800  0.13290900  0.86743300  1
  C  277  1  0.95723900  0.24779600  0.81924100  1
  C  278  1  0.94046800  0.24781100  0.80525500  1
  C  279  1  0.99745600  0.24738700  0.82036900  1
  C  280  1  0.02037900  0.24697500  0.80777900  1
  C  281  1  0.00382500  0.24721400  0.79376900  1
  C  282  1  0.96349300  0.24749000  0.79267500  1
  C  313  1  0.24488100  0.19968900  0.33019100  1
  C  314  1  0.26065300  0.18031500  0.33905600  1
  C  315  1  0.27239400  0.19249700  0.35199600  1
  C  317  1  0.24732200  0.22424800  0.33738600  1
  C  318  1  0.23477000  0.24914000  0.33158800  1
  C  319  1  0.24356500  0.27435900  0.33788500  1
  C  321  1  0.26825200  0.30557800  0.35265400  1
  C  322  1  0.24940900  0.31865800  0.34131600  1
  C  323  1  0.23342800  0.29942300  0.33240700  1
  C  324  1  0.28770100  0.31797700  0.36441300  1
  C  325  1  0.30285400  0.30435600  0.37672100  1
  C  327  1  0.31746700  0.27255500  0.39317700  1
  C  328  1  0.32899700  0.29723700  0.39878200  1
  C  329  1  0.32047600  0.31667400  0.38863100  1
  C  330  1  0.32150000  0.24765400  0.40048500  1
  C  331  1  0.31456900  0.22245600  0.39390600  1
  C  333  1  0.30006200  0.19130100  0.37732500  1
  C  334  1  0.31110600  0.17823400  0.39009500  1
  C  335  1  0.31924500  0.19745900  0.40042300  1
  C  336  1  0.28844900  0.17889900  0.36414400  1
  C  337  1  0.29427500  0.15079500  0.36308500  1
  C  338  1  0.26457300  0.13260100  0.36630600  1
  C  339  1  0.27171800  0.10490500  0.36653800  1
  C  340  1  0.30870000  0.09491500  0.36360000  1
  C  341  1  0.33827700  0.11316100  0.36042200  1
  C  342  1  0.33115800  0.14081500  0.36008200  1
  C  343  1  0.33084100  0.24814400  0.41559700  1
  C  344  1  0.30222800  0.25500300  0.42576300  1
  C  345  1  0.31045600  0.25581400  0.44072300  1
  C  346  1  0.34728700  0.24961300  0.44590900  1
  C  347  1  0.37603900  0.24275700  0.43577100  1
  C  348  1  0.36789700  0.24210000  0.42073800  1
  C  349  1  0.29297700  0.34616900  0.36376000  1
  C  350  1  0.32778100  0.35667700  0.35849600  1
  C  351  1  0.33474600  0.38435600  0.35891800  1
  C  352  1  0.30702400  0.40210700  0.36443100  1
  C  353  1  0.27211500  0.39155500  0.36966400  1
  C  354  1  0.26518100  0.36382600  0.36936300  1
  C  355  1  0.21206700  0.24878100  0.31864800  1
  C  356  1  0.22704500  0.25700900  0.30506800  1
  C  357  1  0.17365400  0.24014900  0.31928600  1
  C  358  1  0.15074300  0.23992200  0.30669700  1
  C  359  1  0.16532200  0.24879600  0.29321700  1
  C  360  1  0.20392200  0.25709200  0.29251200  1
  C  391  1  0.24371400  0.29762300  0.66795000  1
  C  392  1  0.25968300  0.31698800  0.65911200  1
  C  393  1  0.27190600  0.30475300  0.64625800  1
  C  395  1  0.24651700  0.27300600  0.66083300  1
  C  396  1  0.23406200  0.24809700  0.66666667  1
  C  397  1  0.24313100  0.22286800  0.66046100  1
  C  399  1  0.26808400  0.19162700  0.64578500  1
  C  400  1  0.24936900  0.17856700  0.65717400  1
  C  401  1  0.23326000  0.19780400  0.66602900  1
  C  402  1  0.28746400  0.17918000  0.63403100  1
  C  403  1  0.30260000  0.19271900  0.62168200  1
  C  405  1  0.31789500  0.22451100  0.60528400  1
  C  406  1  0.32829400  0.19972300  0.59952400  1
  C  407  1  0.31941900  0.18029300  0.60964800  1
  C  408  1  0.32285300  0.24945700  0.59809900  1
  C  409  1  0.31600500  0.27467000  0.60466400  1
  C  411  1  0.30083800  0.30587600  0.62112300  1
  C  412  1  0.31296200  0.31890200  0.60847600  1
  C  413  1  0.32168600  0.29965400  0.59823900  1
  C  414  1  0.28855200  0.31831200  0.63420200  1
  C  415  1  0.29439000  0.34642600  0.63527300  1
  C  416  1  0.26487800  0.36456900  0.63181400  1
  C  417  1  0.27208900  0.39227100  0.63158500  1
  C  418  1  0.30892000  0.40231300  0.63479700  1
  C  419  1  0.33830900  0.38411700  0.63821000  1
  C  420  1  0.33112600  0.35645800  0.63854300  1
  C  421  1  0.33278800  0.24910400  0.58304500  1
  C  422  1  0.30402400  0.24413000  0.57262000  1
  C  423  1  0.31276800  0.24394600  0.55769500  1
  C  424  1  0.35035500  0.24912200  0.55276300  1
  C  425  1  0.37925900  0.25339400  0.56322700  1
  C  426  1  0.37058600  0.25356800  0.57822000  1
  C  427  1  0.29268500  0.15099600  0.63471800  1
  C  428  1  0.32758400  0.14056400  0.63989400  1
  C  429  1  0.33452900  0.11289600  0.63949200  1
  C  430  1  0.30671600  0.09508100  0.63406100  1
  C  431  1  0.27169800  0.10555100  0.62892100  1
  C  432  1  0.26477200  0.13326900  0.62921700  1
  C  433  1  0.21135000  0.24844800  0.67962300  1
  C  434  1  0.22641700  0.24046400  0.69322700  1
  C  435  1  0.17290100  0.25693900  0.67898900  1
  C  436  1  0.15006600  0.25728200  0.69160000  1
  C  437  1  0.16475100  0.24867500  0.70511200  1
  C  438  1  0.20337700  0.24050300  0.70580700  1
  C  469  1  0.42607200  0.70064900  0.66811000  1
  C  470  1  0.41063200  0.68108900  0.65927100  1
  C  471  1  0.39723200  0.69326800  0.64657200  1
  C  473  1  0.42183000  0.72531100  0.66114400  1
  C  474  1  0.43344600  0.75037900  0.66703100  1
  C  475  1  0.42376900  0.77551700  0.66085000  1
  C  477  1  0.39871000  0.80651100  0.64604400  1
  C  478  1  0.41611800  0.81972700  0.65768100  1
  C  479  1  0.43235000  0.80066100  0.66661300  1
  C  480  1  0.37984700  0.81874200  0.63409800  1
  C  481  1  0.36581300  0.80499700  0.62162100  1
  C  483  1  0.35153100  0.77293700  0.60522400  1
  C  484  1  0.34211400  0.79769400  0.59917400  1
  C  485  1  0.35043500  0.81728200  0.60927000  1
  C  486  1  0.34663600  0.74787700  0.59812900  1
  C  487  1  0.35297000  0.72273800  0.60485700  1
  C  489  1  0.36812300  0.69174400  0.62145100  1
  C  490  1  0.35552800  0.67855700  0.60892200  1
  C  491  1  0.34690400  0.69766100  0.59859100  1
  C  492  1  0.38083700  0.67952200  0.63453000  1
  C  493  1  0.37621000  0.65132300  0.63559800  1
  C  494  1  0.40431700  0.63378400  0.63012600  1
  C  495  1  0.39799400  0.60598800  0.63012300  1
  C  496  1  0.36345500  0.59518800  0.63558100  1
  C  497  1  0.33586200  0.61280700  0.64132500  1
  C  498  1  0.34202300  0.64059800  0.64128900  1
  C  499  1  0.33752400  0.74805700  0.58298900  1
  C  500  1  0.36662100  0.75381500  0.57281100  1
  C  501  1  0.35855100  0.75455500  0.55783600  1
  C  502  1  0.32140000  0.74931200  0.55264300  1
  C  503  1  0.29218600  0.74350200  0.56279300  1
  C  504  1  0.30016700  0.74296400  0.57784200  1
  C  505  1  0.37421200  0.84691100  0.63466000  1
  C  506  1  0.33793200  0.85715300  0.63837800  1
  C  507  1  0.33100100  0.88481600  0.63792600  1
  C  508  1  0.36025800  0.90281200  0.63399600  1
  C  509  1  0.39661800  0.89257500  0.63029600  1
  C  510  1  0.40348600  0.86485000  0.63055600  1
  C  511  1  0.45629800  0.75027200  0.67993100  1
  C  512  1  0.44095400  0.75740800  0.69362700  1
  C  513  1  0.49511000  0.74267900  0.67915600  1
  C  514  1  0.51802400  0.74232600  0.69174100  1
  C  515  1  0.50302300  0.75005300  0.70535600  1
  C  516  1  0.46407400  0.75738200  0.70618400  1
  C  547  1  0.42719700  0.79685800  0.33074800  1
  C  548  1  0.41151600  0.81637300  0.33953600  1
  C  549  1  0.39761400  0.80413100  0.35214600  1
  C  551  1  0.42257800  0.77215500  0.33764300  1
  C  552  1  0.43410800  0.74710200  0.33172800  1
  C  553  1  0.42421100  0.72194400  0.33786200  1
  C  555  1  0.39896200  0.69088000  0.35261700  1
  C  556  1  0.41623800  0.67772500  0.34094300  1
  C  557  1  0.43258400  0.69682400  0.33204500  1
  C  558  1  0.38012900  0.67857100  0.36456000  1
  C  559  1  0.36606700  0.69224000  0.37704600  1
  C  561  1  0.35103500  0.72427200  0.39334100  1
  C  562  1  0.34254800  0.69945100  0.39952600  1
  C  563  1  0.35123500  0.67987100  0.38947900  1
  C  564  1  0.34535700  0.74934600  0.40031700  1
  C  565  1  0.35160000  0.77449300  0.39357300  1
  C  567  1  0.36730300  0.80554100  0.37706700  1
  C  568  1  0.35367500  0.81867100  0.38944900  1
  C  569  1  0.34466900  0.79954100  0.39972800  1
  C  570  1  0.38065500  0.81781300  0.36408700  1
  C  571  1  0.37607600  0.84600800  0.36300600  1
  C  572  1  0.40388900  0.86357200  0.36872000  1
  C  573  1  0.39758000  0.89135800  0.36870500  1
  C  574  1  0.36335300  0.90213000  0.36298800  1
  C  575  1  0.33604800  0.88448500  0.35702400  1
  C  576  1  0.34220200  0.85670300  0.35706700  1
  C  577  1  0.33568200  0.74928100  0.41540100  1
  C  578  1  0.36484000  0.74549700  0.42580800  1
  C  579  1  0.35628200  0.74535100  0.44075100  1
  C  580  1  0.31846300  0.74939700  0.44572600  1
  C  581  1  0.28922800  0.75253200  0.43528100  1
  C  582  1  0.29770700  0.75264700  0.42026800  1
  C  583  1  0.37453100  0.65038800  0.36399000  1
  C  584  1  0.33819700  0.64008400  0.36034700  1
  C  585  1  0.33128000  0.61240900  0.36079400  1
  C  586  1  0.36060400  0.59446400  0.36464800  1
  C  587  1  0.39702000  0.60475900  0.36826900  1
  C  588  1  0.40388600  0.63249800  0.36800500  1
  C  589  1  0.45692800  0.74724500  0.31881200  1
  C  590  1  0.44147300  0.74021200  0.30511200  1
  C  591  1  0.49577500  0.75483500  0.31955500  1
  C  592  1  0.51860100  0.75529000  0.30694300  1
  C  593  1  0.50347700  0.74767600  0.29332200  1
  C  594  1  0.46449900  0.74032700  0.29253000  1
  C  625  1  0.87214800  0.74915800  0.98425300  1
  C  627  1  0.82379400  0.75378300  0.00260400  1
  C  628  1  0.85177300  0.75559000  0.01357400  1
  C  630  1  0.90064100  0.75140200  0.99525000  1
  C  633  1  0.95984200  0.75999900  0.98339000  1
  C  636  1  0.01399600  0.73661200  0.97408700  1
  C  640  1  0.02021300  0.78227300  0.98473700  1
  C  644  1  0.87872000  0.74490100  0.96953800  1
  C  646  1  0.84113400  0.75893600  0.02792500  1
  C  648  1  0.79630700  0.24909400  0.01430800  1
  C  650  1  0.84469100  0.25382000  0.99596200  1
  C  651  1  0.81674800  0.25552600  0.98497300  1
  C  653  1  0.76784900  0.25122200  0.00328900  1
  C  656  1  0.70856400  0.25976300  0.01507900  1
  C  659  1  0.65440900  0.23629000  0.02439900  1
  C  663  1  0.64813400  0.28183400  0.01362000  1
  C  667  1  0.78968700  0.24489100  0.02903600  1
  C  669  1  0.82743100  0.25900100  0.97062700  1
  C  671  1  0.37107400  0.24859100  0.48423400  1
  C  673  1  0.32262500  0.25311000  0.50255500  1
  C  674  1  0.35052900  0.25485500  0.51356000  1
  C  676  1  0.39950400  0.25077700  0.49526000  1
  C  679  1  0.45879800  0.25935000  0.48344600  1
  C  682  1  0.51309400  0.23597800  0.47424400  1
  C  686  1  0.51912300  0.28167900  0.48485900  1
  C  690  1  0.37773200  0.24435800  0.46952000  1
  C  692  1  0.33979600  0.25806100  0.52791900  1
  C  694  1  0.29755500  0.74864400  0.51430000  1
  C  696  1  0.34599600  0.75335000  0.49597500  1
  C  697  1  0.31809500  0.75502000  0.48496800  1
  C  699  1  0.26913400  0.75073800  0.50326600  1
  C  702  1  0.20979200  0.75917700  0.51504700  1
  C  705  1  0.15551300  0.73571000  0.52426500  1
  C  709  1  0.14942100  0.78132400  0.51356200  1
  C  713  1  0.29089300  0.74439100  0.52902000  1
  C  715  1  0.32882800  0.75839700  0.47061600  1
  C  717  1  0.81514400  0.97418700  0.86656700  1
  C  719  1  0.86464000  0.00109800  0.85598200  1
  C  720  1  0.85319200  0.02318800  0.86441800  1
  C  722  1  0.80401200  0.99616400  0.87541900  1
  C  725  1  0.75701700  0.98051300  0.89269000  1
  C  728  1  0.69079400  0.98676600  0.89791300  1
  C  732  1  0.73852800  0.98038300  0.91776700  1
  C  736  1  0.79681300  0.94981400  0.86617400  1
  C  738  1  0.87063400  0.04781500  0.86328400  1
  C  740  1  0.81491500  0.52382100  0.13194100  1
  C  742  1  0.86439700  0.49701700  0.14254400  1
  C  743  1  0.85294700  0.47489300  0.13412000  1
  C  745  1  0.80381500  0.50181900  0.12308600  1
  C  748  1  0.75699300  0.51741700  0.10576600  1
  C  751  1  0.69073400  0.51125900  0.10053700  1
  C  755  1  0.73854900  0.51743800  0.08068400  1
  C  759  1  0.79658300  0.54816100  0.13231500  1
  C  761  1  0.87038000  0.45029600  0.13526700  1
  C  763  1  0.85269400  0.02387100  0.13062100  1
  C  765  1  0.80467500  0.99698500  0.14220800  1
  C  766  1  0.81566500  0.97459600  0.13390300  1
  C  768  1  0.86332900  0.00153900  0.12200000  1
  C  771  1  0.89768600  0.98902000  0.10081300  1
  C  774  1  0.96553200  0.98386300  0.09839200  1
  C  778  1  0.93126400  0.02126600  0.08587500  1
  C  782  1  0.86976400  0.04881400  0.12939100  1
  C  784  1  0.79827600  0.95001500  0.13542700  1
  C  786  1  0.85252300  0.47425500  0.86790000  1
  C  788  1  0.80451300  0.50097800  0.85625800  1
  C  789  1  0.81549800  0.52344300  0.86452000  1
  C  791  1  0.86315300  0.49666000  0.87647800  1
  C  794  1  0.89747700  0.50937100  0.89764900  1
  C  797  1  0.96529100  0.51484700  0.90006800  1
  C  801  1  0.93124200  0.47729700  0.91259700  1
  C  805  1  0.86960800  0.44935300  0.86917400  1
  C  807  1  0.79812600  0.54798900  0.86294000  1
  C  809  1  0.31553100  0.47377500  0.36669300  1
  C  811  1  0.36517100  0.50067800  0.35619400  1
  C  812  1  0.35367200  0.52275900  0.36462500  1
  C  814  1  0.30435800  0.49574700  0.37554500  1
  C  817  1  0.25744700  0.48006300  0.39282600  1
  C  820  1  0.19112500  0.48602000  0.39796200  1
  C  824  1  0.23878400  0.48009100  0.41788400  1
  C  828  1  0.29718100  0.44939900  0.36628500  1
  C  830  1  0.37115400  0.54738000  0.36353500  1
  C  832  1  0.31524300  0.02342100  0.63182900  1
  C  834  1  0.36483700  0.99661800  0.64236500  1
  C  835  1  0.35335300  0.97450200  0.63394300  1
  C  837  1  0.30409800  0.00141900  0.62298100  1
  C  840  1  0.25738500  0.01704100  0.60564200  1
  C  843  1  0.19102200  0.01121300  0.60049700  1
  C  847  1  0.23878100  0.01686200  0.58057700  1
  C  851  1  0.29687300  0.04775700  0.63222100  1
  C  853  1  0.37081800  0.94991100  0.63505100  1
  C  855  1  0.35279300  0.52355600  0.63088400  1
  C  857  1  0.30519200  0.49651700  0.64262300  1
  C  858  1  0.31632200  0.47409400  0.63437200  1
  C  860  1  0.36359200  0.50118000  0.62232300  1
  C  863  1  0.39781700  0.48863800  0.60111500  1
  C  866  1  0.46563000  0.48342100  0.59860000  1
  C  870  1  0.43131900  0.52085700  0.58612900  1
  C  874  1  0.36957900  0.54859700  0.62956700  1
  C  876  1  0.29911700  0.44945300  0.63599100  1
  C  878  1  0.35260800  0.97376600  0.36760300  1
  C  880  1  0.30500600  0.00065000  0.35581900  1
  C  881  1  0.31610500  0.02313800  0.36404500  1
  C  883  1  0.36336100  0.99619900  0.37614200  1
  C  886  1  0.39751400  0.00888300  0.39735500  1
  C  889  1  0.46528400  0.01447100  0.39986900  1
  C  893  1  0.43127400  0.97680300  0.41231000  1
  C  897  1  0.36941600  0.94877100  0.36895400  1
  C  899  1  0.29889700  0.04773900  0.36238500  1
  C  901  1  0.55482400  0.75764300  0.73924500  1
  C  903  1  0.61798300  0.74146400  0.74434400  1
  C  904  1  0.61476000  0.74919200  0.75906200  1
  C  906  1  0.55104400  0.76508000  0.75413500  1
  C  909  1  0.48546900  0.77488000  0.75864600  1
  C  912  1  0.44378800  0.81261300  0.75884300  1
  C  916  1  0.43418000  0.77428100  0.77584600  1
  C  920  1  0.52781800  0.76278900  0.72856400  1
  C  922  1  0.64442000  0.74586000  0.76889500  1
  C  924  1  0.55487800  0.74032400  0.25930400  1
  C  926  1  0.61795700  0.75662500  0.25405900  1
  C  927  1  0.61454000  0.74887200  0.23934900  1
  C  929  1  0.55088100  0.73289200  0.24441800  1
  C  932  1  0.48523800  0.72298800  0.24003900  1
  C  935  1  0.44359400  0.68515700  0.23992100  1
  C  939  1  0.43367200  0.72349200  0.22295800  1
  C  943  1  0.52800100  0.73513100  0.27004000  1
  C  945  1  0.64409500  0.75221400  0.22945700  1
  C  947  1  0.11301800  0.25732800  0.25950200  1
  C  949  1  0.04982500  0.24119100  0.25432700  1
  C  950  1  0.05298800  0.24928100  0.23966200  1
  C  952  1  0.11677500  0.26509200  0.24465900  1
  C  955  1  0.18232400  0.27541700  0.24024100  1
  C  958  1  0.22344500  0.31352700  0.23996400  1
  C  962  1  0.23373400  0.27510400  0.22309000  1
  C  966  1  0.14003800  0.26228600  0.27020800  1
  C  968  1  0.02329600  0.24613000  0.22981700  1
  C  970  1  0.11289000  0.24068700  0.73900900  1
  C  972  1  0.04974800  0.25674000  0.74426100  1
  C  973  1  0.05311600  0.24885100  0.75895200  1
  C  975  1  0.11686400  0.23315600  0.75388000  1
  C  978  1  0.18250100  0.22329900  0.75824200  1
  C  981  1  0.22415900  0.18554800  0.75840600  1
  C  985  1  0.23398200  0.22393200  0.77535900  1
  C  989  1  0.13979800  0.23562900  0.72827300  1
  C  991  1  0.02353300  0.25203900  0.76884400  1
  C  993  1  0.42634700  0.55943400  0.82039700  1
  C  994  1  0.44242600  0.54007200  0.82919200  1
  C  995  1  0.45670800  0.55252700  0.84167900  1
  C  997  1  0.43136200  0.58425000  0.82712300  1
  C  998  1  0.41970700  0.60923400  0.82119700  1
  C  999  1  0.42946200  0.63451600  0.82718700  1
  C  1001  1  0.45460500  0.66589700  0.84173000  1
  C  1002  1  0.43731700  0.67880400  0.82997600  1
  C  1003  1  0.42118800  0.65948200  0.82115400  1
  C  1004  1  0.47366800  0.67839600  0.85355300  1
  C  1005  1  0.48822800  0.66491300  0.86601300  1
  C  1007  1  0.50316500  0.63317000  0.88247900  1
  C  1008  1  0.51343400  0.65799900  0.88825200  1
  C  1009  1  0.50472700  0.67739700  0.87810100  1
  C  1010  1  0.50805600  0.60824100  0.88969200  1
  C  1011  1  0.50163000  0.58298000  0.88310400  1
  C  1013  1  0.48671400  0.55167900  0.86664100  1
  C  1014  1  0.49909500  0.53872700  0.87926600  1
  C  1015  1  0.50746800  0.55802100  0.88952800  1
  C  1016  1  0.47394600  0.53912700  0.85365300  1
  C  1017  1  0.47959100  0.51101400  0.85262200  1
  C  1018  1  0.45019400  0.49288400  0.85632400  1
  C  1019  1  0.45731700  0.46518800  0.85653300  1
  C  1020  1  0.49398600  0.45516200  0.85311400  1
  C  1021  1  0.52327800  0.47333700  0.84947700  1
  C  1022  1  0.51615200  0.50098500  0.84913800  1
  C  1023  1  0.51748800  0.60871400  0.90479310  1
  C  1024  1  0.48868600  0.61491000  0.91500610  1
  C  1025  1  0.49698500  0.61570800  0.92995910  1
  C  1026  1  0.53406900  0.61010300  0.93508310  1
  C  1027  1  0.56300300  0.60389300  0.92489910  1
  C  1028  1  0.55479400  0.60328700  0.90987110  1
  C  1029  1  0.47896500  0.70657800  0.85285600  1
  C  1030  1  0.51416800  0.71706900  0.84798500  1
  C  1031  1  0.52101600  0.74476200  0.84838700  1
  C  1032  1  0.49281600  0.76253600  0.85351200  1
  C  1033  1  0.45750900  0.75199900  0.85835000  1
  C  1034  1  0.45066300  0.72426200  0.85805000  1
  C  1035  1  0.39680400  0.60901500  0.80835600  1
  C  1036  1  0.41349200  0.61027400  0.79437200  1
  C  1037  1  0.35660100  0.60830200  0.80952000  1
  C  1038  1  0.33359000  0.60888700  0.79696000  1
  C  1039  1  0.35007600  0.60989000  0.78295000  1
  C  1040  1  0.39038400  0.61071500  0.78182000  1
  C  1071  1  0.42521900  0.65865800  0.15596900  1
  C  1072  1  0.44147100  0.67803100  0.14720800  1
  C  1073  1  0.45624700  0.66555500  0.13482000  1
  C  1075  1  0.43063300  0.63380900  0.14933200  1
  C  1076  1  0.41912200  0.60880600  0.15530500  1
  C  1077  1  0.42917000  0.58353600  0.14938900  1
  C  1079  1  0.45458800  0.55216300  0.13492700  1
  C  1080  1  0.43741800  0.53926800  0.14672300  1
  C  1081  1  0.42118600  0.55857700  0.15550500  1
  C  1082  1  0.47358700  0.53963300  0.12310900  1
  C  1083  1  0.48813900  0.55306600  0.11062200  1
  C  1085  1  0.50375500  0.58482000  0.09423600  1
  C  1086  1  0.51288000  0.55992300  0.08829600  1
  C  1087  1  0.50380300  0.54051100  0.09840400  1
  C  1088  1  0.50954500  0.60978500  0.08715300  1
  C  1089  1  0.50314600  0.63504600  0.09373400  1
  C  1091  1  0.48748000  0.66637600  0.11006800  1
  C  1092  1  0.50095300  0.67929800  0.09758900  1
  C  1093  1  0.50997700  0.65999100  0.08742300  1
  C  1094  1  0.47404800  0.67894300  0.12294900  1
  C  1095  1  0.47967600  0.70706900  0.12399800  1
  C  1096  1  0.45049400  0.72513500  0.12004600  1
  C  1097  1  0.45767100  0.75283700  0.11983500  1
  C  1098  1  0.49415200  0.76293300  0.12353400  1
  C  1099  1  0.52322900  0.74481600  0.12742200  1
  C  1100  1  0.51605000  0.71716200  0.12776000  1
  C  1101  1  0.51954300  0.60945600  0.07210900  1
  C  1102  1  0.49064200  0.60517200  0.06165100  1
  C  1103  1  0.49944800  0.60501000  0.04673300  1
  C  1104  1  0.53724000  0.60955800  0.04184800  1
  C  1105  1  0.56625300  0.61314400  0.05234200  1
  C  1106  1  0.55752300  0.61327000  0.06733100  1
  C  1107  1  0.47882400  0.51145700  0.12382200  1
  C  1108  1  0.51411800  0.50103400  0.12859500  1
  C  1109  1  0.52092900  0.47334900  0.12820600  1
  C  1110  1  0.49262300  0.45551800  0.12317300  1
  C  1111  1  0.45721800  0.46599000  0.11843500  1
  C  1112  1  0.45039400  0.49371600  0.11873500  1
  C  1113  1  0.39623800  0.60899300  0.16816000  1
  C  1114  1  0.41297500  0.60782800  0.18213900  1
  C  1115  1  0.35602800  0.60963700  0.16702800  1
  C  1116  1  0.33307000  0.60906600  0.17960700  1
  C  1117  1  0.34960500  0.60813600  0.19361100  1
  C  1118  1  0.38992100  0.60737500  0.19470800  1
  C  1149  1  0.61647600  0.06052200  0.15607700  1
  C  1150  1  0.60072400  0.04096300  0.14731000  1
  C  1151  1  0.58434200  0.05338000  0.13520100  1
  C  1153  1  0.60919500  0.08538400  0.14972200  1
  C  1154  1  0.61975100  0.11051500  0.15579400  1
  C  1155  1  0.60907900  0.13567700  0.14991000  1
  C  1157  1  0.58370100  0.16680900  0.13528900  1
  C  1158  1  0.59936300  0.17980500  0.14735700  1
  C  1159  1  0.61564500  0.16066000  0.15623000  1
  C  1160  1  0.56536100  0.17915400  0.12326000  1
  C  1161  1  0.55205500  0.16553700  0.11062800  1
  C  1163  1  0.53749800  0.13354500  0.09421800  1
  C  1164  1  0.52945400  0.15840500  0.08800300  1
  C  1165  1  0.53794000  0.17795700  0.09809900  1
  C  1166  1  0.53169200  0.10848300  0.08721900  1
  C  1167  1  0.53740100  0.08330700  0.09399000  1
  C  1169  1  0.55276900  0.05219900  0.11050200  1
  C  1170  1  0.53869100  0.03912800  0.09816600  1
  C  1171  1  0.52995600  0.05828500  0.08787700  1
  C  1172  1  0.56660700  0.03983000  0.12337500  1
  C  1173  1  0.56219400  0.01162300  0.12440400  1
  C  1174  1  0.58969400  0.99419587  0.11840600  1
  C  1175  1  0.58341400  0.96639890  0.11839400  1
  C  1176  1  0.54952300  0.95549990  0.12436400  1
  C  1177  1  0.52253300  0.97301390  0.13059500  1
  C  1178  1  0.52867300  0.00080400  0.13059400  1
  C  1179  1  0.52251500  0.10862400  0.07208500  1
  C  1180  1  0.55177900  0.11370000  0.06186900  1
  C  1181  1  0.54367500  0.11440700  0.04689600  1
  C  1182  1  0.50632600  0.10976100  0.04174500  1
  C  1183  1  0.47694500  0.10461700  0.05193100  1
  C  1184  1  0.48495900  0.10415300  0.06697700  1
  C  1185  1  0.55965400  0.20730800  0.12386300  1
  C  1186  1  0.52306000  0.21751800  0.12713100  1
  C  1187  1  0.51619800  0.24519000  0.12669300  1
  C  1188  1  0.54580400  0.26322000  0.12320800  1
  C  1189  1  0.58247300  0.25301000  0.11995900  1
  C  1190  1  0.58930600  0.22528100  0.12022600  1
  C  1191  1  0.64269900  0.11056000  0.16862700  1
  C  1192  1  0.62599600  0.11056100  0.18262500  1
  C  1193  1  0.68290800  0.11095900  0.16745900  1
  C  1194  1  0.70590300  0.11137100  0.18002600  1
  C  1195  1  0.68942100  0.11111600  0.19404600  1
  C  1196  1  0.64909800  0.11087400  0.19518200  1
  C  1227  1  0.61775300  0.15784200  0.82109900  1
  C  1228  1  0.60179800  0.17736000  0.82982000  1
  C  1229  1  0.58478800  0.16488300  0.84179400  1
  C  1231  1  0.60995200  0.13293800  0.82733400  1
  C  1232  1  0.62031600  0.10783000  0.82120700  1
  C  1233  1  0.60939300  0.08265500  0.82703400  1
  C  1235  1  0.58386200  0.05145600  0.84160900  1
  C  1236  1  0.59930600  0.03852800  0.82948800  1
  C  1237  1  0.61568200  0.05770800  0.82064300  1
  C  1238  1  0.56558800  0.03903100  0.85364000  1
  C  1239  1  0.55230800  0.05258600  0.86628600  1
  C  1241  1  0.53702700  0.08454600  0.88259100  1
  C  1242  1  0.52997200  0.05965000  0.88895100  1
  C  1243  1  0.53882600  0.04010400  0.87890400  1
  C  1244  1  0.53039000  0.10960500  0.88946300  1
  C  1245  1  0.53597500  0.13477800  0.88266500  1
  C  1247  1  0.55189700  0.16593800  0.86624700  1
  C  1248  1  0.53673800  0.17893600  0.87841100  1
  C  1249  1  0.52762300  0.15975300  0.88864600  1
  C  1250  1  0.56642800  0.17836700  0.85349300  1
  C  1251  1  0.56208200  0.20657200  0.85245400  1
  C  1252  1  0.58920900  0.22401200  0.85872400  1
  C  1253  1  0.58294900  0.25179800  0.85872000  1
  C  1254  1  0.54944700  0.26268000  0.85246200  1
  C  1255  1  0.52281400  0.24515000  0.84598200  1
  C  1256  1  0.52894900  0.21737100  0.84598800  1
  C  1257  1  0.52066800  0.10957200  0.90454310  1
  C  1258  1  0.54993300  0.10645000  0.91497210  1
  C  1259  1  0.54134700  0.10631200  0.92991110  1
  C  1260  1  0.50338200  0.10973800  0.93486110  1
  C  1261  1  0.47406300  0.11222700  0.92439810  1
  C  1262  1  0.48256900  0.11230500  0.90938710  1
  C  1263  1  0.55990300  0.01086500  0.85303300  1
  C  1264  1  0.52324100  0.00059800  0.84986800  1
  C  1265  1  0.51639400  0.97291290  0.85029300  1
  C  1266  1  0.54607600  0.95492890  0.85366600  1
  C  1267  1  0.58281700  0.96519690  0.85681000  1
  C  1268  1  0.58964500  0.99293587  0.85654700  1
  C  1269  1  0.64322600  0.10782300  0.80835500  1
  C  1270  1  0.62645500  0.10783800  0.79436900  1
  C  1271  1  0.68344300  0.10741400  0.80948300  1
  C  1272  1  0.70636600  0.10700200  0.79689300  1
  C  1273  1  0.68981200  0.10724100  0.78288300  1
  C  1274  1  0.64948000  0.10751700  0.78178900  1
  C  1305  1  0.93086800  0.05971600  0.31930500  1
  C  1306  1  0.94664000  0.04034200  0.32817000  1
  C  1307  1  0.95838100  0.05252400  0.34111000  1
  C  1309  1  0.93330900  0.08427500  0.32650000  1
  C  1310  1  0.92075700  0.10916700  0.32070200  1
  C  1311  1  0.92955200  0.13438600  0.32699900  1
  C  1313  1  0.95423900  0.16560500  0.34176800  1
  C  1314  1  0.93539600  0.17868500  0.33043000  1
  C  1315  1  0.91941500  0.15945000  0.32152100  1
  C  1316  1  0.97368800  0.17800400  0.35352700  1
  C  1317  1  0.98884100  0.16438300  0.36583500  1
  C  1319  1  0.00345400  0.13258200  0.38229100  1
  C  1320  1  0.01498400  0.15726400  0.38789600  1
  C  1321  1  0.00646300  0.17670100  0.37774500  1
  C  1322  1  0.00748700  0.10768100  0.38959900  1
  C  1323  1  0.00055600  0.08248300  0.38302000  1
  C  1325  1  0.98604900  0.05132800  0.36643900  1
  C  1326  1  0.99709303  0.03826100  0.37920900  1
  C  1327  1  0.00523200  0.05748600  0.38953700  1
  C  1328  1  0.97443600  0.03892600  0.35325800  1
  C  1329  1  0.98026200  0.01082200  0.35219900  1
  C  1330  1  0.95056000  0.99262787  0.35542000  1
  C  1331  1  0.95770500  0.96493190  0.35565200  1
  C  1332  1  0.99468703  0.95494190  0.35271400  1
  C  1333  1  0.02426400  0.97318790  0.34953600  1
  C  1334  1  0.01714500  0.00084200  0.34919600  1
  C  1335  1  0.01682800  0.10817100  0.40471100  1
  C  1336  1  0.98821500  0.11503000  0.41487700  1
  C  1337  1  0.99644303  0.11584100  0.42983700  1
  C  1338  1  0.03327400  0.10964000  0.43502300  1
  C  1339  1  0.06202600  0.10278400  0.42488500  1
  C  1340  1  0.05388400  0.10212700  0.40985200  1
  C  1341  1  0.97896400  0.20619600  0.35287400  1
  C  1342  1  0.01376800  0.21670400  0.34761000  1
  C  1343  1  0.02073300  0.24438300  0.34803200  1
  C  1344  1  0.99301103  0.26213400  0.35354500  1
  C  1345  1  0.95810200  0.25158200  0.35877800  1
  C  1346  1  0.95116800  0.22385300  0.35847700  1
  C  1347  1  0.89805400  0.10880800  0.30776200  1
  C  1348  1  0.91303200  0.11703600  0.29418200  1
  C  1349  1  0.85964100  0.10017600  0.30840000  1
  C  1350  1  0.83673000  0.09994900  0.29581100  1
  C  1351  1  0.85130900  0.10882300  0.28233100  1
  C  1352  1  0.88990900  0.11711900  0.28162600  1
  C  1383  1  0.92970100  0.15765000  0.65706400  1
  C  1384  1  0.94567000  0.17701500  0.64822600  1
  C  1385  1  0.95789300  0.16478000  0.63537200  1
  C  1387  1  0.93250400  0.13303300  0.64994700  1
  C  1388  1  0.92004900  0.10812400  0.65579100  1
  C  1389  1  0.92911800  0.08289500  0.64957500  1
  C  1391  1  0.95407100  0.05165400  0.63489900  1
  C  1392  1  0.93535600  0.03859400  0.64628800  1
  C  1393  1  0.91924700  0.05783100  0.65514300  1
  C  1394  1  0.97345100  0.03920700  0.62314500  1
  C  1395  1  0.98858700  0.05274600  0.61079600  1
  C  1397  1  0.00388200  0.08453800  0.59439800  1
  C  1398  1  0.01428100  0.05975000  0.58863800  1
  C  1399  1  0.00540600  0.04032000  0.59876200  1
  C  1400  1  0.00884000  0.10948400  0.58721300  1
  C  1401  1  0.00199200  0.13469700  0.59377800  1
  C  1403  1  0.98682500  0.16590300  0.61023700  1
  C  1404  1  0.99894903  0.17892900  0.59759000  1
  C  1405  1  0.00767300  0.15968100  0.58735300  1
  C  1406  1  0.97453900  0.17833900  0.62331600  1
  C  1407  1  0.98037700  0.20645300  0.62438700  1
  C  1408  1  0.95086500  0.22459600  0.62092800  1
  C  1409  1  0.95807600  0.25229800  0.62069900  1
  C  1410  1  0.99490703  0.26234000  0.62391100  1
  C  1411  1  0.02429600  0.24414400  0.62732400  1
  C  1412  1  0.01711300  0.21648500  0.62765700  1
  C  1413  1  0.01877500  0.10913100  0.57215900  1
  C  1414  1  0.99001103  0.10415700  0.56173400  1
  C  1415  1  0.99875503  0.10397300  0.54680900  1
  C  1416  1  0.03634200  0.10914900  0.54187700  1
  C  1417  1  0.06524600  0.11342100  0.55234100  1
  C  1418  1  0.05657300  0.11359500  0.56733400  1
  C  1419  1  0.97867200  0.01102300  0.62383200  1
  C  1420  1  0.01357100  0.00059100  0.62900800  1
  C  1421  1  0.02051600  0.97292290  0.62860600  1
  C  1422  1  0.99270303  0.95510790  0.62317500  1
  C  1423  1  0.95768500  0.96557790  0.61803500  1
  C  1424  1  0.95075900  0.99329587  0.61833100  1
  C  1425  1  0.89733700  0.10847500  0.66873700  1
  C  1426  1  0.91240400  0.10049100  0.68234100  1
  C  1427  1  0.85888800  0.11696600  0.66810300  1
  C  1428  1  0.83605300  0.11730900  0.68071400  1
  C  1429  1  0.85073800  0.10870200  0.69422600  1
  C  1430  1  0.88936400  0.10053000  0.69492100  1
  C  1461  1  0.11205900  0.56067600  0.65722400  1
  C  1462  1  0.09661900  0.54111600  0.64838500  1
  C  1463  1  0.08321900  0.55329500  0.63568600  1
  C  1465  1  0.10781700  0.58533800  0.65025800  1
  C  1466  1  0.11943300  0.61040600  0.65614500  1
  C  1467  1  0.10975600  0.63554400  0.64996400  1
  C  1469  1  0.08469700  0.66653800  0.63515800  1
  C  1470  1  0.10210500  0.67975400  0.64679500  1
  C  1471  1  0.11833700  0.66068800  0.65572700  1
  C  1472  1  0.06583400  0.67876900  0.62321200  1
  C  1473  1  0.05180000  0.66502400  0.61073500  1
  C  1475  1  0.03751800  0.63296400  0.59433800  1
  C  1476  1  0.02810100  0.65772100  0.58828800  1
  C  1477  1  0.03642200  0.67730900  0.59838400  1
  C  1478  1  0.03262300  0.60790400  0.58724300  1
  C  1479  1  0.03895700  0.58276500  0.59397100  1
  C  1481  1  0.05411000  0.55177100  0.61056500  1
  C  1482  1  0.04151500  0.53858400  0.59803600  1
  C  1483  1  0.03289100  0.55768800  0.58770500  1
  C  1484  1  0.06682400  0.53954900  0.62364400  1
  C  1485  1  0.06219700  0.51135000  0.62471200  1
  C  1486  1  0.09030400  0.49381100  0.61924000  1
  C  1487  1  0.08398100  0.46601500  0.61923700  1
  C  1488  1  0.04944200  0.45521500  0.62469500  1
  C  1489  1  0.02184900  0.47283400  0.63043900  1
  C  1490  1  0.02801000  0.50062500  0.63040300  1
  C  1491  1  0.02351100  0.60808400  0.57210300  1
  C  1492  1  0.05260800  0.61384200  0.56192500  1
  C  1493  1  0.04453800  0.61458200  0.54695000  1
  C  1494  1  0.00738700  0.60933900  0.54175700  1
  C  1495  1  0.97817300  0.60352900  0.55190700  1
  C  1496  1  0.98615400  0.60299100  0.56695600  1
  C  1497  1  0.06019900  0.70693800  0.62377400  1
  C  1498  1  0.02391900  0.71718000  0.62749200  1
  C  1499  1  0.01698800  0.74484300  0.62704000  1
  C  1500  1  0.04624500  0.76283900  0.62311000  1
  C  1501  1  0.08260500  0.75260200  0.61941000  1
  C  1502  1  0.08947300  0.72487700  0.61967000  1
  C  1503  1  0.14228500  0.61029900  0.66904500  1
  C  1504  1  0.12694100  0.61743500  0.68274100  1
  C  1505  1  0.18109700  0.60270600  0.66827000  1
  C  1506  1  0.20401100  0.60235300  0.68085500  1
  C  1507  1  0.18901000  0.61008000  0.69447000  1
  C  1508  1  0.15006100  0.61740900  0.69529800  1
  C  1539  1  0.11318400  0.65688500  0.31986200  1
  C  1540  1  0.09750300  0.67640000  0.32865000  1
  C  1541  1  0.08360100  0.66415800  0.34126000  1
  C  1543  1  0.10856500  0.63218200  0.32675700  1
  C  1544  1  0.12009500  0.60712900  0.32084200  1
  C  1545  1  0.11019800  0.58197100  0.32697600  1
  C  1547  1  0.08494900  0.55090700  0.34173100  1
  C  1548  1  0.10222500  0.53775200  0.33005700  1
  C  1549  1  0.11857100  0.55685100  0.32115900  1
  C  1550  1  0.06611600  0.53859800  0.35367400  1
  C  1551  1  0.05205400  0.55226700  0.36616000  1
  C  1553  1  0.03702200  0.58429900  0.38245500  1
  C  1554  1  0.02853500  0.55947800  0.38864000  1
  C  1555  1  0.03722200  0.53989800  0.37859300  1
  C  1556  1  0.03134400  0.60937300  0.38943100  1
  C  1557  1  0.03758700  0.63452000  0.38268700  1
  C  1559  1  0.05329000  0.66556800  0.36618100  1
  C  1560  1  0.03966200  0.67869800  0.37856300  1
  C  1561  1  0.03065600  0.65956800  0.38884200  1
  C  1562  1  0.06664200  0.67784000  0.35320100  1
  C  1563  1  0.06206300  0.70603500  0.35212000  1
  C  1564  1  0.08987600  0.72359900  0.35783400  1
  C  1565  1  0.08356700  0.75138500  0.35781900  1
  C  1566  1  0.04934000  0.76215700  0.35210200  1
  C  1567  1  0.02203500  0.74451200  0.34613800  1
  C  1568  1  0.02818900  0.71673000  0.34618100  1
  C  1569  1  0.02166900  0.60930800  0.40451500  1
  C  1570  1  0.05082700  0.60552400  0.41492200  1
  C  1571  1  0.04226900  0.60537800  0.42986500  1
  C  1572  1  0.00445000  0.60942400  0.43484000  1
  C  1573  1  0.97521500  0.61255900  0.42439500  1
  C  1574  1  0.98369400  0.61267400  0.40938200  1
  C  1575  1  0.06051800  0.51041500  0.35310400  1
  C  1576  1  0.02418400  0.50011100  0.34946100  1
  C  1577  1  0.01726700  0.47243600  0.34990800  1
  C  1578  1  0.04659100  0.45449100  0.35376200  1
  C  1579  1  0.08300700  0.46478600  0.35738300  1
  C  1580  1  0.08987300  0.49252500  0.35711900  1
  C  1581  1  0.14291500  0.60727200  0.30792600  1
  C  1582  1  0.12746000  0.60023900  0.29422600  1
  C  1583  1  0.18176200  0.61486200  0.30866900  1
  C  1584  1  0.20458800  0.61531700  0.29605700  1
  C  1585  1  0.18946400  0.60770300  0.28243600  1
  C  1586  1  0.15048600  0.60035400  0.28164400  1
  C  1617  1  0.55813500  0.60918500  0.97336710  1
  C  1619  1  0.50978100  0.61381000  0.99171807  1
  C  1620  1  0.53776000  0.61561700  0.00268800  1
  C  1622  1  0.58662800  0.61142900  0.98436410  1
  C  1625  1  0.64582900  0.62002600  0.97250410  1
  C  1628  1  0.69998300  0.59663900  0.96320110  1
  C  1632  1  0.70620000  0.64230000  0.97385110  1
  C  1636  1  0.56470700  0.60492800  0.95865210  1
  C  1638  1  0.52712100  0.61896300  0.01703900  1
  C  1640  1  0.48229400  0.10912100  0.00342200  1
  C  1642  1  0.53067800  0.11384700  0.98507610  1
  C  1643  1  0.50273500  0.11555300  0.97408710  1
  C  1645  1  0.45383600  0.11124900  0.99240307  1
  C  1648  1  0.39455100  0.11979000  0.00419300  1
  C  1651  1  0.34039600  0.09631700  0.01351300  1
  C  1655  1  0.33412100  0.14186100  0.00273400  1
  C  1659  1  0.47567400  0.10491800  0.01815000  1
  C  1661  1  0.51341800  0.11902800  0.95974110  1
  C  1663  1  0.05706100  0.10861800  0.47334800  1
  C  1665  1  0.00861200  0.11313700  0.49166900  1
  C  1666  1  0.03651600  0.11488200  0.50267400  1
  C  1668  1  0.08549100  0.11080400  0.48437400  1
  C  1671  1  0.14478500  0.11937700  0.47256000  1
  C  1674  1  0.19908100  0.09600500  0.46335800  1
  C  1678  1  0.20511000  0.14170600  0.47397300  1
  C  1682  1  0.06371900  0.10438500  0.45863400  1
  C  1684  1  0.02578300  0.11808800  0.51703300  1
  C  1686  1  0.98354200  0.60867100  0.50341400  1
  C  1688  1  0.03198300  0.61337700  0.48508900  1
  C  1689  1  0.00408200  0.61504700  0.47408200  1
  C  1691  1  0.95512100  0.61076500  0.49238000  1
  C  1694  1  0.89577900  0.61920400  0.50416100  1
  C  1697  1  0.84150000  0.59573700  0.51337900  1
  C  1701  1  0.83540800  0.64135100  0.50267600  1
  C  1705  1  0.97688000  0.60441800  0.51813400  1
  C  1707  1  0.01481500  0.61842400  0.45973000  1
  C  1709  1  0.50113100  0.83421400  0.85568100  1
  C  1711  1  0.55062700  0.86112500  0.84509600  1
  C  1712  1  0.53917900  0.88321500  0.85353200  1
  C  1714  1  0.48999900  0.85619100  0.86453300  1
  C  1717  1  0.44300400  0.84054000  0.88180400  1
  C  1720  1  0.37678100  0.84679300  0.88702700  1
  C  1724  1  0.42451500  0.84041000  0.90688110  1
  C  1728  1  0.48280000  0.80984100  0.85528800  1
  C  1730  1  0.55662100  0.90784190  0.85239800  1
  C  1732  1  0.50090200  0.38384800  0.12105500  1
  C  1734  1  0.55038400  0.35704400  0.13165800  1
  C  1735  1  0.53893400  0.33492000  0.12323400  1
  C  1737  1  0.48980200  0.36184600  0.11220000  1
  C  1740  1  0.44298000  0.37744400  0.09488000  1
  C  1743  1  0.37672100  0.37128600  0.08965100  1
  C  1747  1  0.42453600  0.37746500  0.06979800  1
  C  1751  1  0.48257000  0.40818800  0.12142900  1
  C  1753  1  0.55636700  0.31032300  0.12438100  1
  C  1755  1  0.53868100  0.88389800  0.11973500  1
  C  1757  1  0.49066200  0.85701200  0.13132200  1
  C  1758  1  0.50165200  0.83462300  0.12301700  1
  C  1760  1  0.54931600  0.86156600  0.11111400  1
  C  1763  1  0.58367300  0.84904700  0.08992700  1
  C  1766  1  0.65151900  0.84389000  0.08750600  1
  C  1770  1  0.61725100  0.88129300  0.07498900  1
  C  1774  1  0.55575100  0.90884090  0.11850500  1
  C  1776  1  0.48426300  0.81004200  0.12454100  1
  C  1778  1  0.53851000  0.33428200  0.85701400  1
  C  1780  1  0.49050000  0.36100500  0.84537200  1
  C  1781  1  0.50148500  0.38347000  0.85363400  1
  C  1783  1  0.54914000  0.35668700  0.86559200  1
  C  1786  1  0.58346400  0.36939800  0.88676300  1
  C  1789  1  0.65127800  0.37487400  0.88918200  1
  C  1793  1  0.61722900  0.33732400  0.90171110  1
  C  1797  1  0.55559500  0.30938000  0.85828800  1
  C  1799  1  0.48411300  0.40801600  0.85205400  1
  C  1801  1  0.00151800  0.33380200  0.35580700  1
  C  1803  1  0.05115800  0.36070500  0.34530800  1
  C  1804  1  0.03965900  0.38278600  0.35373900  1
  C  1806  1  0.99034503  0.35577400  0.36465900  1
  C  1809  1  0.94343400  0.34009000  0.38194000  1
  C  1812  1  0.87711200  0.34604700  0.38707600  1
  C  1816  1  0.92477100  0.34011800  0.40699800  1
  C  1820  1  0.98316800  0.30942600  0.35539900  1
  C  1822  1  0.05714100  0.40740700  0.35264900  1
  C  1824  1  0.00123000  0.88344800  0.62094300  1
  C  1826  1  0.05082400  0.85664500  0.63147900  1
  C  1827  1  0.03934000  0.83452900  0.62305700  1
  C  1829  1  0.99008503  0.86144600  0.61209500  1
  C  1832  1  0.94337200  0.87706800  0.59475600  1
  C  1835  1  0.87700900  0.87124000  0.58961100  1
  C  1839  1  0.92476800  0.87688900  0.56969100  1
  C  1843  1  0.98286000  0.90778390  0.62133500  1
  C  1845  1  0.05680500  0.80993800  0.62416500  1
  C  1847  1  0.03878000  0.38358300  0.61999800  1
  C  1849  1  0.99117903  0.35654400  0.63173700  1
  C  1850  1  0.00230900  0.33412100  0.62348600  1
  C  1852  1  0.04957900  0.36120700  0.61143700  1
  C  1855  1  0.08380400  0.34866500  0.59022900  1
  C  1858  1  0.15161700  0.34344800  0.58771400  1
  C  1862  1  0.11730600  0.38088400  0.57524300  1
  C  1866  1  0.05556600  0.40862400  0.61868100  1
  C  1868  1  0.98510400  0.30948000  0.62510500  1
  C  1870  1  0.03859500  0.83379300  0.35671700  1
  C  1872  1  0.99099303  0.86067700  0.34493300  1
  C  1873  1  0.00209200  0.88316500  0.35315900  1
  C  1875  1  0.04934800  0.85622600  0.36525600  1
  C  1878  1  0.08350100  0.86891000  0.38646900  1
  C  1881  1  0.15127100  0.87449800  0.38898300  1
  C  1885  1  0.11726100  0.83683000  0.40142400  1
  C  1889  1  0.05540300  0.80879800  0.35806800  1
  C  1891  1  0.98488400  0.90776590  0.35149900  1
  C  1893  1  0.24081100  0.61767000  0.72835900  1
  C  1895  1  0.30397000  0.60149100  0.73345800  1
  C  1896  1  0.30074700  0.60921900  0.74817600  1
  C  1898  1  0.23703100  0.62510700  0.74324900  1
  C  1901  1  0.17145600  0.63490700  0.74776000  1
  C  1904  1  0.12977500  0.67264000  0.74795700  1
  C  1908  1  0.12016700  0.63430800  0.76496000  1
  C  1912  1  0.21380500  0.62281600  0.71767800  1
  C  1914  1  0.33040700  0.60588700  0.75800900  1
  C  1916  1  0.24086500  0.60035100  0.24841800  1
  C  1918  1  0.30394400  0.61665200  0.24317300  1
  C  1919  1  0.30052700  0.60889900  0.22846300  1
  C  1921  1  0.23686800  0.59291900  0.23353200  1
  C  1924  1  0.17122500  0.58301500  0.22915300  1
  C  1927  1  0.12958100  0.54518400  0.22903500  1
  C  1931  1  0.11965900  0.58351900  0.21207200  1
  C  1935  1  0.21398800  0.59515800  0.25915400  1
  C  1937  1  0.33008200  0.61224100  0.21857100  1
  C  1939  1  0.79900500  0.11735500  0.24861600  1
  C  1941  1  0.73581200  0.10121800  0.24344100  1
  C  1942  1  0.73897500  0.10930800  0.22877600  1
  C  1944  1  0.80276200  0.12511900  0.23377300  1
  C  1947  1  0.86831100  0.13544400  0.22935500  1
  C  1950  1  0.90943200  0.17355400  0.22907800  1
  C  1954  1  0.91972100  0.13513100  0.21220400  1
  C  1958  1  0.82602500  0.12231300  0.25932200  1
  C  1960  1  0.70928300  0.10615700  0.21893100  1
  C  1962  1  0.79887700  0.10071400  0.72812300  1
  C  1964  1  0.73573500  0.11676700  0.73337500  1
  C  1965  1  0.73910300  0.10887800  0.74806600  1
  C  1967  1  0.80285100  0.09318300  0.74299400  1
  C  1970  1  0.86848800  0.08332600  0.74735600  1
  C  1973  1  0.91014600  0.04557500  0.74752000  1
  C  1977  1  0.91996900  0.08395900  0.76447300  1
  C  1981  1  0.82578500  0.09565600  0.71738700  1
  C  1983  1  0.70952000  0.11206600  0.75795800  1
  C  1985  1  0.11233400  0.41946100  0.80951100  1
  C  1986  1  0.12841300  0.40009900  0.81830600  1
  C  1987  1  0.14269500  0.41255400  0.83079300  1
  C  1989  1  0.11734900  0.44427700  0.81623700  1
  C  1990  1  0.10569400  0.46926100  0.81031100  1
  C  1991  1  0.11544900  0.49454300  0.81630100  1
  C  1993  1  0.14059200  0.52592400  0.83084400  1
  C  1994  1  0.12330400  0.53883100  0.81909000  1
  C  1995  1  0.10717500  0.51950900  0.81026800  1
  C  1996  1  0.15965500  0.53842300  0.84266700  1
  C  1997  1  0.17421500  0.52494000  0.85512700  1
  C  1999  1  0.18915200  0.49319700  0.87159300  1
  C  2000  1  0.19942100  0.51802600  0.87736600  1
  C  2001  1  0.19071400  0.53742400  0.86721500  1
  C  2002  1  0.19404300  0.46826800  0.87880600  1
  C  2003  1  0.18761700  0.44300700  0.87221800  1
  C  2005  1  0.17270100  0.41170600  0.85575500  1
  C  2006  1  0.18508200  0.39875400  0.86838000  1
  C  2007  1  0.19345500  0.41804800  0.87864200  1
  C  2008  1  0.15993300  0.39915400  0.84276700  1
  C  2009  1  0.16557800  0.37104100  0.84173600  1
  C  2010  1  0.13618100  0.35291100  0.84543800  1
  C  2011  1  0.14330400  0.32521500  0.84564700  1
  C  2012  1  0.17997300  0.31518900  0.84222800  1
  C  2013  1  0.20926500  0.33333333  0.83859100  1
  C  2014  1  0.20213900  0.36101200  0.83825200  1
  C  2015  1  0.20347500  0.46874100  0.89390700  1
  C  2016  1  0.17467300  0.47493700  0.90412010  1
  C  2017  1  0.18297200  0.47573500  0.91907310  1
  C  2018  1  0.22005600  0.47013000  0.92419710  1
  C  2019  1  0.24899000  0.46392000  0.91401310  1
  C  2020  1  0.24078100  0.46331400  0.89898500  1
  C  2021  1  0.16495200  0.56660500  0.84197000  1
  C  2022  1  0.20015500  0.57709600  0.83709900  1
  C  2023  1  0.20700300  0.60478900  0.83750100  1
  C  2024  1  0.17880300  0.62256300  0.84262600  1
  C  2025  1  0.14349600  0.61202600  0.84746400  1
  C  2026  1  0.13665000  0.58428900  0.84716400  1
  C  2027  1  0.08279100  0.46904200  0.79747000  1
  C  2028  1  0.09947900  0.47030100  0.78348600  1
  C  2029  1  0.04258800  0.46832900  0.79863400  1
  C  2030  1  0.01957700  0.46891400  0.78607400  1
  C  2031  1  0.03606300  0.46991700  0.77206400  1
  C  2032  1  0.07637100  0.47074200  0.77093400  1
  C  2063  1  0.11120600  0.51868500  0.14508300  1
  C  2064  1  0.12745800  0.53805800  0.13632200  1
  C  2065  1  0.14223400  0.52558200  0.12393400  1
  C  2067  1  0.11662000  0.49383600  0.13844600  1
  C  2068  1  0.10510900  0.46883300  0.14441900  1
  C  2069  1  0.11515700  0.44356300  0.13850300  1
  C  2071  1  0.14057500  0.41219000  0.12404100  1
  C  2072  1  0.12340500  0.39929500  0.13583700  1
  C  2073  1  0.10717300  0.41860400  0.14461900  1
  C  2074  1  0.15957400  0.39966000  0.11222300  1
  C  2075  1  0.17412600  0.41309300  0.09973600  1
  C  2077  1  0.18974200  0.44484700  0.08335000  1
  C  2078  1  0.19886700  0.41995000  0.07741000  1
  C  2079  1  0.18979000  0.40053800  0.08751800  1
  C  2080  1  0.19553200  0.46981200  0.07626700  1
  C  2081  1  0.18913300  0.49507300  0.08284800  1
  C  2083  1  0.17346700  0.52640300  0.09918200  1
  C  2084  1  0.18694000  0.53932500  0.08670300  1
  C  2085  1  0.19596400  0.52001800  0.07653700  1
  C  2086  1  0.16003500  0.53897000  0.11206300  1
  C  2087  1  0.16566300  0.56709600  0.11311200  1
  C  2088  1  0.13648100  0.58516200  0.10916000  1
  C  2089  1  0.14365800  0.61286400  0.10894900  1
  C  2090  1  0.18013900  0.62296000  0.11264800  1
  C  2091  1  0.20921600  0.60484300  0.11653600  1
  C  2092  1  0.20203700  0.57718900  0.11687400  1
  C  2093  1  0.20553000  0.46948300  0.06122300  1
  C  2094  1  0.17662900  0.46519900  0.05076500  1
  C  2095  1  0.18543500  0.46503700  0.03584700  1
  C  2096  1  0.22322700  0.46958500  0.03096200  1
  C  2097  1  0.25224000  0.47317100  0.04145600  1
  C  2098  1  0.24351000  0.47329700  0.05644500  1
  C  2099  1  0.16481100  0.37148400  0.11293600  1
  C  2100  1  0.20010500  0.36106100  0.11770900  1
  C  2101  1  0.20691600  0.33333333  0.11732000  1
  C  2102  1  0.17861000  0.31554500  0.11228700  1
  C  2103  1  0.14320500  0.32601700  0.10754900  1
  C  2104  1  0.13638100  0.35374300  0.10784900  1
  C  2105  1  0.08222500  0.46902000  0.15727400  1
  C  2106  1  0.09896200  0.46785500  0.17125300  1
  C  2107  1  0.04201500  0.46966400  0.15614200  1
  C  2108  1  0.01905700  0.46909300  0.16872100  1
  C  2109  1  0.03559200  0.46816300  0.18272500  1
  C  2110  1  0.07590800  0.46740200  0.18382200  1
  C  2141  1  0.30246300  0.92054870  0.14519100  1
  C  2142  1  0.28671100  0.90098970  0.13642400  1
  C  2143  1  0.27032900  0.91340670  0.12431500  1
  C  2145  1  0.29518200  0.94541070  0.13883600  1
  C  2146  1  0.30573800  0.97054170  0.14490800  1
  C  2147  1  0.29506600  0.99570375  0.13902400  1
  C  2149  1  0.26968800  0.02683600  0.12440300  1
  C  2150  1  0.28535000  0.03983200  0.13647100  1
  C  2151  1  0.30163200  0.02068700  0.14534400  1
  C  2152  1  0.25134800  0.03918100  0.11237400  1
  C  2153  1  0.23804200  0.02556400  0.09974200  1
  C  2155  1  0.22348500  0.99357175  0.08333200  1
  C  2156  1  0.21544100  0.01843200  0.07711700  1
  C  2157  1  0.22392700  0.03798400  0.08721300  1
  C  2158  1  0.21767900  0.96850970  0.07633300  1
  C  2159  1  0.22338800  0.94333370  0.08310400  1
  C  2161  1  0.23875600  0.91222570  0.09961600  1
  C  2162  1  0.22467800  0.89915500  0.08728000  1
  C  2163  1  0.21594300  0.91831170  0.07699100  1
  C  2164  1  0.25259400  0.89985700  0.11248900  1
  C  2165  1  0.24818100  0.87165000  0.11351800  1
  C  2166  1  0.27568100  0.85422300  0.10752000  1
  C  2167  1  0.26940100  0.82642600  0.10750800  1
  C  2168  1  0.23551000  0.81552700  0.11347800  1
  C  2169  1  0.20852000  0.83304100  0.11970900  1
  C  2170  1  0.21466000  0.86083100  0.11970800  1
  C  2171  1  0.20850200  0.96865070  0.06119900  1
  C  2172  1  0.23776600  0.97372670  0.05098300  1
  C  2173  1  0.22966200  0.97443370  0.03601000  1
  C  2174  1  0.19231300  0.96978770  0.03085900  1
  C  2175  1  0.16293200  0.96464370  0.04104500  1
  C  2176  1  0.17094600  0.96417970  0.05609100  1
  C  2177  1  0.24564100  0.06733500  0.11297700  1
  C  2178  1  0.20904700  0.07754500  0.11624500  1
  C  2179  1  0.20218500  0.10521700  0.11580700  1
  C  2180  1  0.23179100  0.12324700  0.11232200  1
  C  2181  1  0.26846000  0.11303700  0.10907300  1
  C  2182  1  0.27529300  0.08530800  0.10934000  1
  C  2183  1  0.32868600  0.97058670  0.15774100  1
  C  2184  1  0.31198300  0.97058770  0.17173900  1
  C  2185  1  0.36889500  0.97098570  0.15657300  1
  C  2186  1  0.39189000  0.97139770  0.16914000  1
  C  2187  1  0.37540800  0.97114270  0.18316000  1
  C  2188  1  0.33508500  0.97090070  0.18429600  1
  C  2219  1  0.30374000  0.01786900  0.81021300  1
  C  2220  1  0.28778500  0.03738700  0.81893400  1
  C  2221  1  0.27077500  0.02491000  0.83090800  1
  C  2223  1  0.29593900  0.99296475  0.81644800  1
  C  2224  1  0.30630300  0.96785670  0.81032100  1
  C  2225  1  0.29538000  0.94268170  0.81614800  1
  C  2227  1  0.26984900  0.91148270  0.83072300  1
  C  2228  1  0.28529300  0.89855500  0.81860200  1
  C  2229  1  0.30166900  0.91773470  0.80975700  1
  C  2230  1  0.25157500  0.89905800  0.84275400  1
  C  2231  1  0.23829500  0.91261270  0.85540000  1
  C  2233  1  0.22301400  0.94457270  0.87170500  1
  C  2234  1  0.21595900  0.91967670  0.87806500  1
  C  2235  1  0.22481300  0.90013070  0.86801800  1
  C  2236  1  0.21637700  0.96963170  0.87857700  1
  C  2237  1  0.22196200  0.99480475  0.87177900  1
  C  2239  1  0.23788400  0.02596500  0.85536100  1
  C  2240  1  0.22272500  0.03896300  0.86752500  1
  C  2241  1  0.21361000  0.01978000  0.87776000  1
  C  2242  1  0.25241500  0.03839400  0.84260700  1
  C  2243  1  0.24806900  0.06659900  0.84156800  1
  C  2244  1  0.27519600  0.08403900  0.84783800  1
  C  2245  1  0.26893600  0.11182500  0.84783400  1
  C  2246  1  0.23543400  0.12270700  0.84157600  1
  C  2247  1  0.20880100  0.10517700  0.83509600  1
  C  2248  1  0.21493600  0.07739800  0.83510200  1
  C  2249  1  0.20665500  0.96959870  0.89365700  1
  C  2250  1  0.23592000  0.96647670  0.90408610  1
  C  2251  1  0.22733400  0.96633870  0.91902510  1
  C  2252  1  0.18936900  0.96976470  0.92397510  1
  C  2253  1  0.16005000  0.97225370  0.91351210  1
  C  2254  1  0.16855600  0.97233170  0.89850100  1
  C  2255  1  0.24589000  0.87089200  0.84214700  1
  C  2256  1  0.20922800  0.86062500  0.83898200  1
  C  2257  1  0.20238100  0.83294000  0.83940700  1
  C  2258  1  0.23206300  0.81495600  0.84278000  1
  C  2259  1  0.26880400  0.82522400  0.84592400  1
  C  2260  1  0.27563200  0.85296300  0.84566100  1
  C  2261  1  0.32921300  0.96784970  0.79746900  1
  C  2262  1  0.31244200  0.96786470  0.78348300  1
  C  2263  1  0.36943000  0.96744070  0.79859700  1
  C  2264  1  0.39235300  0.96702870  0.78600700  1
  C  2265  1  0.37579900  0.96726770  0.77199700  1
  C  2266  1  0.33546700  0.96754370  0.77090300  1
  C  2297  1  0.61685500  0.91974270  0.30841900  1
  C  2298  1  0.63262700  0.90036870  0.31728400  1
  C  2299  1  0.64436800  0.91255070  0.33022400  1
  C  2301  1  0.61929600  0.94430170  0.31561400  1
  C  2302  1  0.60674400  0.96919370  0.30981600  1
  C  2303  1  0.61553900  0.99441275  0.31611300  1
  C  2305  1  0.64022600  0.02563200  0.33088200  1
  C  2306  1  0.62138300  0.03871200  0.31954400  1
  C  2307  1  0.60540200  0.01947700  0.31063500  1
  C  2308  1  0.65967500  0.03803100  0.34264100  1
  C  2309  1  0.67482800  0.02441000  0.35494900  1
  C  2311  1  0.68944100  0.99260875  0.37140500  1
  C  2312  1  0.70097100  0.01729100  0.37701000  1
  C  2313  1  0.69245000  0.03672800  0.36685900  1
  C  2314  1  0.69347400  0.96770770  0.37871300  1
  C  2315  1  0.68654300  0.94250970  0.37213400  1
  C  2317  1  0.67203600  0.91135470  0.35555300  1
  C  2318  1  0.68308000  0.89828800  0.36832300  1
  C  2319  1  0.69121900  0.91751270  0.37865100  1
  C  2320  1  0.66042300  0.89895300  0.34237200  1
  C  2321  1  0.66624900  0.87084900  0.34131300  1
  C  2322  1  0.63654700  0.85265500  0.34453400  1
  C  2323  1  0.64369200  0.82495900  0.34476600  1
  C  2324  1  0.68067400  0.81496900  0.34182800  1
  C  2325  1  0.71025100  0.83321500  0.33865000  1
  C  2326  1  0.70313200  0.86086900  0.33831000  1
  C  2327  1  0.70281500  0.96819770  0.39382500  1
  C  2328  1  0.67420200  0.97505670  0.40399100  1
  C  2329  1  0.68243000  0.97586770  0.41895100  1
  C  2330  1  0.71926100  0.96966670  0.42413700  1
  C  2331  1  0.74801300  0.96281070  0.41399900  1
  C  2332  1  0.73987100  0.96215370  0.39896600  1
  C  2333  1  0.66495100  0.06622300  0.34198800  1
  C  2334  1  0.69975500  0.07673100  0.33672400  1
  C  2335  1  0.70672000  0.10441000  0.33714600  1
  C  2336  1  0.67899800  0.12216100  0.34265900  1
  C  2337  1  0.64408900  0.11160900  0.34789200  1
  C  2338  1  0.63715500  0.08388000  0.34759100  1
  C  2339  1  0.58404100  0.96883470  0.29687600  1
  C  2340  1  0.59901900  0.97706270  0.28329600  1
  C  2341  1  0.54562800  0.96020270  0.29751400  1
  C  2342  1  0.52271700  0.95997570  0.28492500  1
  C  2343  1  0.53729600  0.96884970  0.27144500  1
  C  2344  1  0.57589600  0.97714570  0.27074000  1
  C  2375  1  0.61568800  0.01767700  0.64617800  1
  C  2376  1  0.63165700  0.03704200  0.63734000  1
  C  2377  1  0.64388000  0.02480700  0.62448600  1
  C  2379  1  0.61849100  0.99305975  0.63906100  1
  C  2380  1  0.60603600  0.96815070  0.64490500  1
  C  2381  1  0.61510500  0.94292170  0.63868900  1
  C  2383  1  0.64005800  0.91168070  0.62401300  1
  C  2384  1  0.62134300  0.89862100  0.63540200  1
  C  2385  1  0.60523400  0.91785770  0.64425700  1
  C  2386  1  0.65943800  0.89923400  0.61225900  1
  C  2387  1  0.67457400  0.91277270  0.59991000  1
  C  2389  1  0.68986900  0.94456470  0.58351200  1
  C  2390  1  0.70026800  0.91977670  0.57775200  1
  C  2391  1  0.69139300  0.90034670  0.58787600  1
  C  2392  1  0.69482700  0.96951070  0.57632700  1
  C  2393  1  0.68797900  0.99472375  0.58289200  1
  C  2395  1  0.67281200  0.02593000  0.59935100  1
  C  2396  1  0.68493600  0.03895600  0.58670400  1
  C  2397  1  0.69366000  0.01970800  0.57646700  1
  C  2398  1  0.66052600  0.03836600  0.61243000  1
  C  2399  1  0.66636400  0.06648000  0.61350100  1
  C  2400  1  0.63685200  0.08462300  0.61004200  1
  C  2401  1  0.64406300  0.11232500  0.60981300  1
  C  2402  1  0.68089400  0.12236700  0.61302500  1
  C  2403  1  0.71028300  0.10417100  0.61643800  1
  C  2404  1  0.70310000  0.07651200  0.61677100  1
  C  2405  1  0.70476200  0.96915770  0.56127300  1
  C  2406  1  0.67599800  0.96418370  0.55084800  1
  C  2407  1  0.68474200  0.96399970  0.53592300  1
  C  2408  1  0.72232900  0.96917570  0.53099100  1
  C  2409  1  0.75123300  0.97344770  0.54145500  1
  C  2410  1  0.74256000  0.97362170  0.55644800  1
  C  2411  1  0.66465900  0.87105000  0.61294600  1
  C  2412  1  0.69955800  0.86061800  0.61812200  1
  C  2413  1  0.70650300  0.83295000  0.61772000  1
  C  2414  1  0.67869000  0.81513500  0.61228900  1
  C  2415  1  0.64367200  0.82560500  0.60714900  1
  C  2416  1  0.63674600  0.85332300  0.60744500  1
  C  2417  1  0.58332400  0.96850170  0.65785100  1
  C  2418  1  0.59839100  0.96051770  0.67145500  1
  C  2419  1  0.54487500  0.97699270  0.65721700  1
  C  2420  1  0.52204000  0.97733570  0.66982800  1
  C  2421  1  0.53672500  0.96872870  0.68334000  1
  C  2422  1  0.57535100  0.96055670  0.68403500  1
  C  2453  1  0.79804600  0.42070300  0.64633800  1
  C  2454  1  0.78260600  0.40114300  0.63749900  1
  C  2455  1  0.76920600  0.41332200  0.62480000  1
  C  2457  1  0.79380400  0.44536500  0.63937200  1
  C  2458  1  0.80542000  0.47043300  0.64525900  1
  C  2459  1  0.79574300  0.49557100  0.63907800  1
  C  2461  1  0.77068400  0.52656500  0.62427200  1
  C  2462  1  0.78809200  0.53978100  0.63590900  1
  C  2463  1  0.80432400  0.52071500  0.64484100  1
  C  2464  1  0.75182100  0.53879600  0.61232600  1
  C  2465  1  0.73778700  0.52505100  0.59984900  1
  C  2467  1  0.72350500  0.49299100  0.58345200  1
  C  2468  1  0.71408800  0.51774800  0.57740200  1
  C  2469  1  0.72240900  0.53733600  0.58749800  1
  C  2470  1  0.71861000  0.46793100  0.57635700  1
  C  2471  1  0.72494400  0.44279200  0.58308500  1
  C  2473  1  0.74009700  0.41179800  0.59967900  1
  C  2474  1  0.72750200  0.39861100  0.58715000  1
  C  2475  1  0.71887800  0.41771500  0.57681900  1
  C  2476  1  0.75281100  0.39957600  0.61275800  1
  C  2477  1  0.74818400  0.37137700  0.61382600  1
  C  2478  1  0.77629100  0.35383800  0.60835400  1
  C  2479  1  0.76996800  0.32604200  0.60835100  1
  C  2480  1  0.73542900  0.31524200  0.61380900  1
  C  2481  1  0.70783600  0.33286100  0.61955300  1
  C  2482  1  0.71399700  0.36065200  0.61951700  1
  C  2483  1  0.70949800  0.46811100  0.56121700  1
  C  2484  1  0.73859500  0.47386900  0.55103900  1
  C  2485  1  0.73052500  0.47460900  0.53606400  1
  C  2486  1  0.69337400  0.46936600  0.53087100  1
  C  2487  1  0.66416000  0.46355600  0.54102100  1
  C  2488  1  0.67214100  0.46301800  0.55607000  1
  C  2489  1  0.74618600  0.56696500  0.61288800  1
  C  2490  1  0.70990600  0.57720700  0.61660600  1
  C  2491  1  0.70297500  0.60487000  0.61615400  1
  C  2492  1  0.73223200  0.62286600  0.61222400  1
  C  2493  1  0.76859200  0.61262900  0.60852400  1
  C  2494  1  0.77546000  0.58490400  0.60878400  1
  C  2495  1  0.82827200  0.47032600  0.65815900  1
  C  2496  1  0.81292800  0.47746200  0.67185500  1
  C  2497  1  0.86708400  0.46273300  0.65738400  1
  C  2498  1  0.88999800  0.46238000  0.66996900  1
  C  2499  1  0.87499700  0.47010700  0.68358400  1
  C  2500  1  0.83604800  0.47743600  0.68441200  1
  C  2531  1  0.79917100  0.51691200  0.30897600  1
  C  2532  1  0.78349000  0.53642700  0.31776400  1
  C  2533  1  0.76958800  0.52418500  0.33037400  1
  C  2535  1  0.79455200  0.49220900  0.31587100  1
  C  2536  1  0.80608200  0.46715600  0.30995600  1
  C  2537  1  0.79618500  0.44199800  0.31609000  1
  C  2539  1  0.77093600  0.41093400  0.33084500  1
  C  2540  1  0.78821200  0.39777900  0.31917100  1
  C  2541  1  0.80455800  0.41687800  0.31027300  1
  C  2542  1  0.75210300  0.39862500  0.34278800  1
  C  2543  1  0.73804100  0.41229400  0.35527400  1
  C  2545  1  0.72300900  0.44432600  0.37156900  1
  C  2546  1  0.71452200  0.41950500  0.37775400  1
  C  2547  1  0.72320900  0.39992500  0.36770700  1
  C  2548  1  0.71733100  0.46940000  0.37854500  1
  C  2549  1  0.72357400  0.49454700  0.37180100  1
  C  2551  1  0.73927700  0.52559500  0.35529500  1
  C  2552  1  0.72564900  0.53872500  0.36767700  1
  C  2553  1  0.71664300  0.51959500  0.37795600  1
  C  2554  1  0.75262900  0.53786700  0.34231500  1
  C  2555  1  0.74805000  0.56606200  0.34123400  1
  C  2556  1  0.77586300  0.58362600  0.34694800  1
  C  2557  1  0.76955400  0.61141200  0.34693300  1
  C  2558  1  0.73532700  0.62218400  0.34121600  1
  C  2559  1  0.70802200  0.60453900  0.33525200  1
  C  2560  1  0.71417600  0.57675700  0.33529500  1
  C  2561  1  0.70765600  0.46933500  0.39362900  1
  C  2562  1  0.73681400  0.46555100  0.40403600  1
  C  2563  1  0.72825600  0.46540500  0.41897900  1
  C  2564  1  0.69043700  0.46945100  0.42395400  1
  C  2565  1  0.66120200  0.47258600  0.41350900  1
  C  2566  1  0.66968100  0.47270100  0.39849600  1
  C  2567  1  0.74650500  0.37044200  0.34221800  1
  C  2568  1  0.71017100  0.36013800  0.33857500  1
  C  2569  1  0.70325400  0.33246300  0.33902200  1
  C  2570  1  0.73257800  0.31451800  0.34287600  1
  C  2571  1  0.76899400  0.32481300  0.34649700  1
  C  2572  1  0.77586000  0.35255200  0.34623300  1
  C  2573  1  0.82890200  0.46729900  0.29704000  1
  C  2574  1  0.81344700  0.46026600  0.28334000  1
  C  2575  1  0.86774900  0.47488900  0.29778300  1
  C  2576  1  0.89057500  0.47534400  0.28517100  1
  C  2577  1  0.87545100  0.46773000  0.27155000  1
  C  2578  1  0.83647300  0.46038100  0.27075800  1
  C  2609  1  0.24412200  0.46921200  0.96248110  1
  C  2611  1  0.19576800  0.47383700  0.98083210  1
  C  2612  1  0.22374700  0.47564400  0.99180214  1
  C  2614  1  0.27261500  0.47145600  0.97347810  1
  C  2617  1  0.33181600  0.48005300  0.96161810  1
  C  2620  1  0.38597000  0.45666600  0.95231510  1
  C  2624  1  0.39218700  0.50232700  0.96296510  1
  C  2628  1  0.25069400  0.46495500  0.94776610  1
  C  2630  1  0.21310800  0.47899000  0.00615300  1
  C  2632  1  0.16828100  0.96914770  0.99253614  1
  C  2634  1  0.21666500  0.97387370  0.97419010  1
  C  2635  1  0.18872200  0.97557970  0.96320110  1
  C  2637  1  0.13982300  0.97127570  0.98151710  1
  C  2640  1  0.08053800  0.97981670  0.99330714  1
  C  2643  1  0.02638300  0.95634370  0.00262700  1
  C  2647  1  0.02010800  0.00188800  0.99184814  1
  C  2651  1  0.16166100  0.96494470  0.00726400  1
  C  2653  1  0.19940500  0.97905470  0.94885510  1
  C  2655  1  0.74304800  0.96864470  0.46246200  1
  C  2657  1  0.69459900  0.97316370  0.48078300  1
  C  2658  1  0.72250300  0.97490870  0.49178800  1
  C  2660  1  0.77147800  0.97083070  0.47348800  1
  C  2663  1  0.83077200  0.97940370  0.46167400  1
  C  2666  1  0.88506800  0.95603170  0.45247200  1
  C  2670  1  0.89109700  0.00173300  0.46308700  1
  C  2674  1  0.74970600  0.96441170  0.44774800  1
  C  2676  1  0.71177000  0.97811470  0.50614700  1
  C  2678  1  0.66952900  0.46869800  0.49252800  1
  C  2680  1  0.71797000  0.47340400  0.47420300  1
  C  2681  1  0.69006900  0.47507400  0.46319600  1
  C  2683  1  0.64110800  0.47079200  0.48149400  1
  C  2686  1  0.58176600  0.47923100  0.49327500  1
  C  2689  1  0.52748700  0.45576400  0.50249300  1
  C  2693  1  0.52139500  0.50137800  0.49179000  1
  C  2697  1  0.66286700  0.46444500  0.50724800  1
  C  2699  1  0.70080200  0.47845100  0.44884400  1
  C  2701  1  0.18711800  0.69424100  0.84479500  1
  C  2703  1  0.23661400  0.72115200  0.83421000  1
  C  2704  1  0.22516600  0.74324200  0.84264600  1
  C  2706  1  0.17598600  0.71621800  0.85364700  1
  C  2709  1  0.12899100  0.70056700  0.87091800  1
  C  2712  1  0.06276800  0.70682000  0.87614100  1
  C  2716  1  0.11050200  0.70043700  0.89599500  1
  C  2720  1  0.16878700  0.66986800  0.84440200  1
  C  2722  1  0.24260800  0.76786900  0.84151200  1
  C  2724  1  0.18688900  0.24387500  0.11016900  1
  C  2726  1  0.23637100  0.21707100  0.12077200  1
  C  2727  1  0.22492100  0.19494700  0.11234800  1
  C  2729  1  0.17578900  0.22187300  0.10131400  1
  C  2732  1  0.12896700  0.23747100  0.08399400  1
  C  2735  1  0.06270800  0.23131300  0.07876500  1
  C  2739  1  0.11052300  0.23749200  0.05891200  1
  C  2743  1  0.16855700  0.26821500  0.11054300  1
  C  2745  1  0.24235400  0.17035000  0.11349500  1
  C  2747  1  0.22466800  0.74392500  0.10884900  1
  C  2749  1  0.17664900  0.71703900  0.12043600  1
  C  2750  1  0.18763900  0.69465000  0.11213100  1
  C  2752  1  0.23530300  0.72159300  0.10022800  1
  C  2755  1  0.26966000  0.70907400  0.07904100  1
  C  2758  1  0.33750600  0.70391700  0.07662000  1
  C  2762  1  0.30323800  0.74132000  0.06410300  1
  C  2766  1  0.24173800  0.76886800  0.10761900  1
  C  2768  1  0.17025000  0.67006900  0.11365500  1
  C  2770  1  0.22449700  0.19430900  0.84612800  1
  C  2772  1  0.17648700  0.22103200  0.83448600  1
  C  2773  1  0.18747200  0.24349700  0.84274800  1
  C  2775  1  0.23512700  0.21671400  0.85470600  1
  C  2778  1  0.26945100  0.22942500  0.87587700  1
  C  2781  1  0.33726500  0.23490100  0.87829600  1
  C  2785  1  0.30321600  0.19735100  0.89082500  1
  C  2789  1  0.24158200  0.16940700  0.84740200  1
  C  2791  1  0.17010000  0.26804300  0.84116800  1
  C  2793  1  0.68750500  0.19382900  0.34492100  1
  C  2795  1  0.73714500  0.22073200  0.33442200  1
  C  2796  1  0.72564600  0.24281300  0.34285300  1
  C  2798  1  0.67633200  0.21580100  0.35377300  1
  C  2801  1  0.62942100  0.20011700  0.37105400  1
  C  2804  1  0.56309900  0.20607400  0.37619000  1
  C  2808  1  0.61075800  0.20014500  0.39611200  1
  C  2812  1  0.66915500  0.16945300  0.34451300  1
  C  2814  1  0.74312800  0.26743400  0.34176300  1
  C  2816  1  0.68721700  0.74347500  0.61005700  1
  C  2818  1  0.73681100  0.71667200  0.62059300  1
  C  2819  1  0.72532700  0.69455600  0.61217100  1
  C  2821  1  0.67607200  0.72147300  0.60120900  1
  C  2824  1  0.62935900  0.73709500  0.58387000  1
  C  2827  1  0.56299600  0.73126700  0.57872500  1
  C  2831  1  0.61075500  0.73691600  0.55880500  1
  C  2835  1  0.66884700  0.76781100  0.61044900  1
  C  2837  1  0.74279200  0.66996500  0.61327900  1
  C  2839  1  0.72476700  0.24361000  0.60911200  1
  C  2841  1  0.67716600  0.21657100  0.62085100  1
  C  2842  1  0.68829600  0.19414800  0.61260000  1
  C  2844  1  0.73556600  0.22123400  0.60055100  1
  C  2847  1  0.76979100  0.20869200  0.57934300  1
  C  2850  1  0.83760400  0.20347500  0.57682800  1
  C  2854  1  0.80329300  0.24091100  0.56435700  1
  C  2858  1  0.74155300  0.26865100  0.60779500  1
  C  2860  1  0.67109100  0.16950700  0.61421900  1
  C  2862  1  0.72458200  0.69382000  0.34583100  1
  C  2864  1  0.67698000  0.72070400  0.33404700  1
  C  2865  1  0.68807900  0.74319200  0.34227300  1
  C  2867  1  0.73533500  0.71625300  0.35437000  1
  C  2870  1  0.76948800  0.72893700  0.37558300  1
  C  2873  1  0.83725800  0.73452500  0.37809700  1
  C  2877  1  0.80324800  0.69685700  0.39053800  1
  C  2881  1  0.74139000  0.66882500  0.34718200  1
  C  2883  1  0.67087100  0.76779300  0.34061300  1
  C  2885  1  0.92679810  0.47769700  0.71747300  1
  C  2887  1  0.98995710  0.46151800  0.72257200  1
  C  2888  1  0.98673410  0.46924600  0.73729000  1
  C  2890  1  0.92301810  0.48513400  0.73236300  1
  C  2893  1  0.85744300  0.49493400  0.73687400  1
  C  2896  1  0.81576200  0.53266700  0.73707100  1
  C  2900  1  0.80615400  0.49433500  0.75407400  1
  C  2904  1  0.89979200  0.48284300  0.70679200  1
  C  2906  1  0.01639400  0.46591400  0.74712300  1
  C  2908  1  0.92685210  0.46037800  0.23753200  1
  C  2910  1  0.98993110  0.47667900  0.23228700  1
  C  2911  1  0.98651410  0.46892600  0.21757700  1
  C  2913  1  0.92285510  0.45294600  0.22264600  1
  C  2916  1  0.85721200  0.44304200  0.21826700  1
  C  2919  1  0.81556800  0.40521100  0.21814900  1
  C  2923  1  0.80564600  0.44354600  0.20118600  1
  C  2927  1  0.89997500  0.45518500  0.24826800  1
  C  2929  1  0.01606900  0.47226800  0.20768500  1
  C  2931  1  0.48499200  0.97738170  0.23773000  1
  C  2933  1  0.42179900  0.96124470  0.23255500  1
  C  2934  1  0.42496200  0.96933470  0.21789000  1
  C  2936  1  0.48874900  0.98514570  0.22288700  1
  C  2939  1  0.55429800  0.99547075  0.21846900  1
  C  2942  1  0.59541900  0.03358100  0.21819200  1
  C  2946  1  0.60570800  0.99515775  0.20131800  1
  C  2950  1  0.51201200  0.98233970  0.24843600  1
  C  2952  1  0.39527000  0.96618370  0.20804500  1
  C  2954  1  0.48486400  0.96074070  0.71723700  1
  C  2956  1  0.42172200  0.97679370  0.72248900  1
  C  2957  1  0.42509000  0.96890470  0.73718000  1
  C  2959  1  0.48883800  0.95320970  0.73210800  1
  C  2962  1  0.55447500  0.94335270  0.73647000  1
  C  2965  1  0.59613300  0.90560170  0.73663400  1
  C  2969  1  0.60595600  0.94398570  0.75358700  1
  C  2973  1  0.51177200  0.95568270  0.70650100  1
  C  2975  1  0.39550700  0.97209270  0.74707200  1
  N  4  1  0.76346500  0.71890400  0.85073400  1
  N  8  1  0.76337000  0.77942100  0.85038900  1
  N  14  1  0.80245600  0.77841900  0.88002400  1
  N  20  1  0.80307500  0.71809100  0.88033600  1
  N  75  1  0.85290200  0.75138200  0.96025400  1
  N  76  1  0.81630700  0.92818000  0.86504900  1
  N  77  1  0.64034100  0.75116300  0.78251300  1
  N  78  1  0.81743200  0.56952000  0.86495900  1
  N  82  1  0.76309500  0.77910200  0.14756100  1
  N  86  1  0.76308800  0.71857600  0.14796200  1
  N  92  1  0.80319500  0.71953500  0.11849500  1
  N  98  1  0.80359200  0.77990700  0.11812800  1
  N  153  1  0.86042100  0.74926800  0.03862700  1
  N  154  1  0.81607800  0.56983100  0.13342600  1
  N  155  1  0.63993000  0.74682300  0.21584800  1
  N  156  1  0.81765400  0.92852900  0.13348000  1
  N  160  1  0.90407300  0.21989100  0.14812000  1
  N  164  1  0.90407400  0.28042700  0.14826500  1
  N  170  1  0.86484100  0.27895700  0.11864800  1
  N  176  1  0.86515300  0.21856300  0.11837800  1
  N  231  1  0.81564700  0.25109200  0.03833300  1
  N  232  1  0.85074600  0.42888600  0.13333400  1
  N  233  1  0.02717000  0.25210200  0.21627000  1
  N  234  1  0.85438500  0.06967600  0.13506400  1
  N  238  1  0.90443000  0.27832200  0.85062400  1
  N  242  1  0.90447600  0.21778800  0.85047100  1
  N  248  1  0.86430500  0.21912200  0.87992100  1
  N  254  1  0.86458000  0.27952500  0.88018400  1
  N  309  1  0.80832100  0.24930100  0.95987500  1
  N  310  1  0.85103700  0.06918700  0.86527600  1
  N  311  1  0.02749000  0.24616400  0.78240100  1
  N  312  1  0.85428600  0.42843100  0.86351200  1
  N  316  1  0.26392700  0.21878600  0.35039300  1
  N  320  1  0.26419600  0.27913300  0.35005100  1
  N  326  1  0.30229100  0.27791800  0.37991900  1
  N  332  1  0.30295600  0.21771800  0.38011600  1
  N  387  1  0.35203400  0.25092900  0.46020400  1
  N  388  1  0.31662700  0.42775700  0.36508100  1
  N  389  1  0.14220500  0.24769900  0.28171800  1
  N  390  1  0.31808000  0.06927500  0.36457300  1
  N  394  1  0.26349600  0.27844300  0.64788700  1
  N  398  1  0.26377600  0.21807600  0.64830100  1
  N  404  1  0.30279400  0.21918400  0.61856400  1
  N  410  1  0.30343300  0.27945100  0.61832500  1
  N  465  1  0.35947600  0.24888200  0.53864600  1
  N  466  1  0.31629900  0.06944300  0.63342800  1
  N  467  1  0.14172500  0.24992000  0.71664200  1
  N  468  1  0.31836300  0.42796400  0.63385300  1
  N  472  1  0.40443700  0.71972200  0.64830100  1
  N  476  1  0.40382000  0.78012000  0.64850300  1
  N  482  1  0.36542500  0.77846300  0.61867300  1
  N  488  1  0.36573600  0.71812900  0.61850800  1
  N  543  1  0.31673600  0.75070700  0.53834300  1
  N  544  1  0.35111200  0.92849400  0.63325400  1
  N  545  1  0.52607700  0.74870800  0.71685800  1
  N  546  1  0.35439700  0.56936500  0.63542400  1
  N  550  1  0.40479900  0.77768700  0.35041600  1
  N  554  1  0.40428800  0.71728200  0.35021600  1
  N  560  1  0.36487700  0.71880000  0.37987700  1
  N  566  1  0.36518000  0.77915200  0.38004000  1
  N  621  1  0.30941400  0.74902300  0.45985700  1
  N  622  1  0.35146900  0.56876000  0.36536600  1
  N  623  1  0.52643100  0.74912400  0.28178300  1
  N  624  1  0.35427200  0.92793500  0.36312500  1
  N  626  1  0.83507400  0.75045200  0.98865600  1
  N  629  1  0.88894200  0.75423300  0.00932000  1
  N  632  1  0.93820800  0.75084100  0.99350100  1
  N  634  1  0.99889600  0.75647800  0.98468500  1
  N  649  1  0.83338300  0.25049600  0.00991100  1
  N  652  1  0.77957600  0.25407000  0.98922000  1
  N  655  1  0.73027600  0.25055900  0.00501600  1
  N  657  1  0.66952400  0.25610800  0.01376200  1
  N  672  1  0.33398100  0.24985500  0.48861000  1
  N  675  1  0.38772000  0.25353000  0.50932500  1
  N  678  1  0.43708600  0.25024000  0.49354500  1
  N  680  1  0.49784700  0.25586600  0.48480000  1
  N  695  1  0.33464600  0.75003800  0.50992000  1
  N  698  1  0.28091000  0.75355800  0.48920100  1
  N  701  1  0.23155300  0.75006700  0.50497400  1
  N  703  1  0.17075400  0.75557600  0.51368100  1
  N  718  1  0.84499900  0.97786400  0.85727200  1
  N  721  1  0.82350300  0.01945500  0.87373900  1
  N  724  1  0.77681200  0.99748100  0.88543500  1
  N  726  1  0.73105200  0.99025200  0.90273700  1
  N  741  1  0.84475400  0.52021100  0.14124500  1
  N  744  1  0.82328900  0.47856100  0.12478400  1
  N  747  1  0.77663500  0.50045600  0.11306200  1
  N  749  1  0.73097300  0.50766900  0.09572900  1
  N  764  1  0.82357800  0.02038900  0.14028300  1
  N  767  1  0.84446100  0.97804600  0.12415100  1
  N  770  1  0.89105100  0.00324400  0.11219500  1
  N  772  1  0.92914300  0.99370500  0.09198700  1
  N  787  1  0.82341400  0.47762100  0.85822900  1
  N  790  1  0.84429000  0.52010400  0.87427900  1
  N  793  1  0.89088400  0.49508000  0.88628300  1
  N  795  1  0.92896100  0.50483700  0.90647600  1
  N  810  1  0.34549700  0.47744800  0.35744900  1
  N  813  1  0.32389000  0.51903000  0.37390200  1
  N  816  1  0.27707900  0.49706100  0.38552800  1
  N  818  1  0.23130700  0.48976500  0.40281600  1
  N  833  1  0.34517700  0.01981300  0.64109000  1
  N  836  1  0.32360700  0.97816500  0.62464600  1
  N  839  1  0.27683600  0.00005200  0.61299200  1
  N  841  1  0.23118400  0.00732500  0.59566500  1
  N  856  1  0.32380700  0.52000400  0.64059500  1
  N  859  1  0.34499400  0.47760300  0.62457200  1
  N  862  1  0.39123400  0.50290300  0.61248700  1
  N  864  1  0.42920100  0.49330400  0.59224700  1
  N  879  1  0.32363800  0.97721300  0.35787900  1
  N  882  1  0.34475700  0.01972500  0.37385800  1
  N  885  1  0.39098900  0.99457700  0.38598900  1
  N  887  1  0.42893900  0.00436300  0.40621600  1
  N  902  1  0.58842000  0.74616400  0.73516700  1
  N  905  1  0.58124100  0.76071500  0.76312500  1
  N  908  1  0.52163500  0.77695100  0.76050100  1
  N  910  1  0.46177600  0.79046700  0.76720600  1
  N  925  1  0.58853100  0.75187300  0.26330400  1
  N  928  1  0.58095200  0.73729700  0.23536100  1
  N  931  1  0.52137800  0.72097700  0.23811300  1
  N  933  1  0.46142500  0.70735900  0.23152500  1
  N  948  1  0.07942800  0.24572000  0.26352100  1
  N  951  1  0.08652100  0.26091700  0.23566000  1
  N  954  1  0.14614400  0.27714300  0.23833800  1
  N  956  1  0.20584400  0.29112700  0.23165600  1
  N  971  1  0.07922200  0.25216200  0.73501800  1
  N  974  1  0.08673300  0.23736400  0.76292700  1
  N  977  1  0.14636100  0.22127200  0.76017700  1
  N  979  1  0.20628000  0.20772700  0.76677800  1
  N  996  1  0.44945200  0.57893100  0.83984800  1
  N  1000  1  0.44935700  0.63944800  0.83950300  1
  N  1006  1  0.48844300  0.63844600  0.86913800  1
  N  1012  1  0.48906200  0.57811800  0.86945000  1
  N  1067  1  0.53888900  0.61140900  0.94936810  1
  N  1068  1  0.50229400  0.78820700  0.85416300  1
  N  1069  1  0.32632800  0.61119000  0.77162700  1
  N  1070  1  0.50341900  0.42954700  0.85407300  1
  N  1074  1  0.44908200  0.63912900  0.13667500  1
  N  1078  1  0.44907500  0.57860300  0.13707600  1
  N  1084  1  0.48918200  0.57956200  0.10760900  1
  N  1090  1  0.48957900  0.63993400  0.10724200  1
  N  1145  1  0.54640800  0.60929500  0.02774100  1
  N  1146  1  0.50206500  0.42985800  0.12254000  1
  N  1147  1  0.32591700  0.60685000  0.20496200  1
  N  1148  1  0.50364100  0.78855600  0.12259400  1
  N  1152  1  0.59006000  0.07991800  0.13723400  1
  N  1156  1  0.59006100  0.14045400  0.13737900  1
  N  1162  1  0.55082800  0.13898400  0.10776200  1
  N  1168  1  0.55114000  0.07859000  0.10749200  1
  N  1223  1  0.50163400  0.11111900  0.02744700  1
  N  1224  1  0.53673300  0.28891300  0.12244800  1
  N  1225  1  0.71315700  0.11212900  0.20538400  1
  N  1226  1  0.54037200  0.92970290  0.12417800  1
  N  1230  1  0.59041700  0.13834900  0.83973800  1
  N  1234  1  0.59046300  0.07781500  0.83958500  1
  N  1240  1  0.55029200  0.07914900  0.86903500  1
  N  1246  1  0.55056700  0.13955200  0.86929800  1
  N  1301  1  0.49430800  0.10932800  0.94898910  1
  N  1302  1  0.53702400  0.92921390  0.85439000  1
  N  1303  1  0.71347700  0.10619100  0.77151500  1
  N  1304  1  0.54027300  0.28845800  0.85262600  1
  N  1308  1  0.94991400  0.07881300  0.33950700  1
  N  1312  1  0.95018300  0.13916000  0.33916500  1
  N  1318  1  0.98827800  0.13794500  0.36903300  1
  N  1324  1  0.98894300  0.07774500  0.36923000  1
  N  1379  1  0.03802100  0.11095600  0.44931800  1
  N  1380  1  0.00261400  0.28778400  0.35419500  1
  N  1381  1  0.82819200  0.10772600  0.27083200  1
  N  1382  1  0.00406700  0.92930190  0.35368700  1
  N  1386  1  0.94948300  0.13847000  0.63700100  1
  N  1390  1  0.94976300  0.07810300  0.63741500  1
  N  1396  1  0.98878100  0.07921100  0.60767800  1
  N  1402  1  0.98942000  0.13947800  0.60743900  1
  N  1457  1  0.04546300  0.10890900  0.52776000  1
  N  1458  1  0.00228600  0.92946990  0.62254200  1
  N  1459  1  0.82771200  0.10994700  0.70575600  1
  N  1460  1  0.00435000  0.28799100  0.62296700  1
  N  1464  1  0.09042400  0.57974900  0.63741500  1
  N  1468  1  0.08980700  0.64014700  0.63761700  1
  N  1474  1  0.05141200  0.63849000  0.60778700  1
  N  1480  1  0.05172300  0.57815600  0.60762200  1
  N  1535  1  0.00272300  0.61073400  0.52745700  1
  N  1536  1  0.03709900  0.78852100  0.62236800  1
  N  1537  1  0.21206400  0.60873500  0.70597200  1
  N  1538  1  0.04038400  0.42939200  0.62453800  1
  N  1542  1  0.09078600  0.63771400  0.33953000  1
  N  1546  1  0.09027500  0.57730900  0.33933000  1
  N  1552  1  0.05086400  0.57882700  0.36899100  1
  N  1558  1  0.05116700  0.63917900  0.36915400  1
  N  1613  1  0.99540103  0.60905000  0.44897100  1
  N  1614  1  0.03745600  0.42878700  0.35448000  1
  N  1615  1  0.21241800  0.60915100  0.27089700  1
  N  1616  1  0.04025900  0.78796200  0.35223900  1
  N  1618  1  0.52106100  0.61047900  0.97777010  1
  N  1621  1  0.57492900  0.61426000  0.99843407  1
  N  1624  1  0.62419500  0.61086800  0.98261510  1
  N  1626  1  0.68488300  0.61650500  0.97379910  1
  N  1641  1  0.51937000  0.11052300  0.99902507  1
  N  1644  1  0.46556300  0.11409700  0.97833410  1
  N  1647  1  0.41626300  0.11058600  0.99413007  1
  N  1649  1  0.35551100  0.11613500  0.00287600  1
  N  1664  1  0.01996800  0.10988200  0.47772400  1
  N  1667  1  0.07370700  0.11355700  0.49843900  1
  N  1670  1  0.12307300  0.11026700  0.48265900  1
  N  1672  1  0.18383400  0.11589300  0.47391400  1
  N  1687  1  0.02063300  0.61006500  0.49903400  1
  N  1690  1  0.96689700  0.61358500  0.47831500  1
  N  1693  1  0.91754000  0.61009400  0.49408800  1
  N  1695  1  0.85674100  0.61560300  0.50279500  1
  N  1710  1  0.53098600  0.83789100  0.84638600  1
  N  1713  1  0.50949000  0.87948200  0.86285300  1
  N  1716  1  0.46279900  0.85750800  0.87454900  1
  N  1718  1  0.41703900  0.85027900  0.89185100  1
  N  1733  1  0.53074100  0.38023800  0.13035900  1
  N  1736  1  0.50927600  0.33858800  0.11389800  1
  N  1739  1  0.46262200  0.36048300  0.10217600  1
  N  1741  1  0.41696000  0.36769600  0.08484300  1
  N  1756  1  0.50956500  0.88041600  0.12939700  1
  N  1759  1  0.53044800  0.83807300  0.11326500  1
  N  1762  1  0.57703800  0.86327100  0.10130900  1
  N  1764  1  0.61513000  0.85373200  0.08110100  1
  N  1779  1  0.50940100  0.33764800  0.84734300  1
  N  1782  1  0.53027700  0.38013100  0.86339300  1
  N  1785  1  0.57687100  0.35510700  0.87539700  1
  N  1787  1  0.61494800  0.36486400  0.89559000  1
  N  1802  1  0.03148400  0.33747500  0.34656300  1
  N  1805  1  0.00987700  0.37905700  0.36301600  1
  N  1808  1  0.96306600  0.35708800  0.37464200  1
  N  1810  1  0.91729400  0.34979200  0.39193000  1
  N  1825  1  0.03116400  0.87984000  0.63020400  1
  N  1828  1  0.00959400  0.83819200  0.61376000  1
  N  1831  1  0.96282300  0.86007900  0.60210600  1
  N  1833  1  0.91717100  0.86735200  0.58477900  1
  N  1848  1  0.00979400  0.38003100  0.62970900  1
  N  1851  1  0.03098100  0.33763000  0.61368600  1
  N  1854  1  0.07722100  0.36293000  0.60160100  1
  N  1856  1  0.11518800  0.35333100  0.58136100  1
  N  1871  1  0.00962500  0.83724000  0.34699300  1
  N  1874  1  0.03074400  0.87975200  0.36297200  1
  N  1877  1  0.07697600  0.85460400  0.37510300  1
  N  1879  1  0.11492600  0.86439000  0.39533000  1
  N  1894  1  0.27440700  0.60619100  0.72428100  1
  N  1897  1  0.26722800  0.62074200  0.75223900  1
  N  1900  1  0.20762200  0.63697800  0.74961500  1
  N  1902  1  0.14776300  0.65049400  0.75632000  1
  N  1917  1  0.27451800  0.61190000  0.25241800  1
  N  1920  1  0.26693900  0.59732400  0.22447500  1
  N  1923  1  0.20736500  0.58100400  0.22722700  1
  N  1925  1  0.14741200  0.56738600  0.22063900  1
  N  1940  1  0.76541500  0.10574700  0.25263500  1
  N  1943  1  0.77250800  0.12094400  0.22477400  1
  N  1946  1  0.83213100  0.13717000  0.22745200  1
  N  1948  1  0.89183100  0.15115400  0.22077000  1
  N  1963  1  0.76520900  0.11218900  0.72413200  1
  N  1966  1  0.77272000  0.09739100  0.75204100  1
  N  1969  1  0.83234800  0.08129900  0.74929100  1
  N  1971  1  0.89226700  0.06775400  0.75589200  1
  N  1988  1  0.13543900  0.43895800  0.82896200  1
  N  1992  1  0.13534400  0.49947500  0.82861700  1
  N  1998  1  0.17443000  0.49847300  0.85825200  1
  N  2004  1  0.17504900  0.43814500  0.85856400  1
  N  2059  1  0.22487600  0.47143600  0.93848210  1
  N  2060  1  0.18828100  0.64823400  0.84327700  1
  N  2061  1  0.01231500  0.47121700  0.76074100  1
  N  2062  1  0.18940600  0.28957400  0.84318700  1
  N  2066  1  0.13506900  0.49915600  0.12578900  1
  N  2070  1  0.13506200  0.43863000  0.12619000  1
  N  2076  1  0.17516900  0.43958900  0.09672300  1
  N  2082  1  0.17556600  0.49996100  0.09635600  1
  N  2137  1  0.23239500  0.46932200  0.01685500  1
  N  2138  1  0.18805200  0.28988500  0.11165400  1
  N  2139  1  0.01190400  0.46687700  0.19407600  1
  N  2140  1  0.18962800  0.64858300  0.11170800  1
  N  2144  1  0.27604700  0.93994470  0.12634800  1
  N  2148  1  0.27604800  0.00048100  0.12649300  1
  N  2154  1  0.23681500  0.99901075  0.09687600  1
  N  2160  1  0.23712700  0.93861670  0.09660600  1
  N  2215  1  0.18762100  0.97114570  0.01656100  1
  N  2216  1  0.22272000  0.14894000  0.11156200  1
  N  2217  1  0.39914400  0.97215570  0.19449800  1
  N  2218  1  0.22635900  0.78973000  0.11329200  1
  N  2222  1  0.27640400  0.99837575  0.82885200  1
  N  2226  1  0.27645000  0.93784170  0.82869900  1
  N  2232  1  0.23627900  0.93917570  0.85814900  1
  N  2238  1  0.23655400  0.99957875  0.85841200  1
  N  2293  1  0.18029500  0.96935470  0.93810310  1
  N  2294  1  0.22301100  0.78924100  0.84350400  1
  N  2295  1  0.39946400  0.96621770  0.76062900  1
  N  2296  1  0.22626000  0.14848500  0.84174000  1
  N  2300  1  0.63590100  0.93883970  0.32862100  1
  N  2304  1  0.63617000  0.99918675  0.32827900  1
  N  2310  1  0.67426500  0.99797175  0.35814700  1
  N  2316  1  0.67493000  0.93777170  0.35834400  1
  N  2371  1  0.72400800  0.97098270  0.43843200  1
  N  2372  1  0.68860100  0.14781100  0.34330900  1
  N  2373  1  0.51417900  0.96775270  0.25994600  1
  N  2374  1  0.69005400  0.78932900  0.34280100  1
  N  2378  1  0.63547000  0.99849675  0.62611500  1
  N  2382  1  0.63575000  0.93812970  0.62652900  1
  N  2388  1  0.67476800  0.93923770  0.59679200  1
  N  2394  1  0.67540700  0.99950475  0.59655300  1
  N  2449  1  0.73145000  0.96893570  0.51687400  1
  N  2450  1  0.68827300  0.78949700  0.61165600  1
  N  2451  1  0.51369900  0.96997370  0.69487000  1
  N  2452  1  0.69033700  0.14801800  0.61208100  1
  N  2456  1  0.77641100  0.43977600  0.62652900  1
  N  2460  1  0.77579400  0.50017400  0.62673100  1
  N  2466  1  0.73739900  0.49851700  0.59690100  1
  N  2472  1  0.73771000  0.43818300  0.59673600  1
  N  2527  1  0.68871000  0.47076100  0.51657100  1
  N  2528  1  0.72308600  0.64854800  0.61148200  1
  N  2529  1  0.89805100  0.46876200  0.69508600  1
  N  2530  1  0.72637100  0.28941900  0.61365200  1
  N  2534  1  0.77677300  0.49774100  0.32864400  1
  N  2538  1  0.77626200  0.43733600  0.32844400  1
  N  2544  1  0.73685100  0.43885400  0.35810500  1
  N  2550  1  0.73715400  0.49920600  0.35826800  1
  N  2605  1  0.68138800  0.46907700  0.43808500  1
  N  2606  1  0.72344300  0.28881400  0.34359400  1
  N  2607  1  0.89840500  0.46917800  0.26001100  1
  N  2608  1  0.72624600  0.64798900  0.34135300  1
  N  2610  1  0.20704800  0.47050600  0.96688410  1
  N  2613  1  0.26091600  0.47428700  0.98754810  1
  N  2616  1  0.31018200  0.47089500  0.97172910  1
  N  2618  1  0.37087000  0.47653200  0.96291310  1
  N  2633  1  0.20535700  0.97054970  0.98813910  1
  N  2636  1  0.15155000  0.97412370  0.96744810  1
  N  2639  1  0.10225000  0.97061270  0.98324410  1
  N  2641  1  0.04149800  0.97616170  0.99199014  1
  N  2656  1  0.70595500  0.96990870  0.46683800  1
  N  2659  1  0.75969400  0.97358370  0.48755300  1
  N  2662  1  0.80906000  0.97029370  0.47177300  1
  N  2664  1  0.86982100  0.97591970  0.46302800  1
  N  2679  1  0.70662000  0.47009200  0.48814800  1
  N  2682  1  0.65288400  0.47361200  0.46742900  1
  N  2685  1  0.60352700  0.47012100  0.48320200  1
  N  2687  1  0.54272800  0.47563000  0.49190900  1
  N  2702  1  0.21697300  0.69791800  0.83550000  1
  N  2705  1  0.19547700  0.73950900  0.85196700  1
  N  2708  1  0.14878600  0.71753500  0.86366300  1
  N  2710  1  0.10302600  0.71030600  0.88096500  1
  N  2725  1  0.21672800  0.24026500  0.11947300  1
  N  2728  1  0.19526300  0.19861500  0.10301200  1
  N  2731  1  0.14860900  0.22051000  0.09129000  1
  N  2733  1  0.10294700  0.22772300  0.07395700  1
  N  2748  1  0.19555200  0.74044300  0.11851100  1
  N  2751  1  0.21643500  0.69810000  0.10237900  1
  N  2754  1  0.26302500  0.72329800  0.09042300  1
  N  2756  1  0.30111700  0.71375900  0.07021500  1
  N  2771  1  0.19538800  0.19767500  0.83645700  1
  N  2774  1  0.21626400  0.24015800  0.85250700  1
  N  2777  1  0.26285800  0.21513400  0.86451100  1
  N  2779  1  0.30093500  0.22489100  0.88470400  1
  N  2794  1  0.71747100  0.19750200  0.33567700  1
  N  2797  1  0.69586400  0.23908400  0.35213000  1
  N  2800  1  0.64905300  0.21711500  0.36375600  1
  N  2802  1  0.60328100  0.20981900  0.38104400  1
  N  2817  1  0.71715100  0.73986700  0.61931800  1
  N  2820  1  0.69558100  0.69821900  0.60287400  1
  N  2823  1  0.64881000  0.72010600  0.59122000  1
  N  2825  1  0.60315800  0.72737900  0.57389300  1
  N  2840  1  0.69578100  0.24005800  0.61882300  1
  N  2843  1  0.71696800  0.19765700  0.60280000  1
  N  2846  1  0.76320800  0.22295700  0.59071500  1
  N  2848  1  0.80117500  0.21335800  0.57047500  1
  N  2863  1  0.69561200  0.69726700  0.33610700  1
  N  2866  1  0.71673100  0.73977900  0.35208600  1
  N  2869  1  0.76296300  0.71463100  0.36421700  1
  N  2871  1  0.80091300  0.72441700  0.38444400  1
  N  2886  1  0.96039410  0.46621800  0.71339500  1
  N  2889  1  0.95321510  0.48076900  0.74135300  1
  N  2892  1  0.89360900  0.49700500  0.73872900  1
  N  2894  1  0.83375000  0.51052100  0.74543400  1
  N  2909  1  0.96050510  0.47192700  0.24153200  1
  N  2912  1  0.95292610  0.45735100  0.21358900  1
  N  2915  1  0.89335200  0.44103100  0.21634100  1
  N  2917  1  0.83339900  0.42741300  0.20975300  1
  N  2932  1  0.45140200  0.96577370  0.24174900  1
  N  2935  1  0.45849500  0.98097070  0.21388800  1
  N  2938  1  0.51811800  0.99719675  0.21656600  1
  N  2940  1  0.57781800  0.01118100  0.20988400  1
  N  2955  1  0.45119600  0.97221570  0.71324600  1
  N  2958  1  0.45870700  0.95741770  0.74115500  1
  N  2961  1  0.51833500  0.94132570  0.73840500  1
  N  2963  1  0.57825400  0.92778070  0.74500600  1
