# generated using pymatgen
data_H9C14N2O3
_symmetry_space_group_name_H-M   'P 1'
_cell_length_a   19.02380000
_cell_length_b   89.42300000
_cell_length_c   89.42300000
_cell_angle_alpha   90.00000000
_cell_angle_beta   90.18400000
_cell_angle_gamma   89.81600000
_symmetry_Int_Tables_number   1
_chemical_formula_structural   H9C14N2O3
_chemical_formula_sum   'H576 C896 N128 O192'
_cell_volume   152121.73283703
_cell_formula_units_Z   64
loop_
 _symmetry_equiv_pos_site_id
 _symmetry_equiv_pos_as_xyz
  1  'x, y, z'
loop_
 _atom_site_type_symbol
 _atom_site_label
 _atom_site_symmetry_multiplicity
 _atom_site_fract_x
 _atom_site_fract_y
 _atom_site_fract_z
 _atom_site_occupancy
  C  1  1  0.08657100  0.91672500  0.05962900  1
  C  2  1  0.13503100  0.91985300  0.04807800  1
  C  3  1  0.12274600  0.93119300  0.03744500  1
  C  4  1  0.05970900  0.93944800  0.03755400  1
  C  5  1  0.00689500  0.93648200  0.04818200  1
  C  6  1  0.02251400  0.92555600  0.05939900  1
  C  9  1  0.10444100  0.90510200  0.07064450  1
  C  10  1  0.15441100  0.89308400  0.06900700  1
  C  11  1  0.16559400  0.88193600  0.08019900  1
  C  12  1  0.12831700  0.88319400  0.09389100  1
  C  13  1  0.07839300  0.89500600  0.09584800  1
  C  14  1  0.06910100  0.90556900  0.08444900  1
  C  25  1  0.06955200  0.05439800  0.41102900  1
  C  26  1  0.11799300  0.05119400  0.42264600  1
  C  27  1  0.10570200  0.03986700  0.43326000  1
  C  28  1  0.04266500  0.03169900  0.43306400  1
  C  29  1  0.98985800  0.03473800  0.42236200  1
  C  30  1  0.00549600  0.04564800  0.41117000  1
  C  33  1  0.08749100  0.06600700  0.40004100  1
  C  34  1  0.13758000  0.07794900  0.40172800  1
  C  35  1  0.14911300  0.08905200  0.39052600  1
  C  36  1  0.11147500  0.08786400  0.37681850  1
  C  37  1  0.06142200  0.07613600  0.37480450  1
  C  38  1  0.05214400  0.06558500  0.38619000  1
  C  49  1  0.07805900  0.16125800  0.16649950  1
  C  50  1  0.12651000  0.17280900  0.16969800  1
  C  51  1  0.11422100  0.18344200  0.18102200  1
  C  52  1  0.05118700  0.18333200  0.18919100  1
  C  53  1  0.99837600  0.17270300  0.18615300  1
  C  54  1  0.01400100  0.16148700  0.17524600  1
  C  57  1  0.09595600  0.15024400  0.15489700  1
  C  58  1  0.14598400  0.15187350  0.14295300  1
  C  59  1  0.15731300  0.14067050  0.13183300  1
  C  60  1  0.11987300  0.12699450  0.13302900  1
  C  61  1  0.06989800  0.12504150  0.14476650  1
  C  62  1  0.06061200  0.13644000  0.15531700  1
  C  73  1  0.06131200  0.80986200  0.30419400  1
  C  74  1  0.10975700  0.79824300  0.30104900  1
  C  75  1  0.09750300  0.78763200  0.28969600  1
  C  76  1  0.03443000  0.78780000  0.28147700  1
  C  77  1  0.98163700  0.79844400  0.28458400  1
  C  78  1  0.99720700  0.80970300  0.29541500  1
  C  81  1  0.07906800  0.82086100  0.31580000  1
  C  82  1  0.12905000  0.81916100  0.32781500  1
  C  83  1  0.14040800  0.83035500  0.33893900  1
  C  84  1  0.10289100  0.84407300  0.33768500  1
  C  85  1  0.05289200  0.84609100  0.32588100  1
  C  86  1  0.04365400  0.83470500  0.31531900  1
  C  97  1  0.63833200  0.91695800  0.41075200  1
  C  98  1  0.58970000  0.92008600  0.42233700  1
  C  99  1  0.60184800  0.93124600  0.43315300  1
  C  100  1  0.66348200  0.93988800  0.43282850  1
  C  101  1  0.71308700  0.93782500  0.42120800  1
  C  102  1  0.69937200  0.92645100  0.41049400  1
  C  105  1  0.62347200  0.90507200  0.39988000  1
  C  106  1  0.56923900  0.89396650  0.40115500  1
  C  107  1  0.55383400  0.88351200  0.38956850  1
  C  108  1  0.59560700  0.88357450  0.37655000  1
  C  109  1  0.65190800  0.89359700  0.37545850  1
  C  110  1  0.66446300  0.90407500  0.38675650  1
  C  121  1  0.65566100  0.05470150  0.05932950  1
  C  122  1  0.60691600  0.05165600  0.04768000  1
  C  123  1  0.61895700  0.04048300  0.03686550  1
  C  124  1  0.68058000  0.03175150  0.03726400  1
  C  125  1  0.73021800  0.03374100  0.04894950  1
  C  126  1  0.71661900  0.04512450  0.05965450  1
  C  129  1  0.64125500  0.06656850  0.07024200  1
  C  130  1  0.58752700  0.07776500  0.06889050  1
  C  131  1  0.57201200  0.08815300  0.08045050  1
  C  132  1  0.61347600  0.08829350  0.09352500  1
  C  133  1  0.66922500  0.07804950  0.09474350  1
  C  134  1  0.68160800  0.06746200  0.08350350  1
  C  145  1  0.64684500  0.16150550  0.30395850  1
  C  146  1  0.59825100  0.17319150  0.30083950  1
  C  147  1  0.61034900  0.18400000  0.28966900  1
  C  148  1  0.67198000  0.18359300  0.28101950  1
  C  149  1  0.72157600  0.17189850  0.28308600  1
  C  150  1  0.70783500  0.16119100  0.29446600  1
  C  153  1  0.63250000  0.15057500  0.31583700  1
  C  154  1  0.57837000  0.15194300  0.32692400  1
  C  155  1  0.56259700  0.14051100  0.33742450  1
  C  156  1  0.60470600  0.12755450  0.33773300  1
  C  157  1  0.66125700  0.12639600  0.32783000  1
  C  158  1  0.67334400  0.13733750  0.31689900  1
  C  169  1  0.66172400  0.81007650  0.16573550  1
  C  170  1  0.61195400  0.79866150  0.16879350  1
  C  171  1  0.62309600  0.78777850  0.17993650  1
  C  172  1  0.68514000  0.78766950  0.18840100  1
  C  173  1  0.73501400  0.79918650  0.18617950  1
  C  174  1  0.72283000  0.81011650  0.17507550  1
  C  177  1  0.64905900  0.82114650  0.15409900  1
  C  178  1  0.59570300  0.81977600  0.14291400  1
  C  179  1  0.58033400  0.83131150  0.13258350  1
  C  180  1  0.62139800  0.84436700  0.13254650  1
  C  181  1  0.67783600  0.84544700  0.14258250  1
  C  182  1  0.69037300  0.83425750  0.15322200  1
  C  193  1  0.65631000  0.05512000  0.91058900  1
  C  194  1  0.60896400  0.05257600  0.92243100  1
  C  195  1  0.62383500  0.04200600  0.93350900  1
  C  196  1  0.68497400  0.03322800  0.93334200  1
  C  197  1  0.73616900  0.03541200  0.92220350  1
  C  198  1  0.72001500  0.04609900  0.91074850  1
  C  201  1  0.63669200  0.06644000  0.89948000  1
  C  202  1  0.58649100  0.07841500  0.90118550  1
  C  203  1  0.57489500  0.08952500  0.89001600  1
  C  204  1  0.61209400  0.08827100  0.87632200  1
  C  205  1  0.66188700  0.07643900  0.87430900  1
  C  206  1  0.67146500  0.06586750  0.88565450  1
  C  217  1  0.63922600  0.91655700  0.55948200  1
  C  218  1  0.59189500  0.91917400  0.54757300  1
  C  219  1  0.60676600  0.92973100  0.53652100  1
  C  220  1  0.66791100  0.93842300  0.53677150  1
  C  221  1  0.71910000  0.93616700  0.54798150  1
  C  222  1  0.70292600  0.92549600  0.55941100  1
  C  225  1  0.61954000  0.90525400  0.57055900  1
  C  226  1  0.56922900  0.89335700  0.56880350  1
  C  227  1  0.55731700  0.88229000  0.57998100  1
  C  228  1  0.59483900  0.88347600  0.59369250  1
  C  229  1  0.64475400  0.89522450  0.59576400  1
  C  230  1  0.65431500  0.90578200  0.58443100  1
  C  241  1  0.66211900  0.81013450  0.80391700  1
  C  242  1  0.61367000  0.79858200  0.80070800  1
  C  243  1  0.62592100  0.78795350  0.78937200  1
  C  244  1  0.68899600  0.78803300  0.78124000  1
  C  245  1  0.74179300  0.79860500  0.78441800  1
  C  246  1  0.72622800  0.80988700  0.79522700  1
  C  249  1  0.64438600  0.82115800  0.81549400  1
  C  250  1  0.59441300  0.81952300  0.82743800  1
  C  251  1  0.58315000  0.83072550  0.83855400  1
  C  252  1  0.62058800  0.84440000  0.83735300  1
  C  253  1  0.67055200  0.84635250  0.82561400  1
  C  254  1  0.67980000  0.83495500  0.81506300  1
  C  265  1  0.64535200  0.16155400  0.66619900  1
  C  266  1  0.59690500  0.17317100  0.66933400  1
  C  267  1  0.60919800  0.18378600  0.68067600  1
  C  268  1  0.67223200  0.18359000  0.68893200  1
  C  269  1  0.72504000  0.17288900  0.68596400  1
  C  270  1  0.70941000  0.16169500  0.67503500  1
  C  273  1  0.62743800  0.15056600  0.65456900  1
  C  274  1  0.57740000  0.15226000  0.64255500  1
  C  275  1  0.56597400  0.14106650  0.63142450  1
  C  276  1  0.60348400  0.12734650  0.63267300  1
  C  277  1  0.65348400  0.12532900  0.64447600  1
  C  278  1  0.66277800  0.13671500  0.65503900  1
  C  289  1  0.06561400  0.05489800  0.55972850  1
  C  290  1  0.11227700  0.05236850  0.54773050  1
  C  291  1  0.09567100  0.04268300  0.53592950  1
  C  292  1  0.03801000  0.03294200  0.53686850  1
  C  293  1  0.99101000  0.03406550  0.54913350  1
  C  294  1  0.00502300  0.04525350  0.56005300  1
  C  297  1  0.08262700  0.06646350  0.57071950  1
  C  298  1  0.13697000  0.07756650  0.56936650  1
  C  299  1  0.15257900  0.08800450  0.58094500  1
  C  300  1  0.11054800  0.08795350  0.59391350  1
  C  301  1  0.05444300  0.07789500  0.59506350  1
  C  302  1  0.04202400  0.06736750  0.58385600  1
  C  313  1  0.08230100  0.91625450  0.91092050  1
  C  314  1  0.12915300  0.91870900  0.92296900  1
  C  315  1  0.11265300  0.92840100  0.93477000  1
  C  316  1  0.05501300  0.93822750  0.93376100  1
  C  317  1  0.00797400  0.93718000  0.92143400  1
  C  318  1  0.02183900  0.92598500  0.91052450  1
  C  321  1  0.09855200  0.90466900  0.89992450  1
  C  322  1  0.15258300  0.89351850  0.90136900  1
  C  323  1  0.16839400  0.88316600  0.88981850  1
  C  324  1  0.12711400  0.88305650  0.87674300  1
  C  325  1  0.07091100  0.89316300  0.87554650  1
  C  326  1  0.05807600  0.90375450  0.88671550  1
  C  337  1  0.06212800  0.80984600  0.66588150  1
  C  338  1  0.11167300  0.79833150  0.66903650  1
  C  339  1  0.10044900  0.78748300  0.68020000  1
  C  340  1  0.03839800  0.78747050  0.68858700  1
  C  341  1  0.98860800  0.79907200  0.68629000  1
  C  342  1  0.00099800  0.80997350  0.67517050  1
  C  345  1  0.07521200  0.82091550  0.65423350  1
  C  346  1  0.12886200  0.81956550  0.64311900  1
  C  347  1  0.14406500  0.83108000  0.63274600  1
  C  348  1  0.10185500  0.84402900  0.63257550  1
  C  349  1  0.04538600  0.84512000  0.64251950  1
  C  350  1  0.03383500  0.83409250  0.65335400  1
  C  361  1  0.07621800  0.16130000  0.80413800  1
  C  362  1  0.12501700  0.17286600  0.80110100  1
  C  363  1  0.11295800  0.18369600  0.78994400  1
  C  364  1  0.05133400  0.18338100  0.78121900  1
  C  365  1  0.00168000  0.17176900  0.78320400  1
  C  366  1  0.01523100  0.16104750  0.79457800  1
  C  369  1  0.09059300  0.15043100  0.81602650  1
  C  370  1  0.14463400  0.15178350  0.82719950  1
  C  371  1  0.16006500  0.14018800  0.83760450  1
  C  372  1  0.11868900  0.12714850  0.83757050  1
  C  373  1  0.06246300  0.12599300  0.82747450  1
  C  374  1  0.04975700  0.13727400  0.81695950  1
  C  385  1  0.06953800  0.41674400  0.55961500  1
  C  386  1  0.11800900  0.41987500  0.54806600  1
  C  387  1  0.10571400  0.43121300  0.53742800  1
  C  388  1  0.04267700  0.43946600  0.53753500  1
  C  389  1  0.98986400  0.43650050  0.54816300  1
  C  390  1  0.00548500  0.42557700  0.55937900  1
  C  393  1  0.08726500  0.40509000  0.57061300  1
  C  394  1  0.13740200  0.39309700  0.56899900  1
  C  395  1  0.14849400  0.38193400  0.58018600  1
  C  396  1  0.11086200  0.38313700  0.59384100  1
  C  397  1  0.06058700  0.39487600  0.59574000  1
  C  398  1  0.05140900  0.40546100  0.58436100  1
  C  409  1  0.08662200  0.55437900  0.91104300  1
  C  410  1  0.13507700  0.55117200  0.92265900  1
  C  411  1  0.12277300  0.53984800  0.93327600  1
  C  412  1  0.05973500  0.53167900  0.93308200  1
  C  413  1  0.00693100  0.53471900  0.92238100  1
  C  414  1  0.02256900  0.54562700  0.91118900  1
  C  417  1  0.10442100  0.56601700  0.90007200  1
  C  418  1  0.15466900  0.57793300  0.90173700  1
  C  419  1  0.16606600  0.58905500  0.89054250  1
  C  420  1  0.12811400  0.58792050  0.87686700  1
  C  421  1  0.07772400  0.57626400  0.87491100  1
  C  422  1  0.06855600  0.56569350  0.88627700  1
  C  433  1  0.05868300  0.66114350  0.66598350  1
  C  434  1  0.10558900  0.67306250  0.66856000  1
  C  435  1  0.08950500  0.68461500  0.67854650  1
  C  436  1  0.02989300  0.68405600  0.68768450  1
  C  437  1  0.97898200  0.67285900  0.68542800  1
  C  438  1  0.99503600  0.66132500  0.67487550  1
  C  441  1  0.07829200  0.65001050  0.65471500  1
  C  442  1  0.12861700  0.65169600  0.64282850  1
  C  443  1  0.14017700  0.64052400  0.63172550  1
  C  444  1  0.10247600  0.62688100  0.63286700  1
  C  445  1  0.05227900  0.62493100  0.64455000  1
  C  446  1  0.04288700  0.63625300  0.65513550  1
  C  457  1  0.07568800  0.31000450  0.80460850  1
  C  458  1  0.12303000  0.29809700  0.80205650  1
  C  459  1  0.10816900  0.28704500  0.79147900  1
  C  460  1  0.04700300  0.28728900  0.78270900  1
  C  461  1  0.99581400  0.29849700  0.78489450  1
  C  462  1  0.01198400  0.30992800  0.79558300  1
  C  465  1  0.09520600  0.32106650  0.81596700  1
  C  466  1  0.14563400  0.31932650  0.82791300  1
  C  467  1  0.15733400  0.33049050  0.83902500  1
  C  468  1  0.11957500  0.34417900  0.83783200  1
  C  469  1  0.06933700  0.34619500  0.82608500  1
  C  470  1  0.05990200  0.33488250  0.81549100  1
  C  481  1  0.65539500  0.41697550  0.91073850  1
  C  482  1  0.60678200  0.42008400  0.92234400  1
  C  483  1  0.61891700  0.43123700  0.93316650  1
  C  484  1  0.68055300  0.43987750  0.93283950  1
  C  485  1  0.73016000  0.43781200  0.92121600  1
  C  486  1  0.71645100  0.42644400  0.91049100  1
  C  489  1  0.64085800  0.40511800  0.89982250  1
  C  490  1  0.58638100  0.39401250  0.90120650  1
  C  491  1  0.57093200  0.38345500  0.88973200  1
  C  492  1  0.61393600  0.38325850  0.87699600  1
  C  493  1  0.67001400  0.39322700  0.87572400  1
  C  494  1  0.68163400  0.40425450  0.88655800  1
  C  505  1  0.63860100  0.55469500  0.55930250  1
  C  506  1  0.58983700  0.55165000  0.54766000  1
  C  507  1  0.60190400  0.54048500  0.53684800  1
  C  508  1  0.66353500  0.53175900  0.53724900  1
  C  509  1  0.71317300  0.53374750  0.54893450  1
  C  510  1  0.69957500  0.54512800  0.55963800  1
  C  513  1  0.62436500  0.56662100  0.57014900  1
  C  514  1  0.57006100  0.57777950  0.56873800  1
  C  515  1  0.55470500  0.58820300  0.58032450  1
  C  516  1  0.59673100  0.58832650  0.59325900  1
  C  517  1  0.65276700  0.57827450  0.59450400  1
  C  518  1  0.66535100  0.56757900  0.58337750  1
  C  529  1  0.66374300  0.66139350  0.80494700  1
  C  530  1  0.61588100  0.67329200  0.80240800  1
  C  531  1  0.63183500  0.68506850  0.79270050  1
  C  532  1  0.69031000  0.68459600  0.78325800  1
  C  533  1  0.73706700  0.67226400  0.78452050  1
  C  534  1  0.72454900  0.66121150  0.79551900  1
  C  537  1  0.64861700  0.65021350  0.81627050  1
  C  538  1  0.59484700  0.65163200  0.82735250  1
  C  539  1  0.57932100  0.64014750  0.83770500  1
  C  540  1  0.62114800  0.62713750  0.83783950  1
  C  541  1  0.67750500  0.62601900  0.82785950  1
  C  542  1  0.68978900  0.63707850  0.81715300  1
  C  553  1  0.64969400  0.31023400  0.66578350  1
  C  554  1  0.60285000  0.29825200  0.66822600  1
  C  555  1  0.61938000  0.28641300  0.67788850  1
  C  556  1  0.67697900  0.28735700  0.68772300  1
  C  557  1  0.72402000  0.29962000  0.68668400  1
  C  558  1  0.71019800  0.31054900  0.67549700  1
  C  561  1  0.63329400  0.32123600  0.65421700  1
  C  562  1  0.57913400  0.31980350  0.64306850  1
  C  563  1  0.56338300  0.33137050  0.63268700  1
  C  564  1  0.60465800  0.34441700  0.63271250  1
  C  565  1  0.66095700  0.34560050  0.64278550  1
  C  566  1  0.67387000  0.33438700  0.65331850  1
  C  577  1  0.63925700  0.55513100  0.41057700  1
  C  578  1  0.59190800  0.55258800  0.42242000  1
  C  579  1  0.60677700  0.54201500  0.43349500  1
  C  580  1  0.66792000  0.53323950  0.43332900  1
  C  581  1  0.71911600  0.53542400  0.42219000  1
  C  582  1  0.70296000  0.54611150  0.41073700  1
  C  585  1  0.61964000  0.56645100  0.39946800  1
  C  586  1  0.56944200  0.57842500  0.40117500  1
  C  587  1  0.55786600  0.58953700  0.39000700  1
  C  588  1  0.59504400  0.58828100  0.37631200  1
  C  589  1  0.64483200  0.57644900  0.37429800  1
  C  590  1  0.65441200  0.56587800  0.38564300  1
  C  601  1  0.65627600  0.41654500  0.05949400  1
  C  602  1  0.60894600  0.41916300  0.04758500  1
  C  603  1  0.62381300  0.42971950  0.03653300  1
  C  604  1  0.68496200  0.43841150  0.03678400  1
  C  605  1  0.73615000  0.43615600  0.04799400  1
  C  606  1  0.71997800  0.42548500  0.05942300  1
  C  609  1  0.63659200  0.40524200  0.07057100  1
  C  610  1  0.58627800  0.39334500  0.06881500  1
  C  611  1  0.57435900  0.38227800  0.07999300  1
  C  612  1  0.61188600  0.38346400  0.09370400  1
  C  613  1  0.66180000  0.39521250  0.09577400  1
  C  614  1  0.67136800  0.40577000  0.08444200  1
  C  625  1  0.64777000  0.31029900  0.30432100  1
  C  626  1  0.60043000  0.29845550  0.30170800  1
  C  627  1  0.61529800  0.28738150  0.29115400  1
  C  628  1  0.67644300  0.28754850  0.28246200  1
  C  629  1  0.72763700  0.29868750  0.28471700  1
  C  630  1  0.71147300  0.31014000  0.29538400  1
  C  633  1  0.62812600  0.32140550  0.31561600  1
  C  634  1  0.57787400  0.31970800  0.32751700  1
  C  635  1  0.56615900  0.33088600  0.33860150  1
  C  636  1  0.60348600  0.34456600  0.33740700  1
  C  637  1  0.65332400  0.34657500  0.32564900  1
  C  638  1  0.66289900  0.33522950  0.31509100  1
  C  649  1  0.66467100  0.66140750  0.16569350  1
  C  650  1  0.61767400  0.67337300  0.16821600  1
  C  651  1  0.63369300  0.68478350  0.17835000  1
  C  652  1  0.69360000  0.68424500  0.18747000  1
  C  653  1  0.74447900  0.67299050  0.18525400  1
  C  654  1  0.72835500  0.66149000  0.17466900  1
  C  657  1  0.64496800  0.65028850  0.15442700  1
  C  658  1  0.59480200  0.65206150  0.14244750  1
  C  659  1  0.58306400  0.64089250  0.13135500  1
  C  660  1  0.62047000  0.62716950  0.13260600  1
  C  661  1  0.67033200  0.62509500  0.14442950  1
  C  662  1  0.67985000  0.63642750  0.15500150  1
  C  673  1  0.08257500  0.55487750  0.05976050  1
  C  674  1  0.12927800  0.55235400  0.04775450  1
  C  675  1  0.11271500  0.54267250  0.03594700  1
  C  676  1  0.05505500  0.53293200  0.03688200  1
  C  677  1  0.00804600  0.53405350  0.04914950  1
  C  678  1  0.02203200  0.54523700  0.06007900  1
  C  681  1  0.09923400  0.56645050  0.07076400  1
  C  682  1  0.15371300  0.57750700  0.06935800  1
  C  683  1  0.16956500  0.58797850  0.08086350  1
  C  684  1  0.12783900  0.58802450  0.09384400  1
  C  685  1  0.07140300  0.57810200  0.09499400  1
  C  686  1  0.05839900  0.56747950  0.08388500  1
  C  697  1  0.06520800  0.41628700  0.41088550  1
  C  698  1  0.11206400  0.41872900  0.42295000  1
  C  699  1  0.09558900  0.42841350  0.43475900  1
  C  700  1  0.03795100  0.43824000  0.43374900  1
  C  701  1  0.99091000  0.43719250  0.42141900  1
  C  702  1  0.00475300  0.42599900  0.41049700  1
  C  705  1  0.08110100  0.40469000  0.39987500  1
  C  706  1  0.13532500  0.39356200  0.40139450  1
  C  707  1  0.15129000  0.38315200  0.38990000  1
  C  708  1  0.10972200  0.38287000  0.37694800  1
  C  709  1  0.05343100  0.39284400  0.37570400  1
  C  710  1  0.04047700  0.40369000  0.38664150  1
  C  721  1  0.07405600  0.31000350  0.16596200  1
  C  722  1  0.12073100  0.29792400  0.16847850  1
  C  723  1  0.10422400  0.28611600  0.17816150  1
  C  724  1  0.04665800  0.28712000  0.18793950  1
  C  725  1  0.99961600  0.29944200  0.18685450  1
  C  726  1  0.01360000  0.31035450  0.17565000  1
  C  729  1  0.09063100  0.32103700  0.15438650  1
  C  730  1  0.14486000  0.31964350  0.14332050  1
  C  731  1  0.16088600  0.33109700  0.13287650  1
  C  732  1  0.11920300  0.34414750  0.13268750  1
  C  733  1  0.06279700  0.34529550  0.14267150  1
  C  734  1  0.04999900  0.33422000  0.15336000  1
  C  745  1  0.05929800  0.66118250  0.30508050  1
  C  746  1  0.10735000  0.67298100  0.30262700  1
  C  747  1  0.09140200  0.68480500  0.29295800  1
  C  748  1  0.03295800  0.68441300  0.28343700  1
  C  749  1  0.98613400  0.67215700  0.28462400  1
  C  750  1  0.99845800  0.66108200  0.29561300  1
  C  753  1  0.07415500  0.65003200  0.31641450  1
  C  754  1  0.12791800  0.65152000  0.32757350  1
  C  755  1  0.14327200  0.63996550  0.33789200  1
  C  756  1  0.10183200  0.62698500  0.33787950  1
  C  757  1  0.04553000  0.62582050  0.32786550  1
  C  758  1  0.03295400  0.63693250  0.31722100  1
  C  769  1  0.93227200  0.86922400  0.12850450  1
  C  770  1  0.86986800  0.86376350  0.13483000  1
  C  771  1  0.81112800  0.87363600  0.13556100  1
  C  772  1  0.81590900  0.88766100  0.12829650  1
  C  773  1  0.87770300  0.89286650  0.12135850  1
  C  774  1  0.93878700  0.88368600  0.12214900  1
  C  781  1  0.00688100  0.88656900  0.11668600  1
  C  783  1  0.74559700  0.87101400  0.14245950  1
  C  785  1  0.91527000  0.10210750  0.34196050  1
  C  786  1  0.85293700  0.10772900  0.33560100  1
  C  787  1  0.79406700  0.09804300  0.33486500  1
  C  788  1  0.79867000  0.08392300  0.34202500  1
  C  789  1  0.86045600  0.07855800  0.34901750  1
  C  790  1  0.92165400  0.08762750  0.34831650  1
  C  797  1  0.98977700  0.08464600  0.35386700  1
  C  799  1  0.73049200  0.10065450  0.32711850  1
  C  801  1  0.92371900  0.09237300  0.11883550  1
  C  802  1  0.86136800  0.08605400  0.11331300  1
  C  803  1  0.80258600  0.08538000  0.12309950  1
  C  804  1  0.80720100  0.09255100  0.13715600  1
  C  805  1  0.86908300  0.09950400  0.14240200  1
  C  806  1  0.93019100  0.09873700  0.13329400  1
  C  813  1  0.99831300  0.10420700  0.13624100  1
  C  815  1  0.73660800  0.07893900  0.11997850  1
  C  817  1  0.90667500  0.87896200  0.35162100  1
  C  818  1  0.84430800  0.88539400  0.35705800  1
  C  819  1  0.78544900  0.88617700  0.34720200  1
  C  820  1  0.79025100  0.87893350  0.33317000  1
  C  821  1  0.85208800  0.87189700  0.32798200  1
  C  822  1  0.91318500  0.87258750  0.33716800  1
  C  829  1  0.98129000  0.86702000  0.33430150  1
  C  831  1  0.71931100  0.89279050  0.35009650  1
  C  833  1  0.80833100  0.10217150  0.84184000  1
  C  834  1  0.87068800  0.10758800  0.83549000  1
  C  835  1  0.92946500  0.09771000  0.83479100  1
  C  836  1  0.92466100  0.08368600  0.84204100  1
  C  837  1  0.86280100  0.07850950  0.84898400  1
  C  838  1  0.80177600  0.08771600  0.84818200  1
  C  845  1  0.73359000  0.08487400  0.85358500  1
  C  847  1  0.99557800  0.10058200  0.82825950  1
  C  849  1  0.79123200  0.86928650  0.62841100  1
  C  850  1  0.85358000  0.86370550  0.63477600  1
  C  851  1  0.91235700  0.87343050  0.63551000  1
  C  852  1  0.90768700  0.88753250  0.62833250  1
  C  853  1  0.84585900  0.89286450  0.62134650  1
  C  854  1  0.78475800  0.88376450  0.62207350  1
  C  861  1  0.71655400  0.88671300  0.61658800  1
  C  863  1  0.97647300  0.87074250  0.64300600  1
  C  865  1  0.81674700  0.87901600  0.85155900  1
  C  866  1  0.87913900  0.88535600  0.85707100  1
  C  867  1  0.93786000  0.88605050  0.84725500  1
  C  868  1  0.93308400  0.87880250  0.83323350  1
  C  869  1  0.87124500  0.87186450  0.82798200  1
  C  870  1  0.81020000  0.87265200  0.83709600  1
  C  877  1  0.74209800  0.86718700  0.83413750  1
  C  879  1  0.00386800  0.89264200  0.85010800  1
  C  881  1  0.79971300  0.09246150  0.61874050  1
  C  882  1  0.86212500  0.08605600  0.61330400  1
  C  883  1  0.92094100  0.08529900  0.62317350  1
  C  884  1  0.91613500  0.09252900  0.63720550  1
  C  885  1  0.85423500  0.09953450  0.64238650  1
  C  886  1  0.79316900  0.09883350  0.63319250  1
  C  893  1  0.72505100  0.10439200  0.63605250  1
  C  895  1  0.98695700  0.07864100  0.62032350  1
  C  897  1  0.91540900  0.36925500  0.62844700  1
  C  898  1  0.85292900  0.36381250  0.63475850  1
  C  899  1  0.79413600  0.37369500  0.63546200  1
  C  900  1  0.79881200  0.38768200  0.62815600  1
  C  901  1  0.86069800  0.39286600  0.62124300  1
  C  902  1  0.92196200  0.38374200  0.62217800  1
  C  909  1  0.99038400  0.38680800  0.61700800  1
  C  911  1  0.72815200  0.37091750  0.64207800  1
  C  913  1  0.93245800  0.60209300  0.84202200  1
  C  914  1  0.86993900  0.60768200  0.83567850  1
  C  915  1  0.81119600  0.59789800  0.83487600  1
  C  916  1  0.81580900  0.58388950  0.84218750  1
  C  917  1  0.87765800  0.57856700  0.84915200  1
  C  918  1  0.93897700  0.58758400  0.84828800  1
  C  925  1  0.00741000  0.58440850  0.85354400  1
  C  927  1  0.74626900  0.60044900  0.82759750  1
  C  929  1  0.90678500  0.59243350  0.61874800  1
  C  930  1  0.84429500  0.58616800  0.61317450  1
  C  931  1  0.78545200  0.58546500  0.62293450  1
  C  932  1  0.79018500  0.59272600  0.63697250  1
  C  933  1  0.85205100  0.59962350  0.64229250  1
  C  934  1  0.91332400  0.59866750  0.63325800  1
  C  941  1  0.98184200  0.60376700  0.63640450  1
  C  943  1  0.72032800  0.57840150  0.62022700  1
  C  945  1  0.92379800  0.37887250  0.85170400  1
  C  946  1  0.86129800  0.38516800  0.85724200  1
  C  947  1  0.80228400  0.38585150  0.84751050  1
  C  948  1  0.80694400  0.37874250  0.83338400  1
  C  949  1  0.86890100  0.37177450  0.82810050  1
  C  950  1  0.93030100  0.37264450  0.83719500  1
  C  957  1  0.99885500  0.36745900  0.83413000  1
  C  959  1  0.74096700  0.39432450  0.85020950  1
  C  961  1  0.79125800  0.60220200  0.34184650  1
  C  962  1  0.85366500  0.60763850  0.33552550  1
  C  963  1  0.91228100  0.59773050  0.33480350  1
  C  964  1  0.90748400  0.58371700  0.34207950  1
  C  965  1  0.84566600  0.57853100  0.34900350  1
  C  966  1  0.78467400  0.58773800  0.34818000  1
  C  973  1  0.71649000  0.58488350  0.35357100  1
  C  975  1  0.97781000  0.60029450  0.32790800  1
  C  977  1  0.80832600  0.36927800  0.12842800  1
  C  978  1  0.87072800  0.36373250  0.13481550  1
  C  979  1  0.92940000  0.37353650  0.13561100  1
  C  980  1  0.92465200  0.38756850  0.12834600  1
  C  981  1  0.86282200  0.39286300  0.12135100  1
  C  982  1  0.80177900  0.38375300  0.12208650  1
  C  989  1  0.73358000  0.38669900  0.11660000  1
  C  991  1  0.99469700  0.37089150  0.14269700  1
  C  993  1  0.79977100  0.37902250  0.35161200  1
  C  994  1  0.86223300  0.38529700  0.35718150  1
  C  995  1  0.92090700  0.38600900  0.34739050  1
  C  996  1  0.91603700  0.37878400  0.33333333  1
  C  997  1  0.85423800  0.37187700  0.32802050  1
  C  998  1  0.79320800  0.37269700  0.33713100  1
  C  1005  1  0.72502200  0.36730550  0.33417300  1
  C  1007  1  0.98560100  0.39332000  0.34985650  1
  C  1009  1  0.81684700  0.59244100  0.11869050  1
  C  1010  1  0.87925400  0.58604050  0.11323950  1
  C  1011  1  0.93792800  0.58523550  0.12312750  1
  C  1012  1  0.93312100  0.59250800  0.13715150  1
  C  1013  1  0.87130800  0.59951650  0.14235300  1
  C  1014  1  0.81028400  0.59878400  0.13315550  1
  C  1021  1  0.74209600  0.60427300  0.13600900  1
  C  1023  1  0.00341900  0.57822600  0.12054700  1
  C  1025  1  0.35484000  0.83607900  0.10355000  1
  C  1026  1  0.30329900  0.84466900  0.09585150  1
  C  1027  1  0.32067100  0.85919400  0.09046950  1
  C  1028  1  0.38957700  0.86417150  0.09377050  1
  C  1029  1  0.44077900  0.85572000  0.10162350  1
  C  1030  1  0.42446600  0.84099250  0.10670350  1
  C  1037  1  0.46564900  0.83026800  0.11486050  1
  C  1039  1  0.27716300  0.87014900  0.08327000  1
  C  1041  1  0.33890600  0.13473750  0.36734350  1
  C  1042  1  0.28738300  0.12621850  0.37502450  1
  C  1043  1  0.30467300  0.11166800  0.38040900  1
  C  1044  1  0.37369900  0.10666250  0.37717400  1
  C  1045  1  0.42483000  0.11504900  0.36930500  1
  C  1046  1  0.40868700  0.12980100  0.36407950  1
  C  1053  1  0.44883100  0.14049950  0.35558850  1
  C  1055  1  0.26095400  0.10074800  0.38750500  1
  C  1057  1  0.34657900  0.11734200  0.08618850  1
  C  1058  1  0.29514300  0.12504300  0.09473350  1
  C  1059  1  0.31267200  0.13041700  0.10926700  1
  C  1060  1  0.38163600  0.12706600  0.11429400  1
  C  1061  1  0.43273100  0.11916250  0.10588900  1
  C  1062  1  0.41639300  0.11412050  0.09110100  1
  C  1069  1  0.45673300  0.10582800  0.08032000  1
  C  1071  1  0.26905900  0.13757450  0.12018350  1
  C  1073  1  0.33017700  0.85359600  0.38491400  1
  C  1074  1  0.27865700  0.84590600  0.37629300  1
  C  1075  1  0.29575100  0.84050500  0.36174800  1
  C  1076  1  0.36475400  0.84371200  0.35683200  1
  C  1077  1  0.41595600  0.85150700  0.36533150  1
  C  1078  1  0.39977000  0.85678200  0.38007100  1
  C  1085  1  0.44075100  0.86518700  0.39071800  1
  C  1087  1  0.25212900  0.83336100  0.35077800  1
  C  1089  1  0.38556700  0.13539500  0.86678050  1
  C  1090  1  0.43702900  0.12676000  0.87449300  1
  C  1091  1  0.41967800  0.11223400  0.87988100  1
  C  1092  1  0.35075200  0.10728700  0.87656650  1
  C  1093  1  0.29959900  0.11579500  0.86872000  1
  C  1094  1  0.31593700  0.13057100  0.86361000  1
  C  1101  1  0.27484200  0.14131100  0.85537050  1
  C  1103  1  0.46320700  0.10127500  0.88708500  1
  C  1105  1  0.36762200  0.83667000  0.60299600  1
  C  1106  1  0.41907400  0.84519800  0.59532200  1
  C  1107  1  0.40170300  0.85974250  0.58993900  1
  C  1108  1  0.33269900  0.86475500  0.59317250  1
  C  1109  1  0.28160400  0.85635950  0.60103450  1
  C  1110  1  0.29789000  0.84160300  0.60623600  1
  C  1117  1  0.25785900  0.83087150  0.61466900  1
  C  1119  1  0.44541400  0.87065300  0.58284300  1
  C  1121  1  0.39399900  0.85405150  0.88419900  1
  C  1122  1  0.44536900  0.84634450  0.87564150  1
  C  1123  1  0.42781600  0.84097100  0.86110750  1
  C  1124  1  0.35885400  0.84432450  0.85608750  1
  C  1125  1  0.30779900  0.85223000  0.86450600  1
  C  1126  1  0.32423900  0.85728300  0.87929700  1
  C  1133  1  0.28393300  0.86553000  0.89011100  1
  C  1135  1  0.47141400  0.83381100  0.85019000  1
  C  1137  1  0.37628600  0.11780400  0.58540750  1
  C  1138  1  0.42774300  0.12550050  0.59404700  1
  C  1139  1  0.41065400  0.13090300  0.60859500  1
  C  1140  1  0.34165200  0.12769000  0.61350000  1
  C  1141  1  0.29048600  0.11989750  0.60498950  1
  C  1142  1  0.30672800  0.11462600  0.59024900  1
  C  1149  1  0.26555900  0.10624100  0.57963350  1
  C  1151  1  0.45424900  0.13805100  0.61957200  1
  C  1153  1  0.33778800  0.33601100  0.60357400  1
  C  1154  1  0.28633100  0.34465100  0.59586300  1
  C  1155  1  0.30366900  0.35918000  0.59047400  1
  C  1156  1  0.37260500  0.36412200  0.59379100  1
  C  1157  1  0.42375600  0.35561100  0.60163200  1
  C  1158  1  0.40741200  0.34083500  0.60673600  1
  C  1165  1  0.44856100  0.33010100  0.61496000  1
  C  1167  1  0.26019100  0.37015000  0.58326400  1
  C  1169  1  0.35572200  0.63472200  0.86737450  1
  C  1170  1  0.30427900  0.62619300  0.87504850  1
  C  1171  1  0.32164000  0.61164450  0.88043150  1
  C  1172  1  0.39065600  0.60663700  0.87719700  1
  C  1173  1  0.44174900  0.61503050  0.86933850  1
  C  1174  1  0.42544700  0.62978300  0.86414350  1
  C  1181  1  0.46554800  0.64050900  0.85573450  1
  C  1183  1  0.27798200  0.60072350  0.88753450  1
  C  1185  1  0.32940100  0.61730650  0.58607900  1
  C  1186  1  0.27814600  0.62501800  0.59469200  1
  C  1187  1  0.29571500  0.63039800  0.60922700  1
  C  1188  1  0.36469800  0.62702500  0.61420750  1
  C  1189  1  0.41570500  0.61914200  0.60572150  1
  C  1190  1  0.39916000  0.61407500  0.59089000  1
  C  1197  1  0.43941400  0.60583700  0.58002550  1
  C  1199  1  0.25212800  0.63757650  0.62014350  1
  C  1201  1  0.34724100  0.35361750  0.88495350  1
  C  1202  1  0.29575400  0.34592900  0.87631300  1
  C  1203  1  0.31285600  0.34051900  0.86177050  1
  C  1204  1  0.38185600  0.34373150  0.85686600  1
  C  1205  1  0.43307100  0.35150200  0.86539050  1
  C  1206  1  0.41688300  0.35677500  0.88014000  1
  C  1213  1  0.45799600  0.36516600  0.89077600  1
  C  1215  1  0.26924700  0.33333333  0.85080850  1
  C  1217  1  0.36872400  0.63540200  0.36678600  1
  C  1218  1  0.42012800  0.62676100  0.37449300  1
  C  1219  1  0.40271900  0.61223700  0.37988000  1
  C  1220  1  0.33380900  0.60728500  0.37656700  1
  C  1221  1  0.28268400  0.61579700  0.36873200  1
  C  1222  1  0.29913700  0.63057300  0.36364800  1
  C  1229  1  0.25807800  0.64132100  0.35545950  1
  C  1231  1  0.44620200  0.60127900  0.38708400  1
  C  1233  1  0.38456600  0.33666050  0.10301800  1
  C  1234  1  0.43606800  0.34517900  0.09534000  1
  C  1235  1  0.41873600  0.35972550  0.08995500  1
  C  1236  1  0.34973200  0.36474050  0.09318600  1
  C  1237  1  0.29861700  0.35635450  0.10105300  1
  C  1238  1  0.31480600  0.34160450  0.10626900  1
  C  1245  1  0.27460900  0.33090400  0.11472950  1
  C  1247  1  0.46245500  0.37063700  0.08285900  1
  C  1249  1  0.37692400  0.35407000  0.38419700  1
  C  1250  1  0.42828300  0.34636200  0.37563750  1
  C  1251  1  0.41071700  0.34098750  0.36110550  1
  C  1252  1  0.34176400  0.34434000  0.35608450  1
  C  1253  1  0.29072300  0.35224500  0.36450650  1
  C  1254  1  0.30718300  0.35729600  0.37929150  1
  C  1261  1  0.26685900  0.36555700  0.39007300  1
  C  1263  1  0.45434000  0.33382750  0.35019700  1
  C  1265  1  0.39327700  0.61780600  0.08544500  1
  C  1266  1  0.44478100  0.62549400  0.09406600  1
  C  1267  1  0.42765500  0.63089500  0.10860700  1
  C  1268  1  0.35867500  0.62769200  0.11353100  1
  C  1269  1  0.30748500  0.61990000  0.10503200  1
  C  1270  1  0.32369500  0.61463000  0.09029300  1
  C  1277  1  0.28273300  0.60623100  0.07964900  1
  C  1279  1  0.47128000  0.63804000  0.11956750  1
  C  1281  1  0.19388800  0.91474900  0.99146700  1
  C  1282  1  0.19196600  0.91649400  0.97575800  1
  C  1283  1  0.19118800  0.93118550  0.96980500  1
  C  1284  1  0.19096500  0.94353000  0.97962200  1
  C  1285  1  0.19358400  0.94177600  0.99528400  1
  C  1286  1  0.19663400  0.92708300  0.00140500  1
  C  1293  1  0.19388900  0.92385300  0.01665500  1
  C  1295  1  0.20361800  0.93451850  0.95497650  1
  C  1297  1  0.17683600  0.05620950  0.47933900  1
  C  1298  1  0.17491400  0.05446750  0.49504500  1
  C  1299  1  0.17415600  0.03977700  0.50099800  1
  C  1300  1  0.17391400  0.02743350  0.49117900  1
  C  1301  1  0.17653200  0.02918300  0.47552050  1
  C  1302  1  0.17958000  0.04387200  0.46940300  1
  C  1309  1  0.17683800  0.04710700  0.45414900  1
  C  1311  1  0.18658700  0.03642750  0.51584150  1
  C  1313  1  0.18536400  0.22942100  0.16467700  1
  C  1314  1  0.18342700  0.24512950  0.16641800  1
  C  1315  1  0.18256500  0.25108500  0.18110700  1
  C  1316  1  0.18242400  0.24126550  0.19345300  1
  C  1317  1  0.18506300  0.22560400  0.19170450  1
  C  1318  1  0.18810800  0.21948200  0.17701500  1
  C  1325  1  0.18536400  0.20423300  0.17378100  1
  C  1327  1  0.19499900  0.26591550  0.18445750  1
  C  1329  1  0.16819600  0.74155600  0.30611700  1
  C  1330  1  0.16673400  0.72585200  0.30438100  1
  C  1331  1  0.16748400  0.71987300  0.28970300  1
  C  1332  1  0.16572200  0.72965800  0.27734700  1
  C  1333  1  0.16787400  0.74533500  0.27909400  1
  C  1334  1  0.17102700  0.75147750  0.29378000  1
  C  1341  1  0.16840000  0.76673400  0.29701500  1
  C  1343  1  0.18158200  0.70504850  0.28663300  1
  C  1345  1  0.52939400  0.91521300  0.47895900  1
  C  1346  1  0.53126500  0.91704000  0.49466550  1
  C  1347  1  0.53034500  0.93177200  0.50059700  1
  C  1348  1  0.53225400  0.94402500  0.49069300  1
  C  1349  1  0.52966400  0.94219300  0.47502900  1
  C  1350  1  0.52622400  0.92748150  0.46894800  1
  C  1357  1  0.52865300  0.92414200  0.45369850  1
  C  1359  1  0.51905400  0.93519600  0.51551200  1
  C  1361  1  0.54644400  0.05663000  0.99096200  1
  C  1362  1  0.54831600  0.05480200  0.97525800  1
  C  1363  1  0.54740000  0.04007100  0.96932500  1
  C  1364  1  0.54930600  0.02781500  0.97923100  1
  C  1365  1  0.54671200  0.02965000  0.99489000  1
  C  1366  1  0.54327100  0.04436600  0.00096750  1
  C  1373  1  0.54571800  0.04769900  0.01622150  1
  C  1375  1  0.53609800  0.03666250  0.95439600  1
  C  1377  1  0.53792200  0.22992600  0.30567500  1
  C  1378  1  0.53978900  0.24563050  0.30384800  1
  C  1379  1  0.53886900  0.25156300  0.28911600  1
  C  1380  1  0.54078000  0.24165500  0.27686300  1
  C  1381  1  0.53819400  0.22599500  0.27869500  1
  C  1382  1  0.53475600  0.21991800  0.29340600  1
  C  1389  1  0.53718200  0.20466400  0.29674900  1
  C  1391  1  0.52757800  0.26649300  0.28569200  1
  C  1393  1  0.55472500  0.74185650  0.16416900  1
  C  1394  1  0.55721000  0.72616850  0.16602250  1
  C  1395  1  0.55761600  0.72029800  0.18076150  1
  C  1396  1  0.55827700  0.73023350  0.19300000  1
  C  1397  1  0.55497200  0.74588700  0.19114100  1
  C  1398  1  0.55088100  0.75191350  0.17639050  1
  C  1405  1  0.55176600  0.76713750  0.17282600  1
  C  1407  1  0.54493800  0.70550300  0.18427800  1
  C  1409  1  0.55522500  0.74197250  0.80569800  1
  C  1410  1  0.55669200  0.72626700  0.80396400  1
  C  1411  1  0.55595000  0.72028500  0.78928600  1
  C  1412  1  0.55770100  0.73007000  0.77693300  1
  C  1413  1  0.55554600  0.74575100  0.77867600  1
  C  1414  1  0.55239400  0.75189900  0.79335800  1
  C  1421  1  0.55502000  0.76715200  0.79659600  1
  C  1423  1  0.54187000  0.70547500  0.78620100  1
  C  1425  1  0.53805700  0.22986200  0.66423500  1
  C  1426  1  0.53998800  0.24556700  0.66597800  1
  C  1427  1  0.54081100  0.25151900  0.68067050  1
  C  1428  1  0.54099500  0.24170100  0.69301600  1
  C  1429  1  0.53836200  0.22604300  0.69126300  1
  C  1430  1  0.53531300  0.21992700  0.67656850  1
  C  1437  1  0.53805700  0.20467400  0.67333900  1
  C  1439  1  0.52837400  0.26636100  0.68401000  1
  C  1441  1  0.16870500  0.74144300  0.66459900  1
  C  1442  1  0.16609500  0.72576500  0.66644650  1
  C  1443  1  0.16516400  0.71989750  0.68117200  1
  C  1444  1  0.16501900  0.72983600  0.69342700  1
  C  1445  1  0.16845000  0.74548500  0.69157200  1
  C  1446  1  0.17252500  0.75149700  0.67682300  1
  C  1453  1  0.17166500  0.76671750  0.67323750  1
  C  1455  1  0.17808400  0.70508000  0.68467750  1
  C  1457  1  0.18550500  0.22948400  0.80611650  1
  C  1458  1  0.18364000  0.24519100  0.80428750  1
  C  1459  1  0.18458500  0.25112200  0.78955600  1
  C  1460  1  0.18264600  0.24121700  0.77730050  1
  C  1461  1  0.18524100  0.22555500  0.77913600  1
  C  1462  1  0.18868100  0.21947400  0.79385200  1
  C  1469  1  0.18623000  0.20422400  0.79718300  1
  C  1471  1  0.19585700  0.26603600  0.78614500  1
  C  1473  1  0.17683800  0.41476000  0.49145300  1
  C  1474  1  0.17491300  0.41650500  0.47574500  1
  C  1475  1  0.17413500  0.43119600  0.46979200  1
  C  1476  1  0.17391200  0.44354200  0.47960900  1
  C  1477  1  0.17653800  0.44178800  0.49527050  1
  C  1478  1  0.17959100  0.42709450  0.50139200  1
  C  1485  1  0.17684600  0.42386650  0.51664100  1
  C  1487  1  0.18656700  0.43452900  0.45496400  1
  C  1489  1  0.19388900  0.55619800  0.97935200  1
  C  1490  1  0.19196600  0.55445700  0.99505700  1
  C  1491  1  0.19120800  0.53976500  0.00101000  1
  C  1492  1  0.19096600  0.52742100  0.99119300  1
  C  1493  1  0.19359000  0.52917100  0.97553400  1
  C  1494  1  0.19664200  0.54386000  0.96941700  1
  C  1501  1  0.19389400  0.54709300  0.95416400  1
  C  1503  1  0.20363800  0.53641650  0.01585500  1
  C  1505  1  0.54644700  0.41520100  0.97897100  1
  C  1506  1  0.54831600  0.41702800  0.99467800  1
  C  1507  1  0.54739600  0.43176000  0.00060900  1
  C  1508  1  0.54930600  0.44401350  0.99070400  1
  C  1509  1  0.54671500  0.44218200  0.97504100  1
  C  1510  1  0.54327400  0.42747000  0.96896100  1
  C  1517  1  0.54570200  0.42413050  0.95371100  1
  C  1519  1  0.53610700  0.43518400  0.01552300  1
  C  1521  1  0.52939400  0.55664200  0.49094900  1
  C  1522  1  0.53126200  0.55481300  0.47524500  1
  C  1523  1  0.53034200  0.54008300  0.46931200  1
  C  1524  1  0.53225400  0.52782600  0.47921900  1
  C  1525  1  0.52966000  0.52966200  0.49487900  1
  C  1526  1  0.52621900  0.54437700  0.50095500  1
  C  1533  1  0.52866600  0.54771050  0.51620850  1
  C  1535  1  0.51905200  0.53667300  0.45438300  1
  C  1537  1  0.87802400  0.97974900  0.06196700  1
  C  1538  1  0.85358000  0.99466000  0.06045200  1
  C  1539  1  0.84561700  0.00105000  0.04606700  1
  C  1540  1  0.86001200  0.99152500  0.03369900  1
  C  1541  1  0.88459200  0.97646500  0.03524300  1
  C  1542  1  0.89434600  0.97009600  0.04983400  1
  C  1549  1  0.93056100  0.95666400  0.05416000  1
  C  1551  1  0.82125200  0.01580400  0.04347650  1
  C  1553  1  0.86096800  0.99164000  0.40840600  1
  C  1554  1  0.83652000  0.97676200  0.40988700  1
  C  1555  1  0.82853600  0.97037900  0.42425900  1
  C  1556  1  0.84294900  0.97988500  0.43664650  1
  C  1557  1  0.86753700  0.99491300  0.43513750  1
  C  1558  1  0.87729300  0.00127200  0.42056050  1
  C  1565  1  0.91351400  0.01465500  0.41628400  1
  C  1567  1  0.80413700  0.95565500  0.42681100  1
  C  1569  1  0.86949500  0.15892100  0.22924900  1
  C  1570  1  0.84503800  0.16043400  0.24412800  1
  C  1571  1  0.83704300  0.17481600  0.25051300  1
  C  1572  1  0.85146700  0.18718450  0.24100600  1
  C  1573  1  0.87605800  0.18564350  0.22597800  1
  C  1574  1  0.88581600  0.17105300  0.21961800  1
  C  1581  1  0.92203700  0.16672900  0.20623400  1
  C  1583  1  0.81262600  0.17739700  0.26523950  1
  C  1585  1  0.85257600  0.81270400  0.24192000  1
  C  1586  1  0.83069800  0.81126300  0.22690300  1
  C  1587  1  0.82745800  0.79683600  0.22052000  1
  C  1588  1  0.83674100  0.78434100  0.23008200  1
  C  1589  1  0.85922100  0.78580600  0.24519500  1
  C  1590  1  0.86907200  0.80044600  0.25142400  1
  C  1597  1  0.90551400  0.80470400  0.26470050  1
  C  1599  1  0.81563800  0.79429900  0.20534450  1
  C  1601  1  0.86246900  0.99162300  0.90837950  1
  C  1602  1  0.88698400  0.97672700  0.90990800  1
  C  1603  1  0.89508700  0.97037100  0.92429800  1
  C  1604  1  0.88050500  0.97988000  0.93667000  1
  C  1605  1  0.85580200  0.99492900  0.93511200  1
  C  1606  1  0.84605800  0.00126700  0.92050400  1
  C  1613  1  0.81020300  0.01472000  0.91613900  1
  C  1615  1  0.91934600  0.95561600  0.92684700  1
  C  1617  1  0.84541700  0.97979200  0.56197100  1
  C  1618  1  0.86994200  0.99465400  0.56047800  1
  C  1619  1  0.87806600  0.00100400  0.54610100  1
  C  1620  1  0.86346600  0.99151300  0.53370900  1
  C  1621  1  0.83875400  0.97649600  0.53523100  1
  C  1622  1  0.82900600  0.97016900  0.54982400  1
  C  1629  1  0.79314500  0.95676400  0.55414100  1
  C  1631  1  0.90236200  0.01572950  0.54359200  1
  C  1633  1  0.87085100  0.81269100  0.74192600  1
  C  1634  1  0.89274000  0.81122300  0.72693900  1
  C  1635  1  0.89601000  0.79679650  0.72055050  1
  C  1636  1  0.88669000  0.78431200  0.73010150  1
  C  1637  1  0.86420900  0.78580500  0.74518800  1
  C  1638  1  0.85435800  0.80045600  0.75140800  1
  C  1645  1  0.81792000  0.80476300  0.76463700  1
  C  1647  1  0.90793400  0.79425750  0.70538250  1
  C  1649  1  0.85392200  0.15893200  0.72923350  1
  C  1650  1  0.87836200  0.16041350  0.74414500  1
  C  1651  1  0.88631600  0.17478900  0.75053200  1
  C  1652  1  0.87193100  0.18717600  0.74100800  1
  C  1653  1  0.84735100  0.18566500  0.72594900  1
  C  1654  1  0.83760000  0.17108600  0.71958100  1
  C  1661  1  0.80137700  0.16681000  0.70614900  1
  C  1663  1  0.91065400  0.17735000  0.76528400  1
  C  1665  1  0.86097100  0.47976000  0.56195500  1
  C  1666  1  0.83652800  0.49467150  0.56044100  1
  C  1667  1  0.82856400  0.50106200  0.54605500  1
  C  1668  1  0.84296000  0.49153750  0.53368700  1
  C  1669  1  0.86754000  0.47647750  0.53523100  1
  C  1670  1  0.87729300  0.47010900  0.54982100  1
  C  1677  1  0.91350800  0.45667600  0.55414600  1
  C  1679  1  0.80420200  0.51581600  0.54346500  1
  C  1681  1  0.87802400  0.49162800  0.90841900  1
  C  1682  1  0.85357000  0.47674900  0.90989800  1
  C  1683  1  0.84558500  0.47036600  0.92427000  1
  C  1684  1  0.85999900  0.47987250  0.93665900  1
  C  1685  1  0.88458600  0.49489950  0.93515100  1
  C  1686  1  0.89434600  0.50125900  0.92057400  1
  C  1693  1  0.93056900  0.51464200  0.91629900  1
  C  1695  1  0.82118900  0.45564250  0.92682250  1
  C  1697  1  0.85254800  0.65868100  0.72845850  1
  C  1698  1  0.83053000  0.66016000  0.74342500  1
  C  1699  1  0.82705000  0.67458600  0.74978400  1
  C  1700  1  0.83664900  0.68708300  0.74025500  1
  C  1701  1  0.85929400  0.68557800  0.72517900  1
  C  1702  1  0.86914500  0.67091000  0.71898800  1
  C  1709  1  0.90524800  0.66656250  0.70574200  1
  C  1711  1  0.81532800  0.67702900  0.76495900  1
  C  1713  1  0.86948200  0.31249700  0.74111000  1
  C  1714  1  0.84497000  0.31100300  0.72621500  1
  C  1715  1  0.83687800  0.29662250  0.71986100  1
  C  1716  1  0.85144900  0.28422950  0.72936850  1
  C  1717  1  0.87615000  0.28575400  0.74441700  1
  C  1718  1  0.88589300  0.30034900  0.75075400  1
  C  1725  1  0.92175100  0.30466400  0.76420700  1
  C  1727  1  0.81263700  0.29410200  0.70510750  1
  C  1729  1  0.84541400  0.49163400  0.40836850  1
  C  1730  1  0.86993200  0.47673800  0.40989600  1
  C  1731  1  0.87803400  0.47038200  0.42428600  1
  C  1732  1  0.86345200  0.47989100  0.43665900  1
  C  1733  1  0.83874900  0.49494100  0.43510200  1
  C  1734  1  0.82900400  0.50127850  0.42049400  1
  C  1741  1  0.79314500  0.51473100  0.41612750  1
  C  1743  1  0.90229400  0.45562800  0.42683550  1
  C  1745  1  0.86246900  0.47977950  0.06198300  1
  C  1746  1  0.88699400  0.49464300  0.06049000  1
  C  1747  1  0.89511600  0.50099150  0.04611300  1
  C  1748  1  0.88051800  0.49150100  0.03372000  1
  C  1749  1  0.85580400  0.47648400  0.03524200  1
  C  1750  1  0.84605600  0.47015700  0.04983550  1
  C  1757  1  0.81019200  0.45675250  0.05415300  1
  C  1759  1  0.91941400  0.51571700  0.04360300  1
  C  1761  1  0.85394300  0.31250700  0.24109400  1
  C  1762  1  0.87847100  0.31098150  0.22623200  1
  C  1763  1  0.88659500  0.29659400  0.21988100  1
  C  1764  1  0.87200000  0.28422200  0.22937150  1
  C  1765  1  0.84728300  0.28577600  0.24438850  1
  C  1766  1  0.83753200  0.30038200  0.25071700  1
  C  1773  1  0.80167100  0.30474800  0.26412200  1
  C  1775  1  0.91088500  0.29404900  0.20515850  1
  C  1777  1  0.87087200  0.65866800  0.22846400  1
  C  1778  1  0.89287900  0.66011800  0.24346000  1
  C  1779  1  0.89632700  0.67454500  0.24981200  1
  C  1780  1  0.88676300  0.68705400  0.24027300  1
  C  1781  1  0.86411800  0.68557550  0.22516950  1
  C  1782  1  0.85426600  0.67091900  0.21896950  1
  C  1789  1  0.81815800  0.66661750  0.20567700  1
  C  1791  1  0.90794200  0.67698850  0.26499400  1
  H  7  1  0.18096200  0.91399400  0.04725700  1
  H  16  1  0.03345600  0.91391200  0.08638550  1
  H  17  1  0.01683900  0.95718800  0.02715550  1
  H  18  1  0.17371300  0.86526600  0.10402300  1
  H  19  1  0.98340900  0.92357700  0.06689400  1
  H  20  1  0.18153000  0.89187300  0.05925850  1
  H  31  1  0.16392000  0.05699100  0.42353300  1
  H  40  1  0.01647300  0.05729400  0.38421100  1
  H  41  1  0.99979700  0.01401450  0.44340400  1
  H  42  1  0.15660900  0.10575450  0.36674600  1
  H  43  1  0.96639800  0.04767900  0.40361900  1
  H  44  1  0.16472000  0.07911000  0.41151100  1
  H  55  1  0.17243800  0.17363200  0.16390200  1
  H  64  1  0.02495500  0.13450600  0.16360900  1
  H  65  1  0.00831500  0.19373000  0.20687500  1
  H  66  1  0.16518900  0.11686150  0.11515800  1
  H  67  1  0.97490000  0.15399100  0.17321400  1
  H  68  1  0.17311400  0.16162050  0.14178400  1
  H  79  1  0.15570500  0.79736300  0.30689900  1
  H  88  1  0.00803200  0.83668800  0.30696900  1
  H  89  1  0.99200000  0.77766700  0.26362250  1
  H  90  1  0.14808700  0.85414400  0.35563000  1
  H  91  1  0.95800000  0.81723000  0.29739900  1
  H  92  1  0.15617700  0.80937600  0.32902100  1
  H  103  1  0.54410700  0.91423200  0.42325050  1
  H  112  1  0.70173800  0.91189850  0.38448550  1
  H  113  1  0.69075400  0.95906300  0.44205700  1
  H  114  1  0.58474400  0.86397450  0.36906700  1
  H  115  1  0.73637600  0.92536200  0.40238450  1
  H  116  1  0.53784400  0.89360200  0.41034900  1
  H  127  1  0.56132800  0.05757700  0.04671950  1
  H  136  1  0.71887400  0.05957900  0.08581150  1
  H  137  1  0.70787200  0.01254700  0.02806450  1
  H  138  1  0.60349400  0.10800950  0.10054900  1
  H  139  1  0.75361800  0.04616500  0.06781850  1
  H  140  1  0.55606300  0.07813850  0.05965850  1
  H  151  1  0.55270200  0.17417800  0.30670700  1
  H  160  1  0.70987200  0.13476150  0.30899050  1
  H  161  1  0.69924600  0.19279200  0.26183750  1
  H  162  1  0.59142200  0.12015150  0.35717100  1
  H  163  1  0.74464500  0.15298600  0.29557400  1
  H  164  1  0.54690700  0.16117050  0.32719600  1
  H  175  1  0.56591900  0.79796500  0.16302200  1
  H  184  1  0.72703000  0.83664900  0.16120000  1
  H  185  1  0.70680000  0.77769700  0.20766200  1
  H  186  1  0.61336300  0.85154350  0.11293600  1
  H  187  1  0.76021500  0.81818650  0.17418750  1
  H  188  1  0.56460300  0.81053550  0.14243300  1
  H  199  1  0.56185900  0.05804400  0.92308400  1
  H  208  1  0.70719400  0.05753900  0.88372000  1
  H  209  1  0.72403400  0.01490200  0.94340950  1
  H  210  1  0.56656100  0.10619400  0.86625600  1
  H  211  1  0.75801000  0.04759500  0.90289400  1
  H  212  1  0.55983500  0.07971800  0.91097700  1
  H  223  1  0.54480100  0.91376800  0.54685200  1
  H  232  1  0.69007000  0.91405850  0.58641000  1
  H  233  1  0.70699200  0.95669500  0.52675500  1
  H  234  1  0.54955300  0.86559050  0.60369850  1
  H  235  1  0.74091800  0.92394800  0.56731900  1
  H  236  1  0.54255100  0.89210000  0.55897750  1
  H  247  1  0.56772200  0.79776600  0.80649300  1
  H  256  1  0.71541500  0.83689000  0.80676250  1
  H  257  1  0.73142200  0.77784300  0.76344300  1
  H  258  1  0.57526600  0.85453400  0.85522100  1
  H  259  1  0.76543400  0.81736100  0.79726400  1
  H  260  1  0.56728600  0.80977700  0.82861050  1
  H  271  1  0.55097800  0.17405800  0.66347500  1
  H  280  1  0.69844000  0.13473200  0.66338000  1
  H  281  1  0.71510800  0.19392900  0.70667200  1
  H  282  1  0.55828700  0.11727500  0.61472400  1
  H  283  1  0.74851400  0.15414550  0.67305600  1
  H  284  1  0.55027000  0.16204450  0.64135200  1
  H  295  1  0.15998600  0.05753100  0.54728600  1
  H  304  1  0.00464800  0.05956050  0.58611550  1
  H  305  1  0.01319300  0.01315500  0.52817650  1
  H  306  1  0.12072900  0.10754050  0.60145250  1
  H  307  1  0.96955000  0.04585100  0.56851450  1
  H  308  1  0.16806200  0.07800400  0.56013000  1
  H  319  1  0.17685700  0.91348000  0.92346150  1
  H  328  1  0.02077000  0.91161400  0.88435950  1
  H  329  1  0.03016400  0.95804200  0.94242500  1
  H  330  1  0.13672500  0.86333800  0.86972500  1
  H  331  1  0.98637300  0.92543350  0.90201200  1
  H  332  1  0.18384100  0.89308100  0.91062750  1
  H  343  1  0.15760100  0.79754050  0.66328950  1
  H  352  1  0.99751400  0.83658800  0.66132700  1
  H  353  1  0.01678500  0.77752900  0.70783950  1
  H  354  1  0.11450600  0.85141350  0.61310700  1
  H  355  1  0.96371700  0.81811550  0.67422500  1
  H  356  1  0.16029100  0.81033700  0.64271950  1
  H  367  1  0.17065400  0.17376100  0.80700250  1
  H  376  1  0.01260100  0.13496550  0.80907000  1
  H  377  1  0.02403100  0.19261700  0.76202150  1
  H  378  1  0.12627700  0.11984250  0.85727350  1
  H  379  1  0.97816500  0.15294950  0.79561900  1
  H  380  1  0.17612700  0.16096150  0.82760450  1
  H  391  1  0.16392200  0.41401200  0.54723950  1
  H  400  1  0.01577300  0.41379800  0.58631700  1
  H  401  1  0.99980800  0.45720800  0.52714000  1
  H  402  1  0.15682500  0.36538000  0.60409500  1
  H  403  1  0.96634300  0.42360050  0.56686450  1
  H  404  1  0.16474100  0.39191950  0.55927500  1
  H  415  1  0.18098500  0.55697350  0.92355100  1
  H  424  1  0.03289400  0.55740800  0.88427800  1
  H  425  1  0.01684400  0.51399700  0.94342200  1
  H  426  1  0.17383700  0.60563800  0.86667500  1
  H  427  1  0.98343500  0.54765700  0.90364850  1
  H  428  1  0.18202900  0.57906250  0.91149600  1
  H  439  1  0.15346300  0.67343200  0.66342400  1
  H  448  1  0.00716500  0.63430550  0.66341000  1
  H  449  1  0.99168300  0.69377400  0.70617650  1
  H  450  1  0.14850300  0.61668850  0.61517600  1
  H  451  1  0.95701200  0.65346750  0.67337000  1
  H  452  1  0.15548900  0.66146750  0.64160250  1
  H  463  1  0.17009900  0.29737000  0.80753600  1
  H  472  1  0.02416400  0.33688250  0.80717050  1
  H  473  1  0.00791600  0.27727500  0.76438500  1
  H  474  1  0.16548100  0.35430600  0.85560450  1
  H  475  1  0.97395700  0.31782600  0.79707700  1
  H  476  1  0.17253000  0.30952400  0.82917700  1
  H  487  1  0.56115800  0.41424650  0.92325900  1
  H  496  1  0.71879600  0.41199300  0.88401200  1
  H  497  1  0.70781700  0.45905200  0.94207000  1
  H  498  1  0.60244300  0.36384400  0.86904250  1
  H  499  1  0.75329200  0.42533250  0.90234300  1
  H  500  1  0.55485700  0.39370000  0.91038000  1
  H  511  1  0.54424900  0.55756450  0.54668850  1
  H  520  1  0.70210300  0.55963900  0.58587600  1
  H  521  1  0.69081700  0.51255650  0.52805150  1
  H  522  1  0.58783200  0.60797750  0.60070350  1
  H  523  1  0.73656600  0.54618150  0.56780450  1
  H  524  1  0.53813800  0.57811500  0.55958150  1
  H  535  1  0.56805400  0.67371150  0.80749400  1
  H  544  1  0.72658800  0.63465300  0.80925150  1
  H  545  1  0.71451100  0.69444300  0.76344900  1
  H  546  1  0.60916300  0.61987750  0.85733200  1
  H  547  1  0.76014100  0.65269950  0.79592000  1
  H  548  1  0.56384800  0.66091950  0.82784050  1
  H  559  1  0.55506700  0.29784200  0.66302750  1
  H  568  1  0.71128100  0.33667650  0.66115950  1
  H  569  1  0.70181400  0.27867000  0.70753700  1
  H  570  1  0.59734100  0.35165450  0.61300500  1
  H  571  1  0.74569900  0.31900600  0.67495100  1
  H  572  1  0.54801600  0.31057300  0.64258500  1
  H  583  1  0.54480900  0.55805600  0.42307300  1
  H  592  1  0.69013900  0.55754950  0.38370750  1
  H  593  1  0.70699200  0.51491500  0.44339750  1
  H  594  1  0.54950600  0.60620600  0.36624500  1
  H  595  1  0.74095700  0.54760800  0.40288200  1
  H  596  1  0.54278800  0.57972950  0.41096600  1
  H  607  1  0.56185100  0.41375600  0.04686400  1
  H  616  1  0.70712000  0.41404700  0.08642100  1
  H  617  1  0.72405000  0.45668200  0.02676600  1
  H  618  1  0.56660600  0.36557800  0.10371000  1
  H  619  1  0.75797000  0.42393600  0.06733000  1
  H  620  1  0.55960200  0.39208700  0.05898900  1
  H  631  1  0.55333300  0.29780050  0.30711300  1
  H  640  1  0.69863600  0.33716350  0.30681200  1
  H  641  1  0.71552600  0.27747800  0.26419200  1
  H  642  1  0.55802200  0.35463300  0.35527400  1
  H  643  1  0.74946800  0.31799500  0.29693300  1
  H  644  1  0.55120600  0.30991700  0.32878100  1
  H  655  1  0.56988100  0.67386500  0.16299000  1
  H  664  1  0.71557100  0.63444850  0.16333300  1
  H  665  1  0.73181600  0.69391850  0.20601500  1
  H  666  1  0.57513000  0.61716300  0.11466400  1
  H  667  1  0.76634200  0.65357450  0.17320350  1
  H  668  1  0.56815700  0.66189350  0.14115350  1
  H  679  1  0.17699800  0.55750850  0.04730650  1
  H  688  1  0.02109900  0.55969000  0.08627000  1
  H  689  1  0.03023500  0.51314400  0.02818700  1
  H  690  1  0.13846200  0.60755650  0.10137050  1
  H  691  1  0.98668300  0.54583950  0.06856600  1
  H  692  1  0.18478700  0.57790950  0.06012050  1
  H  703  1  0.15979300  0.41351350  0.42344700  1
  H  712  1  0.00373600  0.41159900  0.38404550  1
  H  713  1  0.01313100  0.45805500  0.44241200  1
  H  714  1  0.11967300  0.36328950  0.36971200  1
  H  715  1  0.96942800  0.42542450  0.40195500  1
  H  716  1  0.16670300  0.39318450  0.41064050  1
  H  727  1  0.16839500  0.29741950  0.16329750  1
  H  736  1  0.01281900  0.33663300  0.16118450  1
  H  737  1  0.02178600  0.27848450  0.20772450  1
  H  738  1  0.13171600  0.35136900  0.11316550  1
  H  739  1  0.97828600  0.31889750  0.17504250  1
  H  740  1  0.17592200  0.31035850  0.14295300  1
  H  751  1  0.15531300  0.67329700  0.30772400  1
  H  760  1  0.99610100  0.63454200  0.30928550  1
  H  761  1  0.00874400  0.69428450  0.26361650  1
  H  762  1  0.10875800  0.61961750  0.35748800  1
  H  763  1  0.96275200  0.65264000  0.29596700  1
  H  764  1  0.15900500  0.66074600  0.32815500  1
  H  775  1  0.77308100  0.89463950  0.12809950  1
  H  777  1  0.97455700  0.86208300  0.12866350  1
  H  779  1  0.91446800  0.84438200  0.14045750  1
  H  780  1  0.83347300  0.91216300  0.11561300  1
  H  782  1  0.04382700  0.87884450  0.11925850  1
  H  784  1  0.70713800  0.87898050  0.14178400  1
  H  791  1  0.75579100  0.07701400  0.34206850  1
  H  793  1  0.95765600  0.10915950  0.34181900  1
  H  795  1  0.89750000  0.12698450  0.32996200  1
  H  796  1  0.81623000  0.05932700  0.35466650  1
  H  798  1  0.02675100  0.09231600  0.35134300  1
  H  800  1  0.69412300  0.09233200  0.32716900  1
  H  807  1  0.76417600  0.09276150  0.14402350  1
  H  809  1  0.96594600  0.09222450  0.11173550  1
  H  811  1  0.90597300  0.08044200  0.09395950  1
  H  812  1  0.82496000  0.10528500  0.16162350  1
  H  814  1  0.03524000  0.10163900  0.12855800  1
  H  816  1  0.69710900  0.07937350  0.12766950  1
  H  823  1  0.74734100  0.87877850  0.32621500  1
  H  825  1  0.94891500  0.87904400  0.35877500  1
  H  827  1  0.88892800  0.89092050  0.37646800  1
  H  828  1  0.80789500  0.86618700  0.30869500  1
  H  830  1  0.01822200  0.86954200  0.34203100  1
  H  832  1  0.67982800  0.89191900  0.34237650  1
  H  839  1  0.96754900  0.07672500  0.84226000  1
  H  841  1  0.76613100  0.10933850  0.84169600  1
  H  843  1  0.82607000  0.12700800  0.82990600  1
  H  844  1  0.90694300  0.05921850  0.85476800  1
  H  846  1  0.69670700  0.09262100  0.85103100  1
  H  848  1  0.03512200  0.09288050  0.82922200  1
  H  855  1  0.95056000  0.89444250  0.62825300  1
  H  857  1  0.74891600  0.86221350  0.62855000  1
  H  859  1  0.80899900  0.84442250  0.64039950  1
  H  860  1  0.89003500  0.91210100  0.61567100  1
  H  862  1  0.67964100  0.87902250  0.61909700  1
  H  864  1  0.01348200  0.87892400  0.64274400  1
  H  871  1  0.97594900  0.87858100  0.82632200  1
  H  873  1  0.77451600  0.87916300  0.85865750  1
  H  875  1  0.83457200  0.89095750  0.87642500  1
  H  876  1  0.91543200  0.86609650  0.80874700  1
  H  878  1  0.70517600  0.86975800  0.84181800  1
  H  880  1  0.04320500  0.89177050  0.84240350  1
  H  887  1  0.95901800  0.09267700  0.64417000  1
  H  889  1  0.75746900  0.09235900  0.61158750  1
  H  891  1  0.81751200  0.08050050  0.59389700  1
  H  892  1  0.89838300  0.10524150  0.66168200  1
  H  894  1  0.68813400  0.10187250  0.62832000  1
  H  896  1  0.02651100  0.07951100  0.62802650  1
  H  903  1  0.75595400  0.39465400  0.62794900  1
  H  905  1  0.95778300  0.36213800  0.62861300  1
  H  907  1  0.89749700  0.34442200  0.64040250  1
  H  908  1  0.81652100  0.41218150  0.61552600  1
  H  910  1  0.02801500  0.37930100  0.61988200  1
  H  912  1  0.68866200  0.37863300  0.64113050  1
  H  919  1  0.77301200  0.57695700  0.84229500  1
  H  921  1  0.97493500  0.60912100  0.84187200  1
  H  923  1  0.91454700  0.62695000  0.83001900  1
  H  924  1  0.83343200  0.55930300  0.85476100  1
  H  926  1  0.04505900  0.59185800  0.85071700  1
  H  928  1  0.70836900  0.59240950  0.82804850  1
  H  935  1  0.74733300  0.59289550  0.64388750  1
  H  937  1  0.94920900  0.59223900  0.61170200  1
  H  939  1  0.88892800  0.58046550  0.59389500  1
  H  940  1  0.80787600  0.60533050  0.66154550  1
  H  942  1  0.01945000  0.60090200  0.62893850  1
  H  944  1  0.68247700  0.57880950  0.62825150  1
  H  951  1  0.76400300  0.37877100  0.82644550  1
  H  953  1  0.96630800  0.37905400  0.85878100  1
  H  955  1  0.90601100  0.39088500  0.87653100  1
  H  956  1  0.82478400  0.36615900  0.80879200  1
  H  958  1  0.03647900  0.37027450  0.84164500  1
  H  960  1  0.70598700  0.39516800  0.84157800  1
  H  967  1  0.95027800  0.57672750  0.34228750  1
  H  969  1  0.74901600  0.60935600  0.34167900  1
  H  971  1  0.80909100  0.62703100  0.32989200  1
  H  972  1  0.88984800  0.55922600  0.35476100  1
  H  974  1  0.67960200  0.59262800  0.35101300  1
  H  976  1  0.01624600  0.59232550  0.32859400  1
  H  983  1  0.96746500  0.39449550  0.12821500  1
  H  985  1  0.76604700  0.36219200  0.12855200  1
  H  987  1  0.82610600  0.34442000  0.14040850  1
  H  988  1  0.90701200  0.41210700  0.11566800  1
  H  990  1  0.69668400  0.37900700  0.11911000  1
  H  992  1  0.03297200  0.37884400  0.14214300  1
  H  999  1  0.95881000  0.37860400  0.32639650  1
  H  1001  1  0.75746100  0.37921700  0.35868750  1
  H  1003  1  0.81758100  0.39098650  0.37646600  1
  H  1004  1  0.89846500  0.36613550  0.30877900  1
  H  1006  1  0.68812100  0.36986350  0.34186350  1
  H  1008  1  0.02268000  0.39305800  0.34163650  1
  H  1015  1  0.97593400  0.59265200  0.14413600  1
  H  1017  1  0.77459100  0.59232950  0.11154100  1
  H  1019  1  0.83463300  0.58046400  0.09385750  1
  H  1020  1  0.91550300  0.60521000  0.16165450  1
  H  1022  1  0.70520200  0.60176300  0.12826550  1
  H  1024  1  0.04171800  0.57880950  0.12854850  1
  H  1031  1  0.40477800  0.87448850  0.09000850  1
  H  1033  1  0.33892900  0.82583300  0.10737950  1
  H  1035  1  0.22999900  0.82918900  0.09855950  1
  H  1036  1  0.51013500  0.87229050  0.10028100  1
  H  1038  1  0.44447400  0.81981900  0.11553450  1
  H  1040  1  0.29687100  0.88082800  0.08314450  1
  H  1047  1  0.38891400  0.09632250  0.38094150  1
  H  1049  1  0.32253700  0.14496950  0.36348950  1
  H  1051  1  0.21377700  0.14172600  0.37225000  1
  H  1052  1  0.49445600  0.09842750  0.37095600  1
  H  1054  1  0.42676700  0.15091100  0.35529700  1
  H  1056  1  0.28074000  0.09005400  0.38762400  1
  H  1063  1  0.39668400  0.13070350  0.12468400  1
  H  1065  1  0.33024900  0.11352750  0.07594650  1
  H  1067  1  0.22157400  0.12234500  0.07919850  1
  H  1068  1  0.50262200  0.12100350  0.12250150  1
  H  1070  1  0.43441500  0.10521750  0.06994450  1
  H  1072  1  0.28880600  0.13768350  0.13088250  1
  H  1079  1  0.38014300  0.83984000  0.34655600  1
  H  1081  1  0.31428000  0.85743050  0.39516000  1
  H  1083  1  0.20520200  0.84865800  0.39171400  1
  H  1084  1  0.48521200  0.85031700  0.34876000  1
  H  1086  1  0.42014100  0.86635950  0.40120700  1
  H  1088  1  0.27191300  0.83322500  0.34010800  1
  H  1095  1  0.33554000  0.09696300  0.88031900  1
  H  1097  1  0.40144700  0.14564750  0.86297550  1
  H  1099  1  0.51045300  0.14220500  0.87180900  1
  H  1100  1  0.23030200  0.09915400  0.87007100  1
  H  1102  1  0.29556400  0.15176900  0.85404650  1
  H  1104  1  0.44350500  0.09059700  0.88721800  1
  H  1111  1  0.31748500  0.87509600  0.58940600  1
  H  1113  1  0.38399800  0.82643600  0.60684450  1
  H  1115  1  0.49269500  0.82968800  0.59809300  1
  H  1116  1  0.21196800  0.87298800  0.59939800  1
  H  1118  1  0.27973900  0.82044100  0.61507050  1
  H  1120  1  0.42567800  0.88135250  0.58271250  1
  H  1127  1  0.34379100  0.84068650  0.84569850  1
  H  1129  1  0.41032600  0.85786100  0.89444200  1
  H  1131  1  0.51895500  0.84904050  0.89117350  1
  H  1132  1  0.23792400  0.85038500  0.84787200  1
  H  1134  1  0.30599800  0.86624300  0.90051450  1
  H  1136  1  0.45167200  0.83370250  0.83949150  1
  H  1143  1  0.32623000  0.13156350  0.62377300  1
  H  1145  1  0.39212100  0.11397550  0.57515550  1
  H  1147  1  0.50122700  0.12275750  0.57863700  1
  H  1148  1  0.22123900  0.12107900  0.62157450  1
  H  1150  1  0.28586800  0.10491000  0.56913300  1
  H  1152  1  0.43444100  0.13818450  0.63024050  1
  H  1159  1  0.38783800  0.37444300  0.59003800  1
  H  1161  1  0.32192500  0.32575700  0.60737900  1
  H  1163  1  0.21292400  0.32920100  0.59854700  1
  H  1164  1  0.49305400  0.37225150  0.60029200  1
  H  1166  1  0.42789900  0.31963900  0.61630600  1
  H  1168  1  0.27992900  0.38082450  0.58313400  1
  H  1175  1  0.40588900  0.59629750  0.88096450  1
  H  1177  1  0.33936300  0.64495800  0.86352750  1
  H  1179  1  0.23067700  0.64170700  0.87227550  1
  H  1180  1  0.51138600  0.59840500  0.87096550  1
  H  1182  1  0.44366800  0.65093850  0.85533700  1
  H  1184  1  0.29775000  0.59002850  0.88766200  1
  H  1191  1  0.37979700  0.63065450  0.62460100  1
  H  1193  1  0.31310100  0.61353550  0.57582300  1
  H  1195  1  0.20443600  0.62235500  0.57919000  1
  H  1196  1  0.48551600  0.62097150  0.62242850  1
  H  1198  1  0.41764000  0.60450100  0.56963450  1
  H  1200  1  0.27186300  0.63770200  0.63084350  1
  H  1207  1  0.39725500  0.33986000  0.84659000  1
  H  1209  1  0.33137700  0.35743650  0.89520550  1
  H  1211  1  0.22227400  0.34865700  0.89172750  1
  H  1212  1  0.50226900  0.35033850  0.84879500  1
  H  1214  1  0.43725300  0.36658350  0.90122800  1
  H  1216  1  0.28900200  0.33320100  0.84013600  1
  H  1223  1  0.31858100  0.59696200  0.38031900  1
  H  1225  1  0.38458900  0.64565800  0.36298400  1
  H  1227  1  0.49354200  0.64221350  0.37180750  1
  H  1228  1  0.21338200  0.59915400  0.37006150  1
  H  1230  1  0.27865800  0.65178200  0.35404900  1
  H  1232  1  0.42650600  0.59059900  0.38721700  1
  H  1239  1  0.33452600  0.37508100  0.08941700  1
  H  1241  1  0.40092000  0.32642650  0.10687100  1
  H  1243  1  0.50968400  0.32967300  0.09811100  1
  H  1244  1  0.22899700  0.37297800  0.09941000  1
  H  1246  1  0.29658000  0.32048350  0.11502900  1
  H  1248  1  0.44271800  0.38133600  0.08272900  1
  H  1255  1  0.32671300  0.34070250  0.34569350  1
  H  1257  1  0.39324400  0.35787900  0.39444050  1
  H  1259  1  0.50188800  0.34905500  0.39116500  1
  H  1260  1  0.22086500  0.35039700  0.34786150  1
  H  1262  1  0.28899700  0.36633050  0.40046000  1
  H  1264  1  0.43463300  0.33371000  0.33949400  1
  H  1271  1  0.34329400  0.63156500  0.12380700  1
  H  1273  1  0.40916800  0.61397200  0.07519800  1
  H  1275  1  0.51824300  0.62274200  0.07864600  1
  H  1276  1  0.23825500  0.62107700  0.12160850  1
  H  1278  1  0.30332000  0.60503000  0.06916150  1
  H  1280  1  0.45154300  0.63818500  0.13024300  1
  H  1287  1  0.19105100  0.95416800  0.97533600  1
  H  1289  1  0.19398800  0.90408600  0.99566250  1
  H  1291  1  0.19203900  0.89481100  0.97176500  1
  H  1292  1  0.19226900  0.96361300  0.99897500  1
  H  1294  1  0.19917200  0.91329400  0.02000100  1
  H  1296  1  0.24381500  0.94119000  0.95272200  1
  H  1303  1  0.17400300  0.01679500  0.49546600  1
  H  1305  1  0.17693500  0.06687200  0.47514300  1
  H  1307  1  0.17498600  0.07615100  0.49903800  1
  H  1308  1  0.17521700  0.00734800  0.47182800  1
  H  1310  1  0.18212400  0.05765750  0.45081250  1
  H  1312  1  0.22672300  0.02968800  0.51816100  1
  H  1319  1  0.18251300  0.24555300  0.20409100  1
  H  1321  1  0.18547300  0.22522500  0.15401400  1
  H  1323  1  0.18351300  0.24912350  0.14473600  1
  H  1324  1  0.18374300  0.22191400  0.21353900  1
  H  1326  1  0.19065000  0.20088800  0.16323000  1
  H  1328  1  0.23534000  0.26813500  0.19115550  1
  H  1335  1  0.16608700  0.72534100  0.26672800  1
  H  1337  1  0.16814800  0.74575700  0.31677800  1
  H  1339  1  0.16643300  0.72189400  0.32608000  1
  H  1340  1  0.16662800  0.74902350  0.25726500  1
  H  1342  1  0.17363000  0.77006800  0.30757600  1
  H  1344  1  0.21949900  0.70246600  0.27946200  1
  H  1351  1  0.53244300  0.95468200  0.49491550  1
  H  1353  1  0.52938600  0.90452850  0.47481550  1
  H  1355  1  0.53144400  0.89532100  0.49865100  1
  H  1356  1  0.53112300  0.96402800  0.47127850  1
  H  1358  1  0.52387400  0.91355000  0.45044100  1
  H  1360  1  0.48419800  0.94299250  0.51833300  1
  H  1367  1  0.54949500  0.01715700  0.97500700  1
  H  1369  1  0.54643800  0.06731450  0.99510600  1
  H  1371  1  0.54849400  0.07652000  0.97127200  1
  H  1372  1  0.54817600  0.00781300  0.99864200  1
  H  1374  1  0.54094600  0.05829700  0.01947650  1
  H  1376  1  0.50121700  0.02891900  0.95152800  1
  H  1383  1  0.54096900  0.24587800  0.26620600  1
  H  1385  1  0.53791200  0.22578300  0.31635900  1
  H  1387  1  0.53996800  0.24961500  0.32556700  1
  H  1388  1  0.53965000  0.22224300  0.25686100  1
  H  1390  1  0.53238800  0.20141700  0.30734200  1
  H  1392  1  0.49271700  0.26936150  0.27789600  1
  H  1399  1  0.55848200  0.72602950  0.20366950  1
  H  1401  1  0.55428400  0.74593750  0.15346000  1
  H  1403  1  0.55705200  0.72212700  0.14431900  1
  H  1404  1  0.55669100  0.74962850  0.21299750  1
  H  1406  1  0.55026500  0.77013550  0.16210450  1
  H  1408  1  0.50619000  0.70317850  0.19131100  1
  H  1415  1  0.55733800  0.72575400  0.76631400  1
  H  1417  1  0.55527000  0.74617500  0.81635900  1
  H  1419  1  0.55698800  0.72231100  0.82566500  1
  H  1420  1  0.55679200  0.74943800  0.75684900  1
  H  1422  1  0.54979200  0.77049400  0.80715000  1
  H  1424  1  0.50401000  0.70294500  0.77896400  1
  H  1431  1  0.54090800  0.24598750  0.70365400  1
  H  1433  1  0.53795200  0.22566500  0.65357150  1
  H  1435  1  0.53990700  0.24956300  0.64429600  1
  H  1436  1  0.53967800  0.22235200  0.71309900  1
  H  1438  1  0.53277200  0.20133550  0.66278100  1
  H  1440  1  0.48807400  0.26865650  0.69065800  1
  H  1447  1  0.16487300  0.72562950  0.70409750  1
  H  1449  1  0.16922400  0.74551500  0.65388900  1
  H  1451  1  0.16637300  0.72170550  0.64475400  1
  H  1452  1  0.16674100  0.74924200  0.71342350  1
  H  1454  1  0.17317900  0.76969950  0.66251500  1
  H  1456  1  0.21702300  0.70289750  0.69176250  1
  H  1463  1  0.18245500  0.24544100  0.76664200  1
  H  1465  1  0.18550500  0.22533900  0.81680100  1
  H  1467  1  0.18345400  0.24917500  0.82600550  1
  H  1468  1  0.18377100  0.22180500  0.75729900  1
  H  1470  1  0.19099200  0.20095900  0.80777900  1
  H  1472  1  0.23064500  0.26886200  0.77838350  1
  H  1479  1  0.17399800  0.45417900  0.47532200  1
  H  1481  1  0.17693700  0.40409700  0.49565000  1
  H  1483  1  0.17498600  0.39482150  0.47175200  1
  H  1484  1  0.17521700  0.46362500  0.49896200  1
  H  1486  1  0.18212500  0.41330850  0.51998800  1
  H  1488  1  0.22677100  0.44120000  0.45271100  1
  H  1495  1  0.19105500  0.51678400  0.99547900  1
  H  1497  1  0.19398900  0.56686100  0.97515550  1
  H  1499  1  0.19203900  0.57614000  0.99905100  1
  H  1500  1  0.19226900  0.50733700  0.97184100  1
  H  1502  1  0.19917700  0.55764300  0.95082500  1
  H  1504  1  0.24377500  0.52967700  0.01817400  1
  H  1511  1  0.54949500  0.45467000  0.99492800  1
  H  1513  1  0.54643800  0.40451700  0.97482700  1
  H  1515  1  0.54849400  0.39530900  0.99866200  1
  H  1516  1  0.54817600  0.46401600  0.97129100  1
  H  1518  1  0.54092700  0.41353850  0.95045300  1
  H  1520  1  0.50124900  0.44298100  0.01834500  1
  H  1527  1  0.53244300  0.51716900  0.47499500  1
  H  1529  1  0.52938900  0.56732700  0.49509400  1
  H  1531  1  0.53144200  0.57653100  0.47126050  1
  H  1532  1  0.53112300  0.50782500  0.49863050  1
  H  1534  1  0.52389400  0.55830750  0.51946450  1
  H  1536  1  0.48419000  0.52892550  0.45151350  1
  H  1543  1  0.85309200  0.99569800  0.02312300  1
  H  1545  1  0.88519600  0.97592700  0.07266300  1
  H  1547  1  0.84644000  0.99789500  0.08222600  1
  H  1548  1  0.89353100  0.97377100  0.01334500  1
  H  1550  1  0.95758000  0.95744200  0.06369300  1
  H  1552  1  0.82745000  0.01992300  0.03322900  1
  H  1559  1  0.83602600  0.97572200  0.44721300  1
  H  1561  1  0.86814400  0.99545300  0.39772000  1
  H  1563  1  0.82938600  0.97353900  0.38810300  1
  H  1564  1  0.87647300  0.99759600  0.45704700  1
  H  1566  1  0.94052200  0.01383900  0.40678700  1
  H  1568  1  0.81032400  0.95153000  0.43706850  1
  H  1575  1  0.84454200  0.19776000  0.24516900  1
  H  1577  1  0.87667300  0.14822500  0.22543650  1
  H  1579  1  0.83791600  0.13865900  0.24734900  1
  H  1580  1  0.88499400  0.20754000  0.22329400  1
  H  1582  1  0.94905100  0.15719500  0.20704900  1
  H  1584  1  0.81880800  0.18764550  0.26936500  1
  H  1591  1  0.83109300  0.77379500  0.22574600  1
  H  1593  1  0.85897400  0.82338800  0.24581900  1
  H  1595  1  0.82202500  0.83302700  0.22362000  1
  H  1596  1  0.86856000  0.76379950  0.24762150  1
  H  1598  1  0.93306100  0.81414200  0.26389200  1
  H  1600  1  0.82401700  0.78400500  0.20145600  1
  H  1607  1  0.88739100  0.97570600  0.94724700  1
  H  1609  1  0.85532800  0.99543500  0.89767900  1
  H  1611  1  0.89406700  0.97347600  0.88813250  1
  H  1612  1  0.84694700  0.99765850  0.95700800  1
  H  1614  1  0.78353600  0.01405850  0.90655600  1
  H  1616  1  0.91231300  0.95143200  0.93704700  1
  H  1623  1  0.87035400  0.99567800  0.52314100  1
  H  1625  1  0.83827300  0.97598900  0.57266250  1
  H  1627  1  0.87701500  0.99789300  0.58226400  1
  H  1628  1  0.82989900  0.97377900  0.51332300  1
  H  1630  1  0.76647800  0.95746300  0.56368700  1
  H  1632  1  0.89533900  0.01992000  0.53338100  1
  H  1639  1  0.89234600  0.77376100  0.72577200  1
  H  1641  1  0.86445600  0.82338400  0.74581900  1
  H  1643  1  0.90139800  0.83297500  0.72367300  1
  H  1644  1  0.85487900  0.76381300  0.74760400  1
  H  1646  1  0.79037800  0.81423900  0.76379300  1
  H  1648  1  0.89959100  0.78397450  0.70148150  1
  H  1655  1  0.87884900  0.19774400  0.74518050  1
  H  1657  1  0.84675000  0.14824500  0.72541200  1
  H  1659  1  0.88550900  0.13862900  0.74738000  1
  H  1660  1  0.83841500  0.20757500  0.72325600  1
  H  1662  1  0.77435800  0.15731400  0.70692900  1
  H  1664  1  0.90444900  0.18760700  0.76940300  1
  H  1671  1  0.83603600  0.49571000  0.52311100  1
  H  1673  1  0.86814700  0.47593900  0.57265200  1
  H  1675  1  0.82938600  0.49790600  0.58221400  1
  H  1676  1  0.87647800  0.47378400  0.51333250  1
  H  1678  1  0.94052800  0.45745300  0.56367900  1
  H  1680  1  0.81039700  0.51993450  0.53321600  1
  H  1687  1  0.85307400  0.47570900  0.94722500  1
  H  1689  1  0.88520200  0.49544000  0.89773300  1
  H  1691  1  0.84644000  0.47352700  0.88811500  1
  H  1692  1  0.89352300  0.49758300  0.95706000  1
  H  1694  1  0.95758300  0.51382750  0.90680300  1
  H  1696  1  0.82737800  0.45151700  0.93707950  1
  H  1703  1  0.83104800  0.69763100  0.74459500  1
  H  1705  1  0.85892900  0.64798550  0.72457500  1
  H  1707  1  0.82199900  0.63840700  0.74670850  1
  H  1708  1  0.86853300  0.70756650  0.72272600  1
  H  1710  1  0.93252400  0.65704700  0.70646800  1
  H  1712  1  0.82561500  0.68718500  0.76899400  1
  H  1719  1  0.84456500  0.27366100  0.72519600  1
  H  1721  1  0.87662300  0.32318700  0.74492300  1
  H  1723  1  0.83788400  0.33278700  0.72296200  1
  H  1724  1  0.88500800  0.26384500  0.74714600  1
  H  1726  1  0.94842000  0.31421100  0.76354500  1
  H  1728  1  0.81968400  0.28389300  0.70092300  1
  H  1735  1  0.87033900  0.47571700  0.44723650  1
  H  1737  1  0.83827300  0.49544600  0.39766800  1
  H  1739  1  0.87701500  0.47348800  0.38812100  1
  H  1740  1  0.82989400  0.49767000  0.45699750  1
  H  1742  1  0.76647600  0.51406850  0.40654600  1
  H  1744  1  0.89526200  0.45144300  0.43703500  1
  H  1751  1  0.88740400  0.49566600  0.02315300  1
  H  1753  1  0.85532600  0.47597700  0.07267400  1
  H  1755  1  0.89406700  0.49788200  0.08227500  1
  H  1756  1  0.84695200  0.47376700  0.01333500  1
  H  1758  1  0.78352800  0.45745200  0.06369900  1
  H  1760  1  0.91238600  0.51991000  0.03339300  1
  H  1767  1  0.87888600  0.27364500  0.22520700  1
  H  1769  1  0.84679900  0.32320750  0.24489800  1
  H  1771  1  0.88554400  0.33275700  0.22299400  1
  H  1772  1  0.83843100  0.26388100  0.24710700  1
  H  1774  1  0.77500400  0.31432900  0.26342300  1
  H  1776  1  0.90393700  0.28384250  0.20097600  1
  H  1783  1  0.89235900  0.69759600  0.24461950  1
  H  1785  1  0.86449000  0.64798050  0.22457300  1
  H  1787  1  0.90142100  0.63835500  0.24676150  1
  H  1788  1  0.85487400  0.70757950  0.22270800  1
  H  1790  1  0.79089200  0.65713850  0.20636850  1
  H  1792  1  0.89762000  0.68715850  0.26901300  1
  N  21  1  0.02391300  0.89595850  0.10565900  1
  N  22  1  0.20859300  0.86962150  0.07907500  1
  N  23  1  0.95012900  0.94553500  0.04596800  1
  N  24  1  0.15686200  0.93256400  0.02472800  1
  N  45  1  0.00688400  0.07525050  0.36492750  1
  N  46  1  0.19235000  0.10129800  0.39167300  1
  N  47  1  0.93309200  0.02576000  0.42450000  1
  N  48  1  0.13981400  0.03844700  0.44602400  1
  N  69  1  0.01540100  0.11523350  0.14564700  1
  N  70  1  0.20044400  0.14177850  0.11958600  1
  N  71  1  0.94160800  0.17491800  0.19513000  1
  N  72  1  0.14833600  0.19615800  0.18244100  1
  N  93  1  0.99837400  0.85596800  0.32492000  1
  N  94  1  0.18354900  0.82919400  0.35125000  1
  N  95  1  0.92469200  0.79633300  0.27569500  1
  N  96  1  0.13151400  0.77487100  0.28829500  1
  N  117  1  0.69820800  0.89438650  0.36419800  1
  N  118  1  0.49802600  0.87402300  0.38918400  1
  N  119  1  0.75795200  0.94915300  0.41837100  1
  N  120  1  0.56648500  0.93271200  0.44570400  1
  N  141  1  0.71676700  0.07739750  0.10579100  1
  N  142  1  0.51388600  0.09685550  0.07987250  1
  N  143  1  0.77504400  0.02235550  0.05185250  1
  N  144  1  0.58356300  0.03907450  0.02426400  1
  N  165  1  0.70030000  0.11402950  0.32705950  1
  N  166  1  0.50499700  0.14126150  0.34630050  1
  N  167  1  0.76645700  0.16901700  0.27174850  1
  N  168  1  0.57500300  0.19660750  0.28818600  1
  N  189  1  0.72157700  0.85709550  0.14346450  1
  N  190  1  0.52269600  0.83042300  0.12382150  1
  N  191  1  0.77328300  0.80279100  0.19800300  1
  N  192  1  0.58682800  0.77542450  0.18165000  1
  N  213  1  0.71643500  0.07545500  0.86454500  1
  N  214  1  0.53185600  0.10182200  0.89122200  1
  N  215  1  0.79114800  0.02587600  0.92432050  1
  N  216  1  0.58273300  0.04002600  0.94488100  1
  N  237  1  0.69934900  0.89613950  0.60559350  1
  N  238  1  0.51407900  0.87006100  0.57874750  1
  N  239  1  0.77408500  0.94563000  0.54593800  1
  N  240  1  0.56569400  0.93176250  0.52508700  1
  N  261  1  0.72504800  0.85615850  0.82472800  1
  N  262  1  0.54002800  0.82961600  0.85079800  1
  N  263  1  0.79873300  0.79641800  0.77560600  1
  N  264  1  0.59190600  0.77523800  0.78792600  1
  N  285  1  0.70798600  0.11544600  0.64543400  1
  N  286  1  0.52283300  0.14222500  0.61911200  1
  N  287  1  0.78181200  0.17502600  0.69501800  1
  N  288  1  0.57508500  0.19654900  0.68205000  1
  N  309  1  0.00780600  0.07704550  0.60622850  1
  N  310  1  0.20811100  0.09755950  0.58154050  1
  N  311  1  0.94796300  0.02241250  0.55204900  1
  N  312  1  0.14601200  0.03882800  0.52686550  1
  N  333  1  0.02523300  0.89406200  0.86419000  1
  N  334  1  0.22639900  0.87440300  0.89018150  1
  N  335  1  0.96497400  0.94888500  0.91845250  1
  N  336  1  0.16311400  0.93219250  0.94388050  1
  N  357  1  0.00502200  0.85726350  0.64332050  1
  N  358  1  0.20146500  0.83043350  0.62385750  1
  N  359  1  0.95022900  0.80270150  0.69807800  1
  N  360  1  0.13664700  0.77507350  0.68200050  1
  N  381  1  0.01649600  0.11468450  0.82665600  1
  N  382  1  0.21664800  0.13968650  0.84685550  1
  N  383  1  0.95688400  0.16891500  0.77182650  1
  N  384  1  0.14837200  0.19624200  0.78855200  1
  N  405  1  0.00645400  0.39583600  0.60562250  1
  N  406  1  0.19157200  0.36962650  0.57909100  1
  N  407  1  0.93308700  0.44555100  0.54595000  1
  N  408  1  0.13982500  0.43258100  0.52471200  1
  N  429  1  0.02353700  0.57537300  0.86496200  1
  N  430  1  0.20935000  0.60129200  0.89166300  1
  N  431  1  0.95015000  0.52574500  0.92451750  1
  N  432  1  0.15687800  0.53843000  0.94604100  1
  N  453  1  0.99804300  0.61510150  0.64547250  1
  N  454  1  0.18339900  0.64168400  0.61950650  1
  N  455  1  0.92388000  0.67490600  0.69475400  1
  N  456  1  0.13801000  0.69402700  0.68226700  1
  N  477  1  0.01508500  0.35609800  0.82509050  1
  N  478  1  0.20056200  0.32927700  0.85131300  1
  N  479  1  0.94081400  0.29645550  0.77536200  1
  N  480  1  0.14916100  0.27559400  0.78952700  1
  N  501  1  0.70559600  0.39271750  0.86290750  1
  N  502  1  0.51553900  0.37385550  0.88897250  1
  N  503  1  0.77501000  0.44914100  0.91838150  1
  N  504  1  0.58354000  0.43270150  0.94571750  1
  N  525  1  0.69526500  0.57749700  0.60639150  1
  N  526  1  0.49802600  0.59738500  0.58124450  1
  N  527  1  0.75799400  0.52236550  0.55184050  1
  N  528  1  0.56651400  0.53908400  0.52424900  1
  N  549  1  0.72068800  0.61426950  0.82689600  1
  N  550  1  0.52186000  0.64097800  0.84654000  1
  N  551  1  0.77316500  0.66864500  0.77238550  1
  N  552  1  0.58496700  0.69504350  0.78918200  1
  N  573  1  0.70708300  0.35684600  0.64363650  1
  N  574  1  0.50674200  0.33178550  0.62345750  1
  N  575  1  0.76699000  0.30255500  0.69838450  1
  N  576  1  0.56873200  0.27743250  0.68170600  1
  N  597  1  0.69937000  0.57546600  0.36453400  1
  N  598  1  0.51484600  0.60183350  0.39121500  1
  N  599  1  0.77410000  0.52588800  0.42430900  1
  N  600  1  0.56569800  0.54004150  0.44487250  1
  N  621  1  0.71639000  0.39612800  0.10560500  1
  N  622  1  0.53111800  0.37004900  0.07876000  1
  N  623  1  0.79113700  0.44561800  0.04595000  1
  N  624  1  0.58274600  0.43175000  0.02509800  1
  N  645  1  0.70788300  0.35633600  0.32473700  1
  N  646  1  0.52302100  0.32969300  0.35083100  1
  N  647  1  0.78262100  0.29656900  0.27525500  1
  N  648  1  0.57422000  0.27600400  0.28912300  1
  N  669  1  0.72492200  0.61526450  0.14542000  1
  N  670  1  0.53992300  0.64213750  0.11906000  1
  N  671  1  0.79956100  0.67497550  0.19465250  1
  N  672  1  0.58674100  0.69473400  0.18170450  1
  N  693  1  0.02785700  0.57727250  0.10666600  1
  N  694  1  0.22541700  0.59743300  0.08121500  1
  N  695  1  0.96501300  0.52239900  0.05206100  1
  N  696  1  0.16306100  0.53881700  0.02687850  1
  N  717  1  0.01320400  0.39368000  0.36351150  1
  N  718  1  0.20932200  0.37441100  0.39020500  1
  N  719  1  0.94791600  0.44889750  0.41844000  1
  N  720  1  0.14606600  0.43220550  0.44386650  1
  N  741  1  0.01918800  0.35698900  0.14358050  1
  N  742  1  0.21846500  0.33021100  0.12401500  1
  N  743  1  0.95651300  0.30244150  0.19848950  1
  N  744  1  0.15490800  0.27708850  0.18209500  1
  N  765  1  0.00183100  0.61419300  0.32694500  1
  N  766  1  0.19983900  0.63952350  0.34706700  1
  N  767  1  0.95016300  0.66855600  0.27245850  1
  N  768  1  0.13841600  0.69468300  0.28952350  1
  O  8  1  0.05153900  0.94931300  0.02575600  1
  O  15  1  0.13794300  0.87301600  0.10532400  1
  O  32  1  0.03448600  0.02184400  0.44485200  1
  O  39  1  0.12096600  0.09802550  0.36539500  1
  O  56  1  0.04300800  0.19513100  0.19904500  1
  O  63  1  0.12944700  0.11556000  0.12286550  1
  O  80  1  0.02597700  0.77602800  0.27160300  1
  O  87  1  0.11242100  0.85549600  0.34785800  1
  O  104  1  0.67297000  0.94925000  0.44494150  1
  O  111  1  0.58441200  0.87411650  0.36489900  1
  O  128  1  0.69004200  0.02238150  0.02515950  1
  O  135  1  0.60140900  0.09793900  0.10491850  1
  O  152  1  0.68147300  0.19569850  0.27165150  1
  O  159  1  0.59219500  0.11590500  0.34706750  1
  O  176  1  0.69507800  0.77514600  0.19732900  1
  O  183  1  0.60903400  0.85581450  0.12301100  1
  O  200  1  0.68878000  0.02270050  0.94461800  1
  O  207  1  0.60246100  0.09847500  0.86493300  1
  O  224  1  0.67172800  0.94894600  0.52550000  1
  O  231  1  0.58533200  0.87328600  0.60507250  1
  O  248  1  0.69744600  0.77625000  0.77137750  1
  O  255  1  0.61101300  0.85583350  0.84751450  1
  O  272  1  0.68040900  0.19537650  0.69879700  1
  O  279  1  0.59394800  0.11592400  0.62249800  1
  O  296  1  0.03551000  0.02256450  0.52548350  1
  O  303  1  0.12183400  0.09737700  0.60556850  1
  O  320  1  0.05255900  0.94860800  0.94514250  1
  O  327  1  0.13927600  0.87340950  0.86536350  1
  O  344  1  0.02839300  0.77496050  0.69751650  1
  O  351  1  0.11398600  0.85566450  0.62321150  1
  O  368  1  0.04189300  0.19549600  0.77185300  1
  O  375  1  0.13074200  0.11564500  0.84716250  1
  O  392  1  0.03448200  0.44932950  0.52573500  1
  O  399  1  0.11997500  0.37292400  0.60525500  1
  O  416  1  0.05154000  0.52182600  0.94487000  1
  O  423  1  0.13710600  0.59811800  0.86546250  1
  O  440  1  0.02645900  0.69517600  0.69835650  1
  O  447  1  0.11154400  0.61550850  0.62264300  1
  O  464  1  0.04317100  0.27601600  0.77218300  1
  O  471  1  0.12861000  0.35554050  0.84806900  1
  O  488  1  0.69002100  0.44923950  0.94495350  1
  O  495  1  0.60067200  0.37407650  0.86513100  1
  O  512  1  0.67299200  0.52239150  0.52514600  1
  O  519  1  0.58440200  0.59781350  0.60482250  1
  O  536  1  0.69087400  0.69616300  0.77289600  1
  O  543  1  0.60940800  0.61557000  0.84724800  1
  O  560  1  0.67939000  0.27598200  0.69810700  1
  O  567  1  0.59259700  0.35587800  0.62309900  1
  O  584  1  0.67173000  0.52271200  0.44460500  1
  O  591  1  0.58540300  0.59848600  0.36492200  1
  O  608  1  0.68877500  0.44893400  0.02551300  1
  O  615  1  0.60238000  0.37327400  0.10508400  1
  O  632  1  0.68025400  0.27627200  0.27194000  1
  O  639  1  0.59389300  0.35595650  0.34759800  1
  O  656  1  0.69714000  0.69538100  0.19813050  1
  O  663  1  0.61092900  0.61579000  0.12240400  1
  O  680  1  0.05257000  0.52255200  0.02549600  1
  O  687  1  0.13954600  0.59740500  0.10550800  1
  O  704  1  0.03549600  0.44861850  0.44513150  1
  O  711  1  0.12274100  0.37340750  0.36548250  1
  O  728  1  0.04410300  0.27575650  0.19831600  1
  O  735  1  0.13092800  0.35570600  0.12323350  1
  O  752  1  0.03250400  0.69597100  0.27308050  1
  O  759  1  0.11416600  0.61547350  0.34737650  1
  O  776  1  0.86962600  0.84985500  0.14146800  1
  O  778  1  0.87899100  0.90688850  0.11500250  1
  O  792  1  0.85267600  0.12157350  0.32887800  1
  O  794  1  0.86179100  0.06451700  0.35534400  1
  O  808  1  0.86113900  0.07945100  0.09937400  1
  O  810  1  0.87044900  0.10589200  0.15640050  1
  O  824  1  0.84406400  0.89197300  0.37100250  1
  O  826  1  0.85339700  0.86551300  0.31397500  1
  O  840  1  0.87092000  0.12153350  0.82891500  1
  O  842  1  0.86144700  0.06450350  0.85537200  1
  O  856  1  0.85382000  0.84984000  0.64147300  1
  O  858  1  0.84449200  0.90689850  0.61500250  1
  O  872  1  0.87941700  0.89195150  0.87101100  1
  O  874  1  0.86994500  0.86549050  0.81397350  1
  O  888  1  0.86236200  0.07945050  0.59937050  1
  O  890  1  0.85289000  0.10590850  0.65639600  1
  O  904  1  0.85269200  0.34990650  0.64141900  1
  O  906  1  0.86213000  0.40693200  0.61499800  1
  O  920  1  0.86976600  0.62152300  0.82891500  1
  O  922  1  0.87908000  0.56447300  0.85535250  1
  O  936  1  0.84412100  0.57944550  0.59931500  1
  O  938  1  0.85352200  0.60585800  0.65637450  1
  O  952  1  0.86122100  0.39198550  0.87104800  1
  O  954  1  0.87047500  0.36556700  0.81400400  1
  O  968  1  0.85390600  0.62154600  0.32888500  1
  O  970  1  0.84434800  0.56450900  0.35536300  1
  O  984  1  0.87092400  0.34984000  0.14148300  1
  O  986  1  0.86149200  0.40689300  0.11500400  1
  O  1000  1  0.86241700  0.39199700  0.37105050  1
  O  1002  1  0.85293100  0.36552950  0.31398650  1
  O  1016  1  0.87946400  0.57939400  0.09933650  1
  O  1018  1  0.86999100  0.60587600  0.15637550  1
  O  1032  1  0.23627700  0.83921600  0.09419150  1
  O  1034  1  0.50736500  0.86142750  0.10216000  1
  O  1048  1  0.22022600  0.13169400  0.37661650  1
  O  1050  1  0.49139000  0.10922650  0.36874900  1
  O  1064  1  0.22801200  0.12669350  0.08923700  1
  O  1066  1  0.49876500  0.11797200  0.11191600  1
  O  1080  1  0.21157800  0.84428000  0.38169500  1
  O  1082  1  0.48288700  0.85141100  0.35974000  1
  O  1096  1  0.50409300  0.13218200  0.87617500  1
  O  1098  1  0.23303000  0.11001700  0.86817100  1
  O  1112  1  0.48621800  0.83972000  0.59372800  1
  O  1114  1  0.21503600  0.86218450  0.60158650  1
  O  1128  1  0.51249400  0.84469200  0.88113600  1
  O  1130  1  0.24176900  0.85341000  0.85846050  1
  O  1144  1  0.49482000  0.12713500  0.58865550  1
  O  1146  1  0.22355300  0.12001050  0.61059050  1
  O  1160  1  0.21927300  0.33922600  0.59418500  1
  O  1162  1  0.49032600  0.36138500  0.60217550  1
  O  1176  1  0.23714400  0.63167300  0.87663800  1
  O  1178  1  0.50831700  0.60921250  0.86879500  1
  O  1192  1  0.21100000  0.62670150  0.58922450  1
  O  1194  1  0.48175200  0.61798450  0.61182250  1
  O  1208  1  0.22868500  0.34427700  0.88171000  1
  O  1210  1  0.49999200  0.35137050  0.85978250  1
  O  1224  1  0.48716800  0.63218850  0.37617200  1
  O  1226  1  0.21612000  0.61002300  0.36819300  1
  O  1240  1  0.50322100  0.33970500  0.09374400  1
  O  1242  1  0.23205800  0.36217550  0.10160000  1
  O  1256  1  0.49541700  0.34470550  0.38112700  1
  O  1258  1  0.22470900  0.35342500  0.35845050  1
  O  1272  1  0.51185700  0.62712200  0.08866500  1
  O  1274  1  0.24056900  0.62001200  0.11062550  1
  O  1288  1  0.19297000  0.90436800  0.96630100  1
  O  1290  1  0.19433000  0.95409800  0.00450300  1
  O  1304  1  0.17591800  0.06659200  0.50450100  1
  O  1306  1  0.17727600  0.01686000  0.46630300  1
  O  1320  1  0.18444200  0.25458600  0.15429400  1
  O  1322  1  0.18580400  0.21638600  0.20402700  1
  O  1336  1  0.16764900  0.71641900  0.31653100  1
  O  1338  1  0.16867200  0.75455800  0.26677250  1
  O  1352  1  0.53049300  0.90489000  0.50410300  1
  O  1354  1  0.52904000  0.95449800  0.46578050  1
  O  1368  1  0.54754500  0.06695200  0.96581900  1
  O  1370  1  0.54608600  0.01734500  0.00413800  1
  O  1384  1  0.53901900  0.25506850  0.31599750  1
  O  1386  1  0.53756800  0.21674700  0.26639000  1
  O  1400  1  0.55617700  0.71670250  0.15390250  1
  O  1402  1  0.55441100  0.75512300  0.20346250  1
  O  1416  1  0.55577400  0.71683700  0.81611400  1
  O  1418  1  0.55475000  0.75497500  0.76635400  1
  O  1432  1  0.53897700  0.25502600  0.65385400  1
  O  1434  1  0.53761800  0.21682650  0.70358550  1
  O  1448  1  0.16722800  0.71628750  0.65434200  1
  O  1450  1  0.16901500  0.75472850  0.70388800  1
  O  1464  1  0.18440500  0.25462750  0.81643800  1
  O  1466  1  0.18586200  0.21630600  0.76683100  1
  O  1480  1  0.17591700  0.40438000  0.46628900  1
  O  1482  1  0.17728200  0.45411050  0.50448900  1
  O  1496  1  0.19296900  0.56658000  0.00451400  1
  O  1498  1  0.19433400  0.51684750  0.96631700  1
  O  1512  1  0.54754500  0.40487800  0.00411500  1
  O  1514  1  0.54608900  0.45448700  0.96579200  1
  O  1528  1  0.53049300  0.56696450  0.46580600  1
  O  1530  1  0.52903700  0.51735750  0.50412650  1
  O  1544  1  0.83843600  0.00324600  0.07276100  1
  O  1546  1  0.89932900  0.96810200  0.02271800  1
  O  1560  1  0.82137800  0.96819800  0.39755600  1
  O  1562  1  0.88227600  0.00325700  0.44768300  1
  O  1576  1  0.82989900  0.14812400  0.25269050  1
  O  1578  1  0.89080000  0.19816800  0.21763300  1
  O  1592  1  0.81492900  0.82355100  0.21825900  1
  O  1594  1  0.87382100  0.77313150  0.25338600  1
  O  1608  1  0.90208000  0.96813300  0.89760200  1
  O  1610  1  0.84076800  0.00329300  0.94762600  1
  O  1624  1  0.88503600  0.00322600  0.57280500  1
  O  1626  1  0.82372000  0.96815200  0.52269800  1
  O  1640  1  0.90851000  0.82349100  0.71832100  1
  O  1642  1  0.84961200  0.77315100  0.75336300  1
  O  1656  1  0.89351000  0.14808400  0.75273200  1
  O  1658  1  0.83261400  0.19821000  0.71758700  1
  O  1672  1  0.82138400  0.50325800  0.57274900  1
  O  1674  1  0.88227400  0.46811450  0.52270500  1
  O  1688  1  0.83842600  0.46818600  0.89756900  1
  O  1690  1  0.89932400  0.50324400  0.94769600  1
  O  1704  1  0.81483200  0.64789600  0.75205200  1
  O  1706  1  0.87421500  0.69821750  0.71700200  1
  O  1720  1  0.82987000  0.32332750  0.71762100  1
  O  1722  1  0.89117800  0.27322000  0.75278100  1
  O  1736  1  0.88502800  0.46814500  0.39759100  1
  O  1738  1  0.82371800  0.50330400  0.44761400  1
  O  1752  1  0.90208900  0.50321400  0.07281600  1
  O  1754  1  0.84077000  0.46814000  0.02270900  1
  O  1768  1  0.89356500  0.32328700  0.21766200  1
  O  1770  1  0.83224900  0.27326300  0.25273400  1
  O  1784  1  0.90858100  0.64783600  0.25211200  1
  O  1786  1  0.84919900  0.69823700  0.21697600  1
