# generated using pymatgen
data_H24C41(N2O)4
_symmetry_space_group_name_H-M   'P 1'
_cell_length_a   32.81310000
_cell_length_b   58.18660000
_cell_length_c   58.18640000
_cell_angle_alpha   119.99965889
_cell_angle_beta   90.00120000
_cell_angle_gamma   90.00000001
_symmetry_Int_Tables_number   1
_chemical_formula_structural   H24C41(N2O)4
_chemical_formula_sum   'H288 C492 N96 O48'
_cell_volume   96210.80656739
_cell_formula_units_Z   12
loop_
 _symmetry_equiv_pos_site_id
 _symmetry_equiv_pos_as_xyz
  1  'x, y, z'
loop_
 _atom_site_type_symbol
 _atom_site_label
 _atom_site_symmetry_multiplicity
 _atom_site_fract_x
 _atom_site_fract_y
 _atom_site_fract_z
 _atom_site_occupancy
  H  9  1  0.87971400  0.92149600  0.29328800  1
  H  10  1  0.81622400  0.93201800  0.28299000  1
  H  11  1  0.67466300  0.93088200  0.28084500  1
  H  12  1  0.61089600  0.92049100  0.29086800  1
  H  13  1  0.74289500  0.90538500  0.34706900  1
  H  15  1  0.74485600  0.93468500  0.29697800  1
  H  16  1  0.74619800  0.91058900  0.26251100  1
  H  40  1  0.37990500  0.90595300  0.62258700  1
  H  41  1  0.31638500  0.89533200  0.63278000  1
  H  42  1  0.17475900  0.89666600  0.63520700  1
  H  43  1  0.11098800  0.90719500  0.62535100  1
  H  44  1  0.16290300  0.96727300  0.61431500  1
  H  45  1  0.32740200  0.96709000  0.61344900  1
  H  46  1  0.24780300  0.97392500  0.67901000  1
  H  47  1  0.24321600  0.92213000  0.56896000  1
  H  48  1  0.23450000  0.97478600  0.53900400  1
  H  51  1  0.24491700  0.89277200  0.61891600  1
  H  52  1  0.24643100  0.91680200  0.65340000  1
  H  76  1  0.10867200  0.90966300  0.28265900  1
  H  77  1  0.17293000  0.89635900  0.26158900  1
  H  78  1  0.31693100  0.89501200  0.26145500  1
  H  79  1  0.38160900  0.90847300  0.28095200  1
  H  80  1  0.32808800  0.96762500  0.35212300  1
  H  81  1  0.16503400  0.96793500  0.35280300  1
  H  82  1  0.25000000  0.97176500  0.29457100  1
  H  83  1  0.24540700  0.92040400  0.34857800  1
  H  84  1  0.24363000  0.96740200  0.43182900  1
  H  87  1  0.24471800  0.89113800  0.27597100  1
  H  88  1  0.24567800  0.91238400  0.26214100  1
  H  100  1  0.60843300  0.91796000  0.63340100  1
  H  101  1  0.67267300  0.93125700  0.65450100  1
  H  102  1  0.81690000  0.93225000  0.65478500  1
  H  103  1  0.88153300  0.91886700  0.63505200  1
  H  104  1  0.74567500  0.90716500  0.56760500  1
  H  106  1  0.74469600  0.93636600  0.64024800  1
  H  107  1  0.74532600  0.91509200  0.65404400  1
  H  120  1  0.74504600  0.94389000  0.52964200  1
  H  122  1  0.78755000  0.89045700  0.40384900  1
  H  128  1  0.24362100  0.95815300  0.48814700  1
  H  131  1  0.28790900  0.93710200  0.51204500  1
  H  138  1  0.95471900  0.93120600  0.30063700  1
  H  140  1  0.09772800  0.88898300  0.32385800  1
  H  142  1  0.07136100  0.95362600  0.36548800  1
  H  149  1  0.45455600  0.89654300  0.61570900  1
  H  153  1  0.59772700  0.93822200  0.59204100  1
  H  155  1  0.42909900  0.94629600  0.64047200  1
  H  162  1  0.03595700  0.89493700  0.61406400  1
  H  166  1  0.89373100  0.93906900  0.59337000  1
  H  168  1  0.06006900  0.94538000  0.64040200  1
  H  175  1  0.53560300  0.93276200  0.30210200  1
  H  177  1  0.39361600  0.88847300  0.32284800  1
  H  179  1  0.40942100  0.94628700  0.36264100  1
  H  194  1  0.66269200  0.86028100  0.30174800  1
  H  195  1  0.82723400  0.86054200  0.30274100  1
  H  196  1  0.74759400  0.85359600  0.23703200  1
  H  197  1  0.73841800  0.81643200  0.33423900  1
  H  198  1  0.73438000  0.85269400  0.37700400  1
  H  215  1  0.82758500  0.86013600  0.56387200  1
  H  216  1  0.66481900  0.85961900  0.56330600  1
  H  217  1  0.74975500  0.85579800  0.62157000  1
  H  218  1  0.74345400  0.82111900  0.48778567  1
  H  219  1  0.74365100  0.86021800  0.48435400  1
  H  224  1  0.74385700  0.86939400  0.42796800  1
  H  229  1  0.22910300  0.83231500  0.38489200  1
  H  230  1  0.24356000  0.88370700  0.38646000  1
  H  234  1  0.92878200  0.88131900  0.27575800  1
  H  236  1  0.57118600  0.87401900  0.55061100  1
  H  238  1  0.91178500  0.87911700  0.55243800  1
  H  242  1  0.56018400  0.88237600  0.27575100  1
  H  243  1  0.76168500  0.81301800  0.65759800  1
  H  246  1  0.75666100  0.77034300  0.20184900  1
  H  247  1  0.75233800  0.77373700  0.24334500  1
  H  248  1  0.71792800  0.80245000  0.28787600  1
  H  249  1  0.77219600  0.80335900  0.29029000  1
  H  253  1  0.74699700  0.77253000  0.57720200  1
  H  254  1  0.74330900  0.77445600  0.53723400  1
  H  255  1  0.77019900  0.80379100  0.51837800  1
  H  256  1  0.71611200  0.80478800  0.51932300  1
  H  260  1  0.69637000  0.79293700  0.18052600  1
  H  264  1  0.80069000  0.77185300  0.65325200  1
  H  270  1  0.80077100  0.75075500  0.09996700  1
  H  274  1  0.69072400  0.74895400  0.17861800  1
  H  281  1  0.76149600  0.71407100  0.05878600  1
  H  307  1  0.87964200  0.24099200  0.95016800  1
  H  308  1  0.81613100  0.22026300  0.93984700  1
  H  309  1  0.67464200  0.21948800  0.94082700  1
  H  310  1  0.61088700  0.23992900  0.95120200  1
  H  311  1  0.66273200  0.31096200  0.01151000  1
  H  312  1  0.82740700  0.31163000  0.01094300  1
  H  313  1  0.74762900  0.25291500  0.01817700  1
  H  314  1  0.75663700  0.30101300  0.10142800  1
  H  315  1  0.75230200  0.33910300  0.09801700  1
  H  316  1  0.74306500  0.31114900  0.96636000  1
  H  317  1  0.73835100  0.38727600  0.05529700  1
  H  318  1  0.73437800  0.39377100  0.01901800  1
  H  321  1  0.74491000  0.23171200  0.93709400  1
  H  322  1  0.74603900  0.22138800  0.96123300  1
  H  324  1  0.71788400  0.35488300  0.06927100  1
  H  325  1  0.77215100  0.35642800  0.06840300  1
  H  354  1  0.87953400  0.57851900  0.63081800  1
  H  355  1  0.81601400  0.58903200  0.65155500  1
  H  356  1  0.67449200  0.59074200  0.65222600  1
  H  357  1  0.61076200  0.58071700  0.63173500  1
  H  358  1  0.66278100  0.57007600  0.56077900  1
  H  359  1  0.82739700  0.56873900  0.56017700  1
  H  360  1  0.74763100  0.63472600  0.61886300  1
  H  361  1  0.75665800  0.66987100  0.57075700  1
  H  362  1  0.75234300  0.62836600  0.53267100  1
  H  363  1  0.74302700  0.52467700  0.56064600  1
  H  364  1  0.73844700  0.53746500  0.48450200  1
  H  365  1  0.73446200  0.49469400  0.47801500  1
  H  368  1  0.74478500  0.57483200  0.64006500  1
  H  369  1  0.74593600  0.60929400  0.65039900  1
  H  371  1  0.71794500  0.58383800  0.51688600  1
  H  372  1  0.77221100  0.58142500  0.51535700  1
  H  381  1  0.25671100  0.05718700  0.71418200  1
  H  382  1  0.25231300  0.05378400  0.67268500  1
  H  383  1  0.23821200  0.01106300  0.58178600  1
  H  385  1  0.21780500  0.02501200  0.62817000  1
  H  386  1  0.27206700  0.02420200  0.62573300  1
  H  412  1  0.37985700  0.58618200  0.96591400  1
  H  413  1  0.31635800  0.60702700  0.97639300  1
  H  414  1  0.17476500  0.60808400  0.97508400  1
  H  415  1  0.11100000  0.58768900  0.96462100  1
  H  416  1  0.16289100  0.51655500  0.90455900  1
  H  417  1  0.32740200  0.51586200  0.90478800  1
  H  418  1  0.24776000  0.57462400  0.89784700  1
  H  419  1  0.25682300  0.52658500  0.81459100  1
  H  420  1  0.25247800  0.48846700  0.81797300  1
  H  421  1  0.24311500  0.51635800  0.94961200  1
  H  422  1  0.23837000  0.44025800  0.86066500  1
  H  423  1  0.23455200  0.43374600  0.89692600  1
  H  426  1  0.24493200  0.59572400  0.97896500  1
  H  427  1  0.24639800  0.60612800  0.95489500  1
  H  429  1  0.21796100  0.47267900  0.84670400  1
  H  430  1  0.27222600  0.47109500  0.84756400  1
  H  459  1  0.37986900  0.24920000  0.28572900  1
  H  460  1  0.31638200  0.23892800  0.26485400  1
  H  461  1  0.17477400  0.23659100  0.26371300  1
  H  462  1  0.11098500  0.24658000  0.28410400  1
  H  463  1  0.16273600  0.25742100  0.35519100  1
  H  464  1  0.32727700  0.25825600  0.35595800  1
  H  465  1  0.24761700  0.19271700  0.29717100  1
  H  466  1  0.25680800  0.15749100  0.34519700  1
  H  467  1  0.25245000  0.19898600  0.38332000  1
  H  468  1  0.24303600  0.30275000  0.35545700  1
  H  469  1  0.23829100  0.28988200  0.43154700  1
  H  470  1  0.23438400  0.33265700  0.43806400  1
  H  473  1  0.24495300  0.25275200  0.27607500  1
  H  474  1  0.24637300  0.21828500  0.26570000  1
  H  476  1  0.21790900  0.24349900  0.39913100  1
  H  477  1  0.27217100  0.24595300  0.40068700  1
  H  506  1  0.10955900  0.59135300  0.63089400  1
  H  507  1  0.17425000  0.61047300  0.63627600  1
  H  508  1  0.31730200  0.61013800  0.63623600  1
  H  509  1  0.38177100  0.59017100  0.62977200  1
  H  510  1  0.32711600  0.51914000  0.61727700  1
  H  511  1  0.16281200  0.51993800  0.61850000  1
  H  512  1  0.24920400  0.57720400  0.67946600  1
  H  513  1  0.24725100  0.53285100  0.71840700  1
  H  514  1  0.24362700  0.49287200  0.67652800  1
  H  515  1  0.24461200  0.52318300  0.57415200  1
  H  516  1  0.24388600  0.44336400  0.58042200  1
  H  517  1  0.24383200  0.43992800  0.53790500  1
  H  520  1  0.24556900  0.59532600  0.61679300  1
  H  521  1  0.24575200  0.60951400  0.65194000  1
  H  523  1  0.27044300  0.47416100  0.62833200  1
  H  524  1  0.21634000  0.47479100  0.62832900  1
  H  553  1  0.10945200  0.24104900  0.96272700  1
  H  554  1  0.17411500  0.23545900  0.97642700  1
  H  555  1  0.31702500  0.23599600  0.97661600  1
  H  556  1  0.38157200  0.24183800  0.96291700  1
  H  557  1  0.32752400  0.25411700  0.90403200  1
  H  558  1  0.16299800  0.25353800  0.90386400  1
  H  559  1  0.24933600  0.19238300  0.90014700  1
  H  560  1  0.24719300  0.15338100  0.81684900  1
  H  561  1  0.24354800  0.19524300  0.81871200  1
  H  562  1  0.24474900  0.29767600  0.95136700  1
  H  563  1  0.24383500  0.29135900  0.86525800  1
  H  564  1  0.24375200  0.33388700  0.90432900  1
  H  567  1  0.24531600  0.25520700  0.98095000  1
  H  568  1  0.24575200  0.22004900  0.96005500  1
  H  570  1  0.27041900  0.24343800  0.84813400  1
  H  571  1  0.21631500  0.24346200  0.84883600  1
  H  580  1  0.24704400  0.05503600  0.33894200  1
  H  581  1  0.24350200  0.05310600  0.37891000  1
  H  582  1  0.24386800  0.00648300  0.42839400  1
  H  584  1  0.27061100  0.02375800  0.39772600  1
  H  585  1  0.21651900  0.02280900  0.39685800  1
  H  611  1  0.60808000  0.23972700  0.28796500  1
  H  612  1  0.67205700  0.21779500  0.27940000  1
  H  613  1  0.81669100  0.21704400  0.28028900  1
  H  614  1  0.88148800  0.23646500  0.28640100  1
  H  615  1  0.82836100  0.30763600  0.29816200  1
  H  616  1  0.66603200  0.30881400  0.29842300  1
  H  617  1  0.75034900  0.25024300  0.23655500  1
  H  618  1  0.74703200  0.29456900  0.19761600  1
  H  619  1  0.74343000  0.33455100  0.23950500  1
  H  620  1  0.74608200  0.30426100  0.34190200  1
  H  621  1  0.74360900  0.38406900  0.33564000  1
  H  622  1  0.74363500  0.38750400  0.37815800  1
  H  625  1  0.74435200  0.23157800  0.29848800  1
  H  626  1  0.74529700  0.21783900  0.26343900  1
  H  628  1  0.77048000  0.35348600  0.28769100  1
  H  629  1  0.71640000  0.35242800  0.28776200  1
  H  658  1  0.60883600  0.58560300  0.95379500  1
  H  659  1  0.67323100  0.59279400  0.94042900  1
  H  660  1  0.81686300  0.59163900  0.93934900  1
  H  661  1  0.88150200  0.58583800  0.95296000  1
  H  662  1  0.82785800  0.57349500  0.01190200  1
  H  663  1  0.66438100  0.57317900  0.01201100  1
  H  664  1  0.74970400  0.63519300  0.01597000  1
  H  665  1  0.74704000  0.67416500  0.09924700  1
  H  666  1  0.74338200  0.63229300  0.09736600  1
  H  667  1  0.74553600  0.52987200  0.96469400  1
  H  668  1  0.74349000  0.53617300  0.05078900  1
  H  669  1  0.74364200  0.49364600  0.01171700  1
  H  672  1  0.74479500  0.57281000  0.93531000  1
  H  673  1  0.74565500  0.60793500  0.95628500  1
  H  675  1  0.77025600  0.58409500  0.06804100  1
  H  676  1  0.71616500  0.58406000  0.06710100  1
  H  681  1  0.72712300  0.99511800  0.53055100  1
  H  688  1  0.74401600  0.42789500  0.00242100  1
  H  692  1  0.72719400  0.40499100  0.87675800  1
  H  694  1  0.74487800  0.45524300  0.92803400  1
  H  696  1  0.78782500  0.38287500  0.98125400  1
  H  703  1  0.74397400  0.44398000  0.44389300  1
  H  707  1  0.72728300  0.34127900  0.46689300  1
  H  709  1  0.74477400  0.34225400  0.41657600  1
  H  711  1  0.78786400  0.46782800  0.48898000  1
  H  718  1  0.24342000  0.39938000  0.91360700  1
  H  722  1  0.22910000  0.42202900  0.03945300  1
  H  724  1  0.24382900  0.37218800  0.98808000  1
  H  726  1  0.28761300  0.44434900  0.93458200  1
  H  733  1  0.24346900  0.38370800  0.47243800  1
  H  737  1  0.22917000  0.48691400  0.44979300  1
  H  739  1  0.24391400  0.48536800  0.49961100  1
  H  741  1  0.28752500  0.35964300  0.42744800  1
  H  748  1  0.95506700  0.23907600  0.93919900  1
  H  752  1  0.09721600  0.30379400  0.98339500  1
  H  754  1  0.08177100  0.28553600  0.92549100  1
  H  756  1  0.92951600  0.26357100  0.98930800  1
  H  763  1  0.95510000  0.56938200  0.63267400  1
  H  767  1  0.09694800  0.54939300  0.56798700  1
  H  769  1  0.08277400  0.50995300  0.58603000  1
  H  771  1  0.92943100  0.59504000  0.60829000  1
  H  778  1  0.45458300  0.58847600  0.97570400  1
  H  782  1  0.59732500  0.52341500  0.93301500  1
  H  784  1  0.57350500  0.54554900  0.99685900  1
  H  786  1  0.42924600  0.56369600  0.92587200  1
  H  793  1  0.45443400  0.25569500  0.28314300  1
  H  797  1  0.59798900  0.27971900  0.34862900  1
  H  799  1  0.56641700  0.32136900  0.32405500  1
  H  801  1  0.42870600  0.23101400  0.30820600  1
  H  808  1  0.03580200  0.58857800  0.97715600  1
  H  812  1  0.89413100  0.52373500  0.93230700  1
  H  814  1  0.90957500  0.54200200  0.99105800  1
  H  816  1  0.05993800  0.56461800  0.92671100  1
  H  823  1  0.03586000  0.25778800  0.28311000  1
  H  827  1  0.89373300  0.27845500  0.34815700  1
  H  829  1  0.90947400  0.31816600  0.33001300  1
  H  831  1  0.06036800  0.23136100  0.30712900  1
  H  838  1  0.53554800  0.23876700  0.93919900  1
  H  842  1  0.39357100  0.30383500  0.98328500  1
  H  844  1  0.41010400  0.28569400  0.92500800  1
  H  846  1  0.56039500  0.26286000  0.98948100  1
  H  853  1  0.53581300  0.57030500  0.63302600  1
  H  857  1  0.39355200  0.54858100  0.56784300  1
  H  859  1  0.41257500  0.50771500  0.58716000  1
  H  861  1  0.56013900  0.59627000  0.60881900  1
  H  868  1  0.80073400  0.21852300  0.12090000  1
  H  872  1  0.69092200  0.29917000  0.12279400  1
  H  874  1  0.69637200  0.25708800  0.07887400  1
  H  876  1  0.76171500  0.21416800  0.15771400  1
  H  877  1  0.69092500  0.69307500  0.57260300  1
  H  879  1  0.69636900  0.69123700  0.61468800  1
  H  886  1  0.30070800  0.07672300  0.81618700  1
  H  890  1  0.19094700  0.07849700  0.73735500  1
  H  892  1  0.19645700  0.03458000  0.73552900  1
  H  894  1  0.26162600  0.11351200  0.85733200  1
  H  901  1  0.30078800  0.60882500  0.79506600  1
  H  905  1  0.19076400  0.52840600  0.79357800  1
  H  907  1  0.19628700  0.57076900  0.83739200  1
  H  909  1  0.26163600  0.61320000  0.75831800  1
  H  916  1  0.30079100  0.05574400  0.26294600  1
  H  920  1  0.19081300  0.13464200  0.34335400  1
  H  922  1  0.19622600  0.13608700  0.30101800  1
  H  924  1  0.26162000  0.01461000  0.25856500  1
  C  1  1  0.78293300  0.90277400  0.28701000  1
  C  2  1  0.70767900  0.90205900  0.28570100  1
  C  3  1  0.67276800  0.91524900  0.28427300  1
  C  4  1  0.63500500  0.90889800  0.28999100  1
  C  5  1  0.63051600  0.88851400  0.29616600  1
  C  6  1  0.85976300  0.88909600  0.29779300  1
  C  7  1  0.85548000  0.90992500  0.29225000  1
  C  8  1  0.81790400  0.91633600  0.28635300  1
  C  14  1  0.74543100  0.91332000  0.28254900  1
  C  20  1  0.24417900  0.96298400  0.59894100  1
  C  21  1  0.24310600  0.98857500  0.60145500  1
  C  22  1  0.24694600  0.98739000  0.65090400  1
  C  23  1  0.24842100  0.99041800  0.67707700  1
  C  24  1  0.23973600  0.99244800  0.57958500  1
  C  25  1  0.23775200  0.97090400  0.55426300  1
  C  26  1  0.24115900  0.94477900  0.54958400  1
  C  27  1  0.24282600  0.94105300  0.57212900  1
  C  28  1  0.28465400  0.94597500  0.62353700  1
  C  29  1  0.28308700  0.92465700  0.62890100  1
  C  30  1  0.20782800  0.92546200  0.63033800  1
  C  31  1  0.20601400  0.94668500  0.62484200  1
  C  32  1  0.17288400  0.91236600  0.63188300  1
  C  33  1  0.13510400  0.91879000  0.62624300  1
  C  34  1  0.13065400  0.93919500  0.62009400  1
  C  35  1  0.16612200  0.95307200  0.61961400  1
  C  36  1  0.32436100  0.95244000  0.61814100  1
  C  37  1  0.35992900  0.93842900  0.61822600  1
  C  38  1  0.35565300  0.91750800  0.62362800  1
  C  39  1  0.31805200  0.91101600  0.62941900  1
  C  49  1  0.24539500  0.96074100  0.62433400  1
  C  50  1  0.24558100  0.91412500  0.63338500  1
  C  56  1  0.24574900  0.96177200  0.36247300  1
  C  57  1  0.24495900  0.98677200  0.38624200  1
  C  58  1  0.24635500  0.98670300  0.33608700  1
  C  59  1  0.24814700  0.98875900  0.31260900  1
  C  60  1  0.24439200  0.98841600  0.41130100  1
  C  61  1  0.24419700  0.96551800  0.41342000  1
  C  62  1  0.24441700  0.94043400  0.39046100  1
  C  63  1  0.24526100  0.93876500  0.36526800  1
  C  64  1  0.20673400  0.94619100  0.32114100  1
  C  65  1  0.20766900  0.92435600  0.29475600  1
  C  66  1  0.28332800  0.92358200  0.29489100  1
  C  67  1  0.28523600  0.94561700  0.32116900  1
  C  68  1  0.31862200  0.91090600  0.28036000  1
  C  69  1  0.35676200  0.91910400  0.29179100  1
  C  70  1  0.36033700  0.93935200  0.31831600  1
  C  71  1  0.32493700  0.95292900  0.33280300  1
  C  72  1  0.16749900  0.95366100  0.33326200  1
  C  73  1  0.13178200  0.94015800  0.31943200  1
  C  74  1  0.13398200  0.92025200  0.29272100  1
  C  75  1  0.17179000  0.91226800  0.28050000  1
  C  85  1  0.24613600  0.96003700  0.33539200  1
  C  86  1  0.24534300  0.91190200  0.28072200  1
  C  92  1  0.74533800  0.88881100  0.55090600  1
  C  93  1  0.70744200  0.90323500  0.62137300  1
  C  94  1  0.78313800  0.90382800  0.62135200  1
  C  95  1  0.81852400  0.91635600  0.63588000  1
  C  96  1  0.85664300  0.90817700  0.62434800  1
  C  97  1  0.85999000  0.88806300  0.59775300  1
  C  98  1  0.63375000  0.90739000  0.62332700  1
  C  99  1  0.67155200  0.91539900  0.63556100  1
  C  105  1  0.74514400  0.91559400  0.63547500  1
  C  110  1  0.74490900  0.92072600  0.48894300  1
  C  112  1  0.74436500  0.88901700  0.44223100  1
  C  113  1  0.75064600  0.90907800  0.43561700  1
  C  115  1  0.75011500  0.94120300  0.48237600  1
  C  116  1  0.75422400  0.96789200  0.50091000  1
  C  119  1  0.74445000  0.92526700  0.51504100  1
  C  121  1  0.76320000  0.90232000  0.41023700  1
  C  123  1  0.24442000  0.90674900  0.42718400  1
  C  125  1  0.24409400  0.93852800  0.47389800  1
  C  126  1  0.25078900  0.91851700  0.48051500  1
  C  129  1  0.24352100  0.90229100  0.40111700  1
  C  130  1  0.26366800  0.92516100  0.50583700  1
  C  132  1  0.03282700  0.92885100  0.33478700  1
  C  134  1  0.97271500  0.92375400  0.30971200  1
  C  135  1  0.96344100  0.89956700  0.30877700  1
  C  137  1  0.02430600  0.90431200  0.33358200  1
  C  139  1  0.05017400  0.89290500  0.34389500  1
  C  141  1  0.06721600  0.94391400  0.34601100  1
  C  143  1  0.53259200  0.89862200  0.58135600  1
  C  145  1  0.47252700  0.90390500  0.60654300  1
  C  146  1  0.46334500  0.92809200  0.60744400  1
  C  148  1  0.52421100  0.92317800  0.58256800  1
  C  150  1  0.54999900  0.93452000  0.57216300  1
  C  154  1  0.43045200  0.94308400  0.62197700  1
  C  156  1  0.95793100  0.89792900  0.58005900  1
  C  158  1  0.01811400  0.90258900  0.60510600  1
  C  159  1  0.02728100  0.92710400  0.60674000  1
  C  161  1  0.96648200  0.92284800  0.58204700  1
  C  163  1  0.94052600  0.93504600  0.57260800  1
  C  167  1  0.05978600  0.94201800  0.62181100  1
  C  169  1  0.45773100  0.92979300  0.33629400  1
  C  171  1  0.51786300  0.92511200  0.31111000  1
  C  172  1  0.52707600  0.90058200  0.30942300  1
  C  174  1  0.46638000  0.90481800  0.33418300  1
  C  176  1  0.44050300  0.89252300  0.34352800  1
  C  178  1  0.42124300  0.94331000  0.34568700  1
  C  180  1  0.74401900  0.86453000  0.31709100  1
  C  181  1  0.74309900  0.83893200  0.31457500  1
  C  182  1  0.74769400  0.81592500  0.26558700  1
  C  183  1  0.74678800  0.84012800  0.26513500  1
  C  184  1  0.74825400  0.83710500  0.23896500  1
  C  185  1  0.75050200  0.81165500  0.21528100  1
  C  186  1  0.73980100  0.83504800  0.33643900  1
  C  187  1  0.73764600  0.85658700  0.36175500  1
  C  188  1  0.74074300  0.88272600  0.36643400  1
  C  189  1  0.74258000  0.88646000  0.34390100  1
  C  190  1  0.78449200  0.88152700  0.29247800  1
  C  191  1  0.70584300  0.88084900  0.29121600  1
  C  192  1  0.66594100  0.87451600  0.29649800  1
  C  193  1  0.82420000  0.87510200  0.29792100  1
  C  199  1  0.74522600  0.86677700  0.29170200  1
  C  200  1  0.74520100  0.81410500  0.28953700  1
  C  201  1  0.74553600  0.86579400  0.55368100  1
  C  202  1  0.74462200  0.84080200  0.52990600  1
  C  203  1  0.74451500  0.81653200  0.55560700  1
  C  204  1  0.74606500  0.84085300  0.58005300  1
  C  205  1  0.74791200  0.83880300  0.60353300  1
  C  206  1  0.74818500  0.81409300  0.60300400  1
  C  207  1  0.74407200  0.83917700  0.50485600  1
  C  208  1  0.74413100  0.86208900  0.50275500  1
  C  209  1  0.74460300  0.88716400  0.52572500  1
  C  210  1  0.70648700  0.88139600  0.59498800  1
  C  211  1  0.78494100  0.88189100  0.59501700  1
  C  212  1  0.82455000  0.87461300  0.58329200  1
  C  213  1  0.66726400  0.87389500  0.58284900  1
  C  214  1  0.63154600  0.88742100  0.59664500  1
  C  220  1  0.74585900  0.86751900  0.58075600  1
  C  221  1  0.74377400  0.81539600  0.52974200  1
  C  225  1  0.24994800  0.88627000  0.43373900  1
  C  226  1  0.25469600  0.85954000  0.41524100  1
  C  233  1  0.93040500  0.88480100  0.29435800  1
  C  235  1  0.56687100  0.88344200  0.57006800  1
  C  237  1  0.92175900  0.88420100  0.57045000  1
  C  241  1  0.55958400  0.88572200  0.29433500  1
  C  244  1  0.75351800  0.78902600  0.21800200  1
  C  245  1  0.75111800  0.79095400  0.24256100  1
  C  251  1  0.74612200  0.79064400  0.57835700  1
  C  252  1  0.74419900  0.79190300  0.55496800  1
  C  257  1  0.73103600  0.77124900  0.14726300  1
  C  259  1  0.72328600  0.79305800  0.17268100  1
  C  261  1  0.77545300  0.76239400  0.64228200  1
  C  262  1  0.75082700  0.77433300  0.63115700  1
  C  265  1  0.75561900  0.80099400  0.63852100  1
  C  266  1  0.77551700  0.74926500  0.10942500  1
  C  267  1  0.75086000  0.72621200  0.09746900  1
  C  269  1  0.70608400  0.74794300  0.13534400  1
  C  271  1  0.67032000  0.74515400  0.14650300  1
  C  275  1  0.73104200  0.72450300  0.62628400  1
  C  277  1  0.70618300  0.73639900  0.61482400  1
  C  278  1  0.67044800  0.72523800  0.60079900  1
  C  280  1  0.75552700  0.70697300  0.07078400  1
  C  283  1  0.74410700  0.32202900  0.00721300  1
  C  284  1  0.74311500  0.34511400  0.03280900  1
  C  285  1  0.74770700  0.31914000  0.05582400  1
  C  286  1  0.74683500  0.29448100  0.03162300  1
  C  287  1  0.74828000  0.27134200  0.03466100  1
  C  288  1  0.75049000  0.27311900  0.06012100  1
  C  289  1  0.75352400  0.29847300  0.08274100  1
  C  290  1  0.75110300  0.32109600  0.08080200  1
  C  291  1  0.73977400  0.37086000  0.03668400  1
  C  292  1  0.73764700  0.37463600  0.01514200  1
  C  293  1  0.74080100  0.35317100  0.98901100  1
  C  294  1  0.74269100  0.32690600  0.98528400  1
  C  295  1  0.78457800  0.28037800  0.99020600  1
  C  296  1  0.78295300  0.25362300  0.96903500  1
  C  297  1  0.70768200  0.25315200  0.96965900  1
  C  298  1  0.70587900  0.27986500  0.99089900  1
  C  299  1  0.67276100  0.23855400  0.95645400  1
  C  300  1  0.63500800  0.25063600  0.96279100  1
  C  301  1  0.63055600  0.27718800  0.98317300  1
  C  302  1  0.66597100  0.29148900  0.99724400  1
  C  303  1  0.82432900  0.29221100  0.99648900  1
  C  304  1  0.85987400  0.27801000  0.98250400  1
  C  305  1  0.85549900  0.25157400  0.96181900  1
  C  306  1  0.81787900  0.23932400  0.95549500  1
  C  319  1  0.74530700  0.29439100  0.00496500  1
  C  320  1  0.74540800  0.23867800  0.95847000  1
  C  323  1  0.74518400  0.34490900  0.05763800  1
  C  330  1  0.74411500  0.55464500  0.54975600  1
  C  331  1  0.74315000  0.55714900  0.52666800  1
  C  332  1  0.74774800  0.60613900  0.55263600  1
  C  333  1  0.74686500  0.60660300  0.57729700  1
  C  334  1  0.74829400  0.63278300  0.60043500  1
  C  335  1  0.75050400  0.65646300  0.59865600  1
  C  336  1  0.75353800  0.65372400  0.57330000  1
  C  337  1  0.75115500  0.62915900  0.55067800  1
  C  338  1  0.73982800  0.53527300  0.50092200  1
  C  339  1  0.73768500  0.50995700  0.49715400  1
  C  340  1  0.74080700  0.50529800  0.51862200  1
  C  341  1  0.74267700  0.52783900  0.54488600  1
  C  342  1  0.78454400  0.57928000  0.59142400  1
  C  343  1  0.78288000  0.58486300  0.61817800  1
  C  344  1  0.70760900  0.58597400  0.61861300  1
  C  345  1  0.70586200  0.58050900  0.59190100  1
  C  346  1  0.67265200  0.58733300  0.63317000  1
  C  347  1  0.63490500  0.58164500  0.62107400  1
  C  348  1  0.63053700  0.57550300  0.59452400  1
  C  349  1  0.66598100  0.57526000  0.58024900  1
  C  350  1  0.82429700  0.57371100  0.57959700  1
  C  351  1  0.85977800  0.57380600  0.59378600  1
  C  352  1  0.85539700  0.57958300  0.62022600  1
  C  353  1  0.81778600  0.58560100  0.63248800  1
  C  366  1  0.74530700  0.58003900  0.57739300  1
  C  367  1  0.74531200  0.58924500  0.63310700  1
  C  370  1  0.74523500  0.58218200  0.52686900  1
  C  377  1  0.24776000  0.01159000  0.65044700  1
  C  378  1  0.25060600  0.01587600  0.70076500  1
  C  379  1  0.25358400  0.03850000  0.69803300  1
  C  380  1  0.25116700  0.03656400  0.67347000  1
  C  384  1  0.24514800  0.01340800  0.62649600  1
  C  388  1  0.24419100  0.50548900  0.90876200  1
  C  389  1  0.24318900  0.48241500  0.88316200  1
  C  390  1  0.24785400  0.50840400  0.86016400  1
  C  391  1  0.24696800  0.53305200  0.88437100  1
  C  392  1  0.24843000  0.55620200  0.88135400  1
  C  393  1  0.25068300  0.55444100  0.85590200  1
  C  394  1  0.25371800  0.52910200  0.83327000  1
  C  395  1  0.25129800  0.50646900  0.83519500  1
  C  396  1  0.23983600  0.45667100  0.87928100  1
  C  397  1  0.23781600  0.45288800  0.90082000  1
  C  398  1  0.24117100  0.47433300  0.92695600  1
  C  399  1  0.24279500  0.50060300  0.93068600  1
  C  400  1  0.28465100  0.54709600  0.92580100  1
  C  401  1  0.28308100  0.57379700  0.94708700  1
  C  402  1  0.20782800  0.57440700  0.94629700  1
  C  403  1  0.20600500  0.54768500  0.92508000  1
  C  404  1  0.17289300  0.58902700  0.95944200  1
  C  405  1  0.13510700  0.57698600  0.95301100  1
  C  406  1  0.13064500  0.55042100  0.93262400  1
  C  407  1  0.16611000  0.53606600  0.91872500  1
  C  408  1  0.32435100  0.53521700  0.91940200  1
  C  409  1  0.35987400  0.54931200  0.93348700  1
  C  410  1  0.35562600  0.57567100  0.95433100  1
  C  411  1  0.31803700  0.58797100  0.96073900  1
  C  424  1  0.24539500  0.53312800  0.91101900  1
  C  425  1  0.24557500  0.58880900  0.95760500  1
  C  428  1  0.24527300  0.48263100  0.85833500  1
  C  435  1  0.24406300  0.27276000  0.36631700  1
  C  436  1  0.24307600  0.27023000  0.38938800  1
  C  437  1  0.24775400  0.22124200  0.36339000  1
  C  438  1  0.24683300  0.22080400  0.33874200  1
  C  439  1  0.24830200  0.19464000  0.31559000  1
  C  440  1  0.25059100  0.17094800  0.31734500  1
  C  441  1  0.25366600  0.17365200  0.34268200  1
  C  442  1  0.25123700  0.19820800  0.36532000  1
  C  443  1  0.23973900  0.29209000  0.41513700  1
  C  444  1  0.23767200  0.31741200  0.41892300  1
  C  445  1  0.24091800  0.32210800  0.39747800  1
  C  446  1  0.24268000  0.29957500  0.37120900  1
  C  447  1  0.28455600  0.24819300  0.32473500  1
  C  448  1  0.28303200  0.24281600  0.29804600  1
  C  449  1  0.20777900  0.24144400  0.29739900  1
  C  450  1  0.20591100  0.24691300  0.32410800  1
  C  451  1  0.17287800  0.24001900  0.28277500  1
  C  452  1  0.13509400  0.24571200  0.29482500  1
  C  453  1  0.13059300  0.25187200  0.32137500  1
  C  454  1  0.16599700  0.25216500  0.33570600  1
  C  455  1  0.32424500  0.25359700  0.33662400  1
  C  456  1  0.35979800  0.25358300  0.32255700  1
  C  457  1  0.35559500  0.24816100  0.29622700  1
  C  458  1  0.31802200  0.24231200  0.28390800  1
  C  471  1  0.24527600  0.24738100  0.33867600  1
  C  472  1  0.24555000  0.23832200  0.28301000  1
  C  475  1  0.24519700  0.24518600  0.38916600  1
  C  482  1  0.24471200  0.50929200  0.60162700  1
  C  483  1  0.24430700  0.48552300  0.60286200  1
  C  484  1  0.24433400  0.51124500  0.65281700  1
  C  485  1  0.24554400  0.53568800  0.65291500  1
  C  486  1  0.24747700  0.55917000  0.67844100  1
  C  487  1  0.24799800  0.55864900  0.70263500  1
  C  488  1  0.24617500  0.53400000  0.70144600  1
  C  489  1  0.24427000  0.51060800  0.67681000  1
  C  490  1  0.24411200  0.46045800  0.57944800  1
  C  491  1  0.24404500  0.45833900  0.55443000  1
  C  492  1  0.24405100  0.48130000  0.55230600  1
  C  493  1  0.24448100  0.50649200  0.57582500  1
  C  494  1  0.20589200  0.55074000  0.62724600  1
  C  495  1  0.20773300  0.57692000  0.63125200  1
  C  496  1  0.28327000  0.57669900  0.63103600  1
  C  497  1  0.28465700  0.55039400  0.62672000  1
  C  498  1  0.31875300  0.59120000  0.63315900  1
  C  499  1  0.35674700  0.57953100  0.62968800  1
  C  500  1  0.35976400  0.55286300  0.62295900  1
  C  501  1  0.32422000  0.53856300  0.62221000  1
  C  502  1  0.16605200  0.53927400  0.62320500  1
  C  503  1  0.13064800  0.55386600  0.62425100  1
  C  504  1  0.13432600  0.58040700  0.63060800  1
  C  505  1  0.17250900  0.59162900  0.63343400  1
  C  518  1  0.24522100  0.53636900  0.62693000  1
  C  519  1  0.24558700  0.59081000  0.63297700  1
  C  522  1  0.24379200  0.48536700  0.62810700  1
  C  529  1  0.24489200  0.27018800  0.91000500  1
  C  530  1  0.24439800  0.26893800  0.88499500  1
  C  531  1  0.24436800  0.21898300  0.86079300  1
  C  532  1  0.24565100  0.21890600  0.88514900  1
  C  533  1  0.24756500  0.19339100  0.88313000  1
  C  534  1  0.24805200  0.16918800  0.85842500  1
  C  535  1  0.24614200  0.17035000  0.83495100  1
  C  536  1  0.24424000  0.19497800  0.83617400  1
  C  537  1  0.24412400  0.29234300  0.88333000  1
  C  538  1  0.24404200  0.31736700  0.90622300  1
  C  539  1  0.24409700  0.31950400  0.93131200  1
  C  540  1  0.24461500  0.29599300  0.93300000  1
  C  541  1  0.20597500  0.24460900  0.92583200  1
  C  542  1  0.20770300  0.24055900  0.94797900  1
  C  543  1  0.28323100  0.24100100  0.94817400  1
  C  544  1  0.28479100  0.24513400  0.92607200  1
  C  545  1  0.31859100  0.23895700  0.96068200  1
  C  546  1  0.35665600  0.24207000  0.95234500  1
  C  547  1  0.35999600  0.24849700  0.93219800  1
  C  548  1  0.32447900  0.24942200  0.91868200  1
  C  549  1  0.16617700  0.24873300  0.91842800  1
  C  550  1  0.13074300  0.24777300  0.93199400  1
  C  551  1  0.13427800  0.24127600  0.95208500  1
  C  552  1  0.17242700  0.23832200  0.96043700  1
  C  565  1  0.24536500  0.24490300  0.91180400  1
  C  566  1  0.24550500  0.23899000  0.96026600  1
  C  569  1  0.24380700  0.24368100  0.85960300  1
  C  576  1  0.24479800  0.01103000  0.36053300  1
  C  577  1  0.24832400  0.01347500  0.31314000  1
  C  578  1  0.24622100  0.03692100  0.33778800  1
  C  579  1  0.24437100  0.03566000  0.36117500  1
  C  583  1  0.24414600  0.01217400  0.38640000  1
  C  587  1  0.74615200  0.31815800  0.31443000  1
  C  588  1  0.74509400  0.34192300  0.31319800  1
  C  589  1  0.74494800  0.31620100  0.26322400  1
  C  590  1  0.74668400  0.29176500  0.26310800  1
  C  591  1  0.74844500  0.26827400  0.23758700  1
  C  592  1  0.74850000  0.26878800  0.21339800  1
  C  593  1  0.74627100  0.29342600  0.21458300  1
  C  594  1  0.74442000  0.31682200  0.23922600  1
  C  595  1  0.74434300  0.36698000  0.33661400  1
  C  596  1  0.74429000  0.36909800  0.36163300  1
  C  597  1  0.74482500  0.34614200  0.36376000  1
  C  598  1  0.74576700  0.32095200  0.34023300  1
  C  599  1  0.70700300  0.27691700  0.28866600  1
  C  600  1  0.70746800  0.25055700  0.28417000  1
  C  601  1  0.78324700  0.25048500  0.28506100  1
  C  602  1  0.78539200  0.27675000  0.28927300  1
  C  603  1  0.81848600  0.23593600  0.28328100  1
  C  604  1  0.85669700  0.24732400  0.28656800  1
  C  605  1  0.86041100  0.27382600  0.29279200  1
  C  606  1  0.82512200  0.28833700  0.29359300  1
  C  607  1  0.66805300  0.28929200  0.29332500  1
  C  608  1  0.63211900  0.27599500  0.29358000  1
  C  609  1  0.63360300  0.24931800  0.28695600  1
  C  610  1  0.67122800  0.23667300  0.28230700  1
  C  623  1  0.74646400  0.29107000  0.28907000  1
  C  624  1  0.74507800  0.23638900  0.28252100  1
  C  627  1  0.74413900  0.34207100  0.28794900  1
  C  634  1  0.74544900  0.55735700  0.00605700  1
  C  635  1  0.74458300  0.55860000  0.03106400  1
  C  636  1  0.74451900  0.60856100  0.05529000  1
  C  637  1  0.74603600  0.60865300  0.03094900  1
  C  638  1  0.74787800  0.63417100  0.03297700  1
  C  639  1  0.74816600  0.65836700  0.05767700  1
  C  640  1  0.74612900  0.65719600  0.08114100  1
  C  641  1  0.74423800  0.63256300  0.07990900  1
  C  642  1  0.74405500  0.53519200  0.03272200  1
  C  643  1  0.74409600  0.51016900  0.00983000  1
  C  644  1  0.74451100  0.50803600  0.98474300  1
  C  645  1  0.74522200  0.53155200  0.98306000  1
  C  646  1  0.70645300  0.58305000  0.99037900  1
  C  647  1  0.70761800  0.58752500  0.96849400  1
  C  648  1  0.78322200  0.58669900  0.96786500  1
  C  649  1  0.78503500  0.58252500  0.98994400  1
  C  650  1  0.81852900  0.58869900  0.95528900  1
  C  651  1  0.85667400  0.58570900  0.96364900  1
  C  652  1  0.86014400  0.57926700  0.98378100  1
  C  653  1  0.82473700  0.57826400  0.99730800  1
  C  654  1  0.66705600  0.57851500  0.99780000  1
  C  655  1  0.63146400  0.57907300  0.98428000  1
  C  656  1  0.63400200  0.58591000  0.96440800  1
  C  657  1  0.67192000  0.58982000  0.95635300  1
  C  670  1  0.74583700  0.58267700  0.00428800  1
  C  671  1  0.74532000  0.58897000  0.95601200  1
  C  674  1  0.74379700  0.58385000  0.05645700  1
  C  682  1  0.74489700  0.43766000  0.95115900  1
  C  684  1  0.74442300  0.42257300  0.98280800  1
  C  685  1  0.75077800  0.39591700  0.96271500  1
  C  687  1  0.75013000  0.41063100  0.93064300  1
  C  689  1  0.75425000  0.40251500  0.90396400  1
  C  693  1  0.74434500  0.45923700  0.94664600  1
  C  695  1  0.76355700  0.37720800  0.96934000  1
  C  697  1  0.74490100  0.38295700  0.43413700  1
  C  699  1  0.74438900  0.42969100  0.44921700  1
  C  700  1  0.75076300  0.43627700  0.47587700  1
  C  702  1  0.75013000  0.38948100  0.46116700  1
  C  704  1  0.75433000  0.37092700  0.46929000  1
  C  708  1  0.74433200  0.35686300  0.41256500  1
  C  710  1  0.76356500  0.46158600  0.49462500  1
  C  712  1  0.24447500  0.38987600  0.96503900  1
  C  714  1  0.24410600  0.40475900  0.93323100  1
  C  715  1  0.25074000  0.43139700  0.95322900  1
  C  717  1  0.24998800  0.41691700  0.98550500  1
  C  719  1  0.25471100  0.42515600  0.01223600  1
  C  723  1  0.24361500  0.36827500  0.96950000  1
  C  725  1  0.26329300  0.45005100  0.94649900  1
  C  727  1  0.24452300  0.44464100  0.48193000  1
  C  729  1  0.24415800  0.39795200  0.46705600  1
  C  730  1  0.25077100  0.39129900  0.44041100  1
  C  732  1  0.25003300  0.43805600  0.45488500  1
  C  734  1  0.25473000  0.45653800  0.44662600  1
  C  738  1  0.24366700  0.47070500  0.50352900  1
  C  740  1  0.26325100  0.36590000  0.42174900  1
  C  742  1  0.03333300  0.27591200  0.94204800  1
  C  744  1  0.97287100  0.25569800  0.94676400  1
  C  745  1  0.96348800  0.27872800  0.97111000  1
  C  747  1  0.02458100  0.29893200  0.96687900  1
  C  749  1  0.05058800  0.32050800  0.97915400  1
  C  753  1  0.06998600  0.27165700  0.92864700  1
  C  755  1  0.93072600  0.27878200  0.98595600  1
  C  757  1  0.03339700  0.53550200  0.59576800  1
  C  759  1  0.97286000  0.56033500  0.61602800  1
  C  760  1  0.96337100  0.56166100  0.59301700  1
  C  762  1  0.02452900  0.53734600  0.57277600  1
  C  764  1  0.05054300  0.52820600  0.55121900  1
  C  768  1  0.07035800  0.52670100  0.60003200  1
  C  770  1  0.93063100  0.57650000  0.59303500  1
  C  772  1  0.53265300  0.55190600  0.97334900  1
  C  774  1  0.47248800  0.57191300  0.96828200  1
  C  775  1  0.46324700  0.54871300  0.94403200  1
  C  777  1  0.52419900  0.52866800  0.94870800  1
  C  779  1  0.55013600  0.50701300  0.93705300  1
  C  783  1  0.56768400  0.55593200  0.98796000  1
  C  785  1  0.43045500  0.54837500  0.92902800  1
  C  787  1  0.53305500  0.28933800  0.31929100  1
  C  789  1  0.47259400  0.26467100  0.29959200  1
  C  790  1  0.46336900  0.26383700  0.32291000  1
  C  792  1  0.52439100  0.28852200  0.34280000  1
  C  794  1  0.54997500  0.29929100  0.36467800  1
  C  798  1  0.56616100  0.30179600  0.31587000  1
  C  800  1  0.43024200  0.24951900  0.32345100  1
  C  802  1  0.95782000  0.55142900  0.97398500  1
  C  804  1  0.01804000  0.57192900  0.96946900  1
  C  805  1  0.02731100  0.54910100  0.94493200  1
  C  807  1  0.96653800  0.52856000  0.94903800  1
  C  809  1  0.94059500  0.50693700  0.93662700  1
  C  813  1  0.92118200  0.55549900  0.98725400  1
  C  815  1  0.05974600  0.54935000  0.93001400  1
  C  817  1  0.95786800  0.29187700  0.32018600  1
  C  819  1  0.01807700  0.26677700  0.29974900  1
  C  820  1  0.02726800  0.26509700  0.32259900  1
  C  822  1  0.96652500  0.28984600  0.34309500  1
  C  824  1  0.94054300  0.29918000  0.36470200  1
  C  828  1  0.92133300  0.30122000  0.31605000  1
  C  830  1  0.05964900  0.24991700  0.32237100  1
  C  832  1  0.45770700  0.27589600  0.94205900  1
  C  834  1  0.51782300  0.25542800  0.94681000  1
  C  835  1  0.52714000  0.27833300  0.97127500  1
  C  837  1  0.46636800  0.29879300  0.96700200  1
  C  839  1  0.44049700  0.32044200  0.97924600  1
  C  843  1  0.42139500  0.27184600  0.92837200  1
  C  845  1  0.55958400  0.27812700  0.98620700  1
  C  847  1  0.45804200  0.53590600  0.59603000  1
  C  849  1  0.51804300  0.56120300  0.61639300  1
  C  850  1  0.52723700  0.56268200  0.59342500  1
  C  852  1  0.46654200  0.53779200  0.57303900  1
  C  854  1  0.44068000  0.52811300  0.55136300  1
  C  858  1  0.42231200  0.52579100  0.60004600  1
  C  860  1  0.55970000  0.57777200  0.59346300  1
  C  862  1  0.73106500  0.24549500  0.10053900  1
  C  864  1  0.77552100  0.22951800  0.12242800  1
  C  865  1  0.75089400  0.24062800  0.14549100  1
  C  867  1  0.70621800  0.25695300  0.12390000  1
  C  869  1  0.67047600  0.27097100  0.12676700  1
  C  873  1  0.72329600  0.24913000  0.07874900  1
  C  875  1  0.75570100  0.23325300  0.16477700  1
  C  878  1  0.72329200  0.69907400  0.62264400  1
  C  880  1  0.23110200  0.05628000  0.76880500  1
  C  882  1  0.27547100  0.07821600  0.80671600  1
  C  883  1  0.25081400  0.10126500  0.81864200  1
  C  885  1  0.20620600  0.07961800  0.78069000  1
  C  887  1  0.17046800  0.08245300  0.76951200  1
  C  891  1  0.22338500  0.03448100  0.74337400  1
  C  893  1  0.25556500  0.12057100  0.84531200  1
  C  895  1  0.23112000  0.58202100  0.81562200  1
  C  897  1  0.27554200  0.59787900  0.79359700  1
  C  898  1  0.25085600  0.58675100  0.77056000  1
  C  900  1  0.20618800  0.57056100  0.79229500  1
  C  902  1  0.17046100  0.55657400  0.78955200  1
  C  906  1  0.22328200  0.57865400  0.83760900  1
  C  908  1  0.25557700  0.59412000  0.75125400  1
  C  910  1  0.23109300  0.10308500  0.28976800  1
  C  912  1  0.27556300  0.06522200  0.27391400  1
  C  913  1  0.25088700  0.05330000  0.28503200  1
  C  915  1  0.20621200  0.09121400  0.30124500  1
  C  917  1  0.17047100  0.10239600  0.31521700  1
  C  921  1  0.22322700  0.12843300  0.29313300  1
  C  923  1  0.25562600  0.02662800  0.27765300  1
  N  17  1  0.59393300  0.88865600  0.30635300  1
  N  18  1  0.73740800  0.90059500  0.39252800  1
  N  19  1  0.89667000  0.88860300  0.30724300  1
  N  53  1  0.09414400  0.93896900  0.60979300  1
  N  54  1  0.23779700  0.92690200  0.52350300  1
  N  55  1  0.39686800  0.93909900  0.60892700  1
  N  89  1  0.39740800  0.93940000  0.32675600  1
  N  90  1  0.24389000  0.91873200  0.39243800  1
  N  91  1  0.09711600  0.94048200  0.33063400  1
  N  108  1  0.89643700  0.88837300  0.58874400  1
  N  109  1  0.74453900  0.90890400  0.52381400  1
  N  111  1  0.74222800  0.89552800  0.46812700  1
  N  114  1  0.75389200  0.93416800  0.45625200  1
  N  124  1  0.24168300  0.93195400  0.44799500  1
  N  127  1  0.25404400  0.89342900  0.45988800  1
  N  133  1  0.00674300  0.93727800  0.32246800  1
  N  136  1  0.99001900  0.89079200  0.32052200  1
  N  144  1  0.50648000  0.89029400  0.59375000  1
  N  147  1  0.48999900  0.93677700  0.59565500  1
  N  157  1  0.98397000  0.88928300  0.59225600  1
  N  160  1  0.00064500  0.93627600  0.59540600  1
  N  170  1  0.48373300  0.93840200  0.32401900  1
  N  173  1  0.50051600  0.89139700  0.32077400  1
  N  222  1  0.75341400  0.81340100  0.62535400  1
  N  223  1  0.59680400  0.88697800  0.58545500  1
  N  250  1  0.75294400  0.80414400  0.18936000  1
  N  258  1  0.76510900  0.77032000  0.13344100  1
  N  263  1  0.71686000  0.76066500  0.61832500  1
  N  268  1  0.71678000  0.72715800  0.11110000  1
  N  276  1  0.76505400  0.73835400  0.63926200  1
  N  326  1  0.59387800  0.28720500  0.98315000  1
  N  327  1  0.73756900  0.36136500  0.97112100  1
  N  328  1  0.75293800  0.25471800  0.06764800  1
  N  329  1  0.89668900  0.28795300  0.98265400  1
  N  373  1  0.59388100  0.56551300  0.58444600  1
  N  374  1  0.73755500  0.47921500  0.51043000  1
  N  375  1  0.75294200  0.68239200  0.61705600  1
  N  376  1  0.89659500  0.56404300  0.58383100  1
  N  387  1  0.25304400  0.02340400  0.72669500  1
  N  431  1  0.09416600  0.54033600  0.93291700  1
  N  432  1  0.23766300  0.46613100  0.94483000  1
  N  433  1  0.25308100  0.57286300  0.84841600  1
  N  434  1  0.39677100  0.53931000  0.93288600  1
  N  478  1  0.09398000  0.26200500  0.33140100  1
  N  479  1  0.23756300  0.34819300  0.40567800  1
  N  480  1  0.25301100  0.14504200  0.29892200  1
  N  481  1  0.39679800  0.26274300  0.33251000  1
  N  525  1  0.39618300  0.54371300  0.61368800  1
  N  526  1  0.24380400  0.47935000  0.52864200  1
  N  527  1  0.25329100  0.58099500  0.72568000  1
  N  528  1  0.09346800  0.54570500  0.61581200  1
  N  572  1  0.39696600  0.25709700  0.93227300  1
  N  573  1  0.24379800  0.34316700  0.95302000  1
  N  574  1  0.25331600  0.14614700  0.85774500  1
  N  575  1  0.09369600  0.25637800  0.93224000  1
  N  586  1  0.25347100  0.01419300  0.29079600  1
  N  630  1  0.89754900  0.28222900  0.30107000  1
  N  631  1  0.74456600  0.34809400  0.38742800  1
  N  632  1  0.75360900  0.24642600  0.19035500  1
  N  633  1  0.59855600  0.28883100  0.30481400  1
  N  677  1  0.89700600  0.57046300  0.98350500  1
  N  678  1  0.74442800  0.48436600  0.96303500  1
  N  679  1  0.75333300  0.68139800  0.05833500  1
  N  680  1  0.59628900  0.56843400  0.98410700  1
  N  683  1  0.74223700  0.44199200  0.97634200  1
  N  686  1  0.75399000  0.39152500  0.93764700  1
  N  698  1  0.74221500  0.40380400  0.42980100  1
  N  701  1  0.75400300  0.41559400  0.48026500  1
  N  713  1  0.24168900  0.38545200  0.93982700  1
  N  716  1  0.25400400  0.43590200  0.97833300  1
  N  728  1  0.24174700  0.42385700  0.48635900  1
  N  731  1  0.25402300  0.41189400  0.43589900  1
  N  743  1  0.00721500  0.25509500  0.93354000  1
  N  746  1  0.99020700  0.29917500  0.98022400  1
  N  758  1  0.00730100  0.54778000  0.61660600  1
  N  761  1  0.99009500  0.55041100  0.57257200  1
  N  773  1  0.50658100  0.57267000  0.98175900  1
  N  776  1  0.48994400  0.52825400  0.93519000  1
  N  788  1  0.50666600  0.27732100  0.29870500  1
  N  791  1  0.48999900  0.27563100  0.34340200  1
  N  803  1  0.98381100  0.57231800  0.98268300  1
  N  806  1  0.00072400  0.52857400  0.93567500  1
  N  818  1  0.98392900  0.27965300  0.29933300  1
  N  821  1  0.00066000  0.27643000  0.34311000  1
  N  833  1  0.48369300  0.25501300  0.93349800  1
  N  836  1  0.50052800  0.29884300  0.98042600  1
  N  848  1  0.48401600  0.54826600  0.61688800  1
  N  851  1  0.50062600  0.55118800  0.57291500  1
  N  863  1  0.76508600  0.23252400  0.10140400  1
  N  866  1  0.71691400  0.25345300  0.14466000  1
  N  881  1  0.26511000  0.05718100  0.78267000  1
  N  884  1  0.21684800  0.10039600  0.80495500  1
  N  896  1  0.26514000  0.59495100  0.81467300  1
  N  899  1  0.21686100  0.57398400  0.77147600  1
  N  911  1  0.26512200  0.08921700  0.27683600  1
  N  914  1  0.21688800  0.06697000  0.29780700  1
  O  117  1  0.77309800  0.98227700  0.49484900  1
  O  118  1  0.72735000  0.97818700  0.51796400  1
  O  151  1  0.53455700  0.94684300  0.56247600  1
  O  152  1  0.58445200  0.94237200  0.58137000  1
  O  164  1  0.95608800  0.94719500  0.56277900  1
  O  165  1  0.90666200  0.94334800  0.58268400  1
  O  227  1  0.27223800  0.84525800  0.42200500  1
  O  228  1  0.22874600  0.84920100  0.39758500  1
  O  231  1  0.03439100  0.88068600  0.35359700  1
  O  232  1  0.08442300  0.88481500  0.33450600  1
  O  239  1  0.45595800  0.88008400  0.35308500  1
  O  240  1  0.40671500  0.88407100  0.33338700  1
  O  272  1  0.64160000  0.73362100  0.13184800  1
  O  273  1  0.67004000  0.74461000  0.16746300  1
  O  279  1  0.64163700  0.73990200  0.60418100  1
  O  282  1  0.67015300  0.70414600  0.57942900  1
  O  690  1  0.77310700  0.38206700  0.88955700  1
  O  691  1  0.72739600  0.40929900  0.89367700  1
  O  705  1  0.77328100  0.37697300  0.48970800  1
  O  706  1  0.72745700  0.35387800  0.46256700  1
  O  720  1  0.27222900  0.44621100  0.02652000  1
  O  721  1  0.22876400  0.41782300  0.02256200  1
  O  735  1  0.27217100  0.44974700  0.42554500  1
  O  736  1  0.22883100  0.47423100  0.45400000  1
  O  750  1  0.03527400  0.34255600  0.99148400  1
  O  751  1  0.08424900  0.31876300  0.98772300  1
  O  765  1  0.03523800  0.51841100  0.52916200  1
  O  766  1  0.08403900  0.53871900  0.55300200  1
  O  780  1  0.53478600  0.48497300  0.92475900  1
  O  781  1  0.58423900  0.50853100  0.92886300  1
  O  795  1  0.53422500  0.30935000  0.38661900  1
  O  796  1  0.58463200  0.29040300  0.36341300  1
  O  810  1  0.95618400  0.48495900  0.92458900  1
  O  811  1  0.90701800  0.50875200  0.92802100  1
  O  825  1  0.95631300  0.30873800  0.38661600  1
  O  826  1  0.90687200  0.28898000  0.36308400  1
  O  840  1  0.45595400  0.34243600  0.99168300  1
  O  841  1  0.40668100  0.31877300  0.98768200  1
  O  855  1  0.45615000  0.51855800  0.52937200  1
  O  856  1  0.40670300  0.53799200  0.55294300  1
  O  870  1  0.64167000  0.26758500  0.13805200  1
  O  871  1  0.67015900  0.29234000  0.12704300  1
  O  888  1  0.14163500  0.09371100  0.78416300  1
  O  889  1  0.17016900  0.08272700  0.74841900  1
  O  903  1  0.14190300  0.55969400  0.77789700  1
  O  904  1  0.17013500  0.53513300  0.78909900  1
  O  918  1  0.14179300  0.08775100  0.31222100  1
  O  919  1  0.17016000  0.12345600  0.33662500  1
