# generated using pymatgen
data_H6C13NO
_symmetry_space_group_name_H-M   'P 1'
_cell_length_a   44.37505509
_cell_length_b   44.37505509
_cell_length_c   44.37505509
_cell_angle_alpha   109.47122063
_cell_angle_beta   109.47122063
_cell_angle_gamma   109.47122063
_symmetry_Int_Tables_number   1
_chemical_formula_structural   H6C13NO
_chemical_formula_sum   'H288 C624 N48 O48'
_cell_volume   67265.87948213
_cell_formula_units_Z   48
loop_
 _symmetry_equiv_pos_site_id
 _symmetry_equiv_pos_as_xyz
  1  'x, y, z'
loop_
 _atom_site_type_symbol
 _atom_site_label
 _atom_site_symmetry_multiplicity
 _atom_site_fract_x
 _atom_site_fract_y
 _atom_site_fract_z
 _atom_site_occupancy
  C  1  1  0.39365800  0.89338750  0.75578250  1
  C  2  1  0.39326900  0.87411250  0.77536650  1
  C  3  1  0.41082950  0.85281650  0.77448500  1
  C  4  1  0.42834050  0.85079350  0.75310100  1
  C  5  1  0.42923650  0.86995100  0.73318150  1
  C  6  1  0.41184000  0.89148450  0.73503350  1
  C  10  1  0.37452100  0.91310600  0.75583100  1
  C  11  1  0.33559650  0.89432900  0.73505950  1
  C  12  1  0.31643850  0.91409200  0.73318650  1
  C  13  1  0.33731850  0.95316950  0.75309200  1
  C  14  1  0.37620950  0.97245400  0.77448250  1
  C  15  1  0.39456950  0.95196600  0.77541050  1
  C  19  1  0.67007950  0.39379200  0.53189750  1
  C  20  1  0.67058550  0.41382750  0.51307600  1
  C  21  1  0.65318200  0.39546150  0.47422850  1
  C  22  1  0.63567800  0.35656650  0.45464050  1
  C  23  1  0.63466450  0.33568700  0.47284450  1
  C  24  1  0.65191750  0.35486450  0.51176000  1
  C  28  1  0.68928000  0.41293850  0.57075150  1
  C  29  1  0.72820300  0.43097100  0.59081200  1
  C  30  1  0.74747250  0.44836000  0.62973750  1
  C  31  1  0.72666750  0.44753500  0.64801450  1
  C  32  1  0.68778050  0.43017150  0.62851100  1
  C  33  1  0.66932600  0.41265950  0.58965450  1
  C  37  1  0.89442600  0.20898500  0.57088300  1
  C  38  1  0.93328500  0.22820200  0.58975900  1
  C  39  1  0.95370950  0.24960800  0.62861050  1
  C  40  1  0.93435300  0.25175500  0.64814100  1
  C  41  1  0.89527550  0.23260650  0.62989100  1
  C  42  1  0.87558900  0.21104350  0.59096450  1
  C  46  1  0.87475700  0.18929600  0.53203000  1
  C  47  1  0.87278950  0.20811000  0.51191750  1
  C  48  1  0.85121150  0.18839900  0.47298950  1
  C  49  1  0.83201950  0.14932100  0.45476750  1
  C  50  1  0.83409750  0.12999050  0.47432700  1
  C  51  1  0.85547350  0.15043850  0.51317900  1
  C  55  1  0.17023650  0.70868700  0.34671150  1
  C  56  1  0.13137900  0.68870350  0.32707450  1
  C  57  1  0.11095150  0.70712550  0.32806400  1
  C  58  1  0.13030750  0.74600850  0.34958600  1
  C  59  1  0.16939200  0.76685050  0.36951050  1
  C  60  1  0.18907150  0.74760600  0.36760250  1
  C  64  1  0.18990350  0.68950200  0.34671750  1
  C  65  1  0.19194750  0.67147350  0.36760800  1
  C  66  1  0.21353700  0.65414200  0.36952800  1
  C  67  1  0.23272750  0.65507550  0.34963300  1
  C  68  1  0.23059050  0.67245550  0.32812500  1
  C  69  1  0.20915750  0.68987300  0.32711350  1
  C  73  1  0.68926400  0.34683100  0.18897200  1
  C  74  1  0.66931350  0.32715900  0.15011450  1
  C  75  1  0.68777050  0.32810200  0.12971550  1
  C  76  1  0.72665750  0.34961800  0.14910150  1
  C  77  1  0.74746250  0.36959300  0.18818350  1
  C  78  1  0.72818650  0.36771450  0.20783700  1
  C  82  1  0.67006150  0.34677350  0.20862300  1
  C  83  1  0.65188900  0.36752700  0.21059200  1
  C  84  1  0.63463550  0.36945000  0.23225550  1
  C  85  1  0.63565700  0.34958750  0.25147450  1
  C  86  1  0.65316750  0.32820450  0.24939600  1
  C  87  1  0.67057300  0.32724600  0.22795400  1
  C  91  1  0.18988600  0.57086300  0.91362400  1
  C  92  1  0.20914150  0.58974000  0.95248250  1
  C  93  1  0.23057700  0.62858850  0.97290850  1
  C  94  1  0.23271700  0.64811350  0.95354450  1
  C  95  1  0.21352500  0.62986250  0.91446050  1
  C  96  1  0.19193400  0.59094100  0.89478400  1
  C  100  1  0.17021800  0.53201050  0.89395750  1
  C  101  1  0.18905250  0.51192550  0.89190800  1
  C  102  1  0.16937350  0.47300150  0.87032100  1
  C  103  1  0.13029200  0.45476100  0.85115600  1
  C  104  1  0.11093250  0.47428650  0.85331500  1
  C  105  1  0.13136100  0.51313550  0.87473050  1
  C  109  1  0.37451200  0.53188550  0.68917750  1
  C  110  1  0.39456300  0.51307700  0.68964500  1
  C  111  1  0.37620600  0.47422750  0.67220850  1
  C  112  1  0.33731550  0.45461800  0.65470350  1
  C  113  1  0.31643300  0.47281250  0.65373050  1
  C  114  1  0.33558650  0.51173300  0.67101850  1
  C  118  1  0.39364350  0.57074050  0.70836300  1
  C  119  1  0.41182700  0.59082550  0.74729350  1
  C  120  1  0.42921950  0.62975650  0.76653900  1
  C  121  1  0.42831800  0.64801650  0.74572250  1
  C  122  1  0.41080300  0.62848200  0.70682900  1
  C  123  1  0.39324550  0.58962400  0.68838550  1
  C  127  1  0.87477650  0.75589950  0.41321800  1
  C  128  1  0.85545950  0.77544250  0.41275800  1
  C  129  1  0.83408700  0.77451050  0.43023650  1
  C  130  1  0.83203050  0.75311650  0.44773600  1
  C  131  1  0.85124250  0.73325250  0.44871800  1
  C  132  1  0.87283750  0.73514100  0.43138650  1
  C  136  1  0.89444450  0.75588600  0.39403350  1
  C  137  1  0.87560900  0.73499200  0.35511600  1
  C  138  1  0.89529200  0.73312050  0.33587350  1
  C  139  1  0.93437100  0.75305850  0.35669950  1
  C  140  1  0.95372750  0.77456300  0.39558650  1
  C  141  1  0.93330450  0.77553600  0.41401450  1
  C  145  1  0.55175650  0.91393700  0.20931350  1
  C  146  1  0.57067400  0.95279700  0.22854300  1
  C  147  1  0.60952950  0.97318050  0.24989800  1
  C  148  1  0.62901650  0.95378050  0.25200400  1
  C  149  1  0.61073050  0.91469900  0.23285350  1
  C  150  1  0.57180300  0.89506250  0.21132750  1
  C  154  1  0.51290200  0.89429150  0.18960350  1
  C  155  1  0.49276150  0.89232500  0.20838850  1
  C  156  1  0.45384150  0.87065550  0.18865200  1
  C  157  1  0.43565000  0.85141600  0.14957100  1
  C  158  1  0.45524000  0.85349600  0.13026800  1
  C  159  1  0.49408550  0.87494150  0.15074600  1
  C  163  1  0.32771250  0.18925900  0.70868550  1
  C  164  1  0.30805850  0.15040050  0.68870700  1
  C  165  1  0.30904150  0.12997400  0.70713250  1
  C  166  1  0.33056150  0.14933650  0.74601700  1
  C  167  1  0.35050600  0.18842300  0.76684700  1
  C  168  1  0.34859950  0.20810250  0.74760400  1
  C  172  1  0.32770900  0.20891800  0.68949100  1
  C  173  1  0.34859950  0.21096700  0.67146150  1
  C  174  1  0.35050250  0.23255150  0.65412500  1
  C  175  1  0.33055450  0.25168950  0.65500800  1
  C  176  1  0.30903200  0.24952750  0.67237050  1
  C  177  1  0.30805300  0.22811900  0.68981400  1
  C  181  1  0.73654600  0.41308700  0.89365000  1
  C  182  1  0.75615700  0.41266650  0.87439950  1
  C  183  1  0.75526350  0.43015500  0.85303450  1
  C  184  1  0.73387750  0.44766100  0.85094850  1
  C  185  1  0.71395300  0.44859500  0.87009700  1
  C  186  1  0.71577650  0.43124450  0.89167400  1
  C  190  1  0.73654600  0.39394350  0.91336150  1
  C  191  1  0.71577750  0.35501550  0.89456600  1
  C  192  1  0.71395800  0.33584100  0.91431800  1
  C  193  1  0.73387750  0.35669500  0.95338850  1
  C  194  1  0.75526250  0.39558750  0.97269100  1
  C  195  1  0.75615400  0.41397200  0.95222200  1
  C  199  1  0.51290600  0.68910000  0.39380800  1
  C  200  1  0.49408950  0.68962700  0.41384750  1
  C  201  1  0.45524350  0.67221750  0.39547900  1
  C  202  1  0.43565400  0.65470300  0.35658700  1
  C  203  1  0.45384400  0.65365800  0.33569600  1
  C  204  1  0.49276550  0.67092350  0.35488200  1
  C  208  1  0.55176200  0.70831150  0.41295250  1
  C  209  1  0.57180700  0.74723250  0.43098750  1
  C  210  1  0.61073300  0.76652300  0.44838400  1
  C  211  1  0.62902000  0.74572850  0.44751450  1
  C  212  1  0.60953350  0.70684200  0.43013250  1
  C  213  1  0.57067900  0.68837100  0.41263500  1
  C  433  1  0.67081000  0.20930450  0.34702450  1
  C  434  1  0.67095300  0.22845900  0.32732700  1
  C  435  1  0.65311250  0.24949250  0.32806100  1
  C  436  1  0.63555050  0.25136350  0.34940700  1
  C  437  1  0.63500550  0.23237800  0.36950550  1
  C  438  1  0.65267200  0.21110300  0.36780800  1
  C  442  1  0.69010900  0.18976750  0.34697450  1
  C  443  1  0.72902650  0.20868900  0.36779250  1
  C  444  1  0.74832950  0.18905400  0.36950850  1
  C  445  1  0.72761500  0.14996850  0.34938250  1
  C  446  1  0.68871050  0.13055300  0.32800950  1
  C  447  1  0.67020550  0.15091550  0.32724900  1
  C  451  1  0.39458800  0.70909950  0.57085350  1
  C  452  1  0.39436500  0.68918600  0.58979000  1
  C  453  1  0.41204800  0.70767800  0.62865400  1
  C  454  1  0.42956550  0.74658350  0.64814900  1
  C  455  1  0.43020000  0.76730900  0.62978400  1
  C  456  1  0.41267200  0.74801550  0.59085450  1
  C  460  1  0.37524750  0.68981750  0.53201800  1
  C  461  1  0.33633250  0.67177500  0.51208050  1
  C  462  1  0.31697500  0.65420550  0.47314750  1
  C  463  1  0.33763600  0.65477300  0.45471900  1
  C  464  1  0.37653600  0.67221550  0.47414650  1
  C  465  1  0.39509650  0.68995150  0.51301600  1
  C  469  1  0.17026400  0.89392550  0.53194450  1
  C  470  1  0.13141000  0.87481450  0.51292950  1
  C  471  1  0.11110550  0.85364750  0.47406000  1
  C  472  1  0.13057950  0.85162250  0.45463700  1
  C  473  1  0.16966500  0.87061000  0.47309100  1
  C  474  1  0.18925250  0.89196300  0.51202050  1
  C  478  1  0.18974300  0.91342750  0.57077950  1
  C  479  1  0.19159100  0.89445200  0.59072500  1
  C  480  1  0.21289000  0.91403600  0.62966500  1
  C  481  1  0.23188250  0.95311900  0.64809050  1
  C  482  1  0.22996700  0.97258750  0.62865250  1
  C  483  1  0.20888700  0.95227850  0.58978050  1
  C  487  1  0.89438200  0.39407850  0.75611250  1
  C  488  1  0.93323250  0.41393650  0.77582900  1
  C  489  1  0.95357133  0.39538850  0.77498283  1
  C  490  1  0.93408800  0.35649200  0.75347100  1
  C  491  1  0.89500000  0.33582400  0.73340300  1
  C  492  1  0.87541100  0.35516450  0.73520550  1
  C  496  1  0.87487200  0.41340300  0.75610200  1
  C  497  1  0.87288800  0.43135200  0.73514100  1
  C  498  1  0.85148850  0.44887650  0.73332500  1
  C  499  1  0.83246700  0.44829200  0.75339500  1
  C  500  1  0.83451050  0.43090750  0.77490800  1
  C  501  1  0.85573050  0.41326200  0.77581250  1
  C  505  1  0.37527050  0.75592250  0.91373800  1
  C  506  1  0.39511000  0.77562850  0.95258750  1
  C  507  1  0.37654450  0.77479450  0.97289000  1
  C  508  1  0.33764400  0.75333650  0.95341450  1
  C  509  1  0.31699750  0.73326000  0.91432550  1
  C  510  1  0.33635250  0.73505000  0.89474950  1
  C  514  1  0.39461400  0.75598500  0.89424600  1
  C  515  1  0.41269100  0.73514600  0.89232300  1
  C  516  1  0.43021750  0.73338000  0.87092050  1
  C  517  1  0.42958900  0.75347650  0.85192450  1
  C  518  1  0.41207950  0.77487000  0.85390950  1
  C  519  1  0.39439850  0.77568100  0.87509250  1
  C  523  1  0.87489400  0.53193200  0.18923400  1
  C  524  1  0.85575050  0.51293350  0.15038200  1
  C  525  1  0.83452600  0.47406850  0.13006650  1
  C  526  1  0.83248050  0.45463900  0.14953450  1
  C  527  1  0.85150150  0.47307400  0.18862450  1
  C  528  1  0.87290650  0.51199700  0.20820950  1
  C  532  1  0.89440200  0.57076650  0.20873450  1
  C  533  1  0.87542800  0.59070650  0.21067850  1
  C  534  1  0.89501400  0.62963500  0.23206900  1
  C  535  1  0.93410350  0.64805950  0.25108400  1
  C  536  1  0.95358283  0.62864283  0.24904800  1
  C  537  1  0.93325150  0.58976200  0.22786150  1
  C  541  1  0.69008950  0.57081550  0.41356000  1
  C  542  1  0.67019250  0.58977000  0.41339150  1
  C  543  1  0.68870150  0.62863700  0.43114450  1
  C  544  1  0.72760600  0.64812350  0.44867750  1
  C  545  1  0.74831300  0.62974550  0.44925750  1
  C  546  1  0.72900900  0.59080850  0.43166150  1
  C  550  1  0.67078600  0.53197950  0.39421450  1
  C  551  1  0.65263950  0.51203800  0.35529150  1
  C  552  1  0.63497150  0.47309700  0.33593050  1
  C  553  1  0.63552600  0.45466050  0.35657850  1
  C  554  1  0.65309450  0.47409800  0.39548750  1
  C  555  1  0.67093600  0.51297250  0.41405950  1
  C  559  1  0.18972100  0.34676400  0.68941300  1
  C  560  1  0.20886650  0.32705750  0.68955800  1
  C  561  1  0.22994750  0.32782850  0.67176700  1
  C  562  1  0.23186450  0.34921250  0.65424500  1
  C  563  1  0.21287000  0.36930250  0.65367750  1
  C  564  1  0.19157150  0.36758800  0.67131650  1
  C  568  1  0.17024450  0.34678950  0.70877100  1
  C  569  1  0.18923400  0.36774000  0.74768300  1
  C  570  1  0.16964950  0.36951000  0.76702750  1
  C  571  1  0.13056200  0.34941450  0.74639650  1
  C  572  1  0.11108750  0.32791550  0.70749900  1
  C  573  1  0.13138950  0.32705100  0.68893350  1
  C  577  1  0.51286700  0.18894850  0.89362150  1
  C  578  1  0.49381450  0.15009650  0.87449100  1
  C  579  1  0.45494450  0.12983150  0.85336600  1
  C  580  1  0.43556050  0.14934500  0.85137250  1
  C  581  1  0.45405100  0.18843150  0.87035750  1
  C  582  1  0.49298200  0.20797650  0.89169750  1
  C  586  1  0.55170250  0.20839800  0.91314750  1
  C  587  1  0.57167750  0.21029750  0.89420600  1
  C  588  1  0.61061100  0.23165950  0.91380650  1
  C  589  1  0.62900000  0.25064450  0.95289650  1
  C  590  1  0.60953683  0.24868100  0.97233883  1
  C  591  1  0.57066950  0.22754400  0.95199650  1
  C  595  1  0.73691400  0.91342100  0.39402200  1
  C  596  1  0.75662950  0.95227100  0.41390750  1
  C  597  1  0.75575950  0.97261650  0.39539000  1
  C  598  1  0.73428050  0.95317800  0.35649250  1
  C  599  1  0.71420800  0.91408500  0.33578600  1
  C  600  1  0.71601850  0.89448050  0.35510800  1
  C  604  1  0.73690600  0.89388950  0.41332450  1
  C  605  1  0.71601900  0.89195500  0.43135100  1
  C  606  1  0.71420050  0.87054250  0.44886600  1
  C  607  1  0.73425650  0.85150550  0.44822800  1
  C  608  1  0.75572950  0.85352950  0.43080200  1
  C  609  1  0.75660300  0.87473800  0.41314700  1
  C  613  1  0.32805250  0.68958650  0.20901000  1
  C  614  1  0.30832600  0.68974800  0.22813500  1
  C  615  1  0.30905800  0.67195600  0.24921300  1
  C  616  1  0.33040400  0.65439500  0.25113200  1
  C  617  1  0.35050800  0.65380400  0.23215400  1
  C  618  1  0.34884800  0.67146000  0.21086900  1
  C  622  1  0.32805650  0.70889750  0.18948400  1
  C  623  1  0.34885600  0.74782000  0.20842500  1
  C  624  1  0.35052250  0.76712950  0.18879400  1
  C  625  1  0.33041250  0.74644600  0.14971350  1
  C  626  1  0.30906150  0.70753950  0.13028600  1
  C  627  1  0.30832950  0.68901400  0.15063250  1
  C  631  1  0.55169400  0.41376650  0.70899250  1
  C  632  1  0.57066150  0.41359200  0.68911050  1
  C  633  1  0.60953033  0.43132483  0.70763750  1
  C  634  1  0.62899050  0.44881750  0.74654100  1
  C  635  1  0.61060200  0.44941150  0.76724250  1
  C  636  1  0.57166750  0.43183800  0.74791050  1
  C  640  1  0.51285950  0.39438350  0.68968500  1
  C  641  1  0.49297150  0.35547050  0.67172800  1
  C  642  1  0.45404050  0.33608550  0.65414300  1
  C  643  1  0.43555150  0.35668500  0.65464150  1
  C  644  1  0.45493800  0.39558300  0.67203000  1
  C  645  1  0.49380900  0.41418550  0.68976750  1
  C  865  1  0.41061800  0.79366850  0.83358150  1
  C  866  1  0.42035150  0.83119000  0.85076450  1
  C  867  1  0.42003750  0.85001300  0.83119550  1
  C  868  1  0.40969500  0.83272100  0.79353400  1
  C  869  1  0.39931300  0.79492350  0.77598650  1
  C  870  1  0.39977600  0.77572100  0.79566800  1
  C  875  1  0.43874550  0.88631400  0.88729150  1
  C  877  1  0.65431900  0.45514300  0.41566300  1
  C  878  1  0.64447850  0.46262150  0.44336800  1
  C  879  1  0.64451450  0.44325900  0.46239950  1
  C  880  1  0.65459150  0.41573950  0.45536500  1
  C  881  1  0.66510900  0.40856800  0.42805400  1
  C  882  1  0.66495300  0.42791350  0.40851150  1
  C  887  1  0.62605800  0.48088750  0.48002650  1
  C  889  1  0.07195700  0.30901850  0.68732350  1
  C  890  1  0.05166850  0.27144450  0.65967900  1
  C  891  1  0.01327600  0.25252650  0.64063250  1
  C  892  1  0.99285200  0.26976600  0.64753900  1
  C  893  1  0.01305200  0.30761200  0.67481400  1
  C  894  1  0.05193700  0.32691150  0.69439150  1
  C  899  1  0.03316700  0.21629250  0.62313750  1
  C  901  1  0.99270050  0.64756700  0.26928550  1
  C  902  1  0.01297700  0.64018350  0.25199450  1
  C  903  1  0.05137000  0.65950600  0.27146500  1
  C  904  1  0.07180700  0.68690100  0.30910500  1
  C  905  1  0.05161900  0.69398500  0.32676300  1
  C  906  1  0.01273300  0.67467050  0.30719250  1
  C  911  1  0.03145850  0.62207150  0.21534400  1
  C  913  1  0.62843850  0.26899550  0.01146400  1
  C  914  1  0.62102550  0.25180100  0.03180450  1
  C  915  1  0.64029700  0.27136750  0.07019750  1
  C  916  1  0.66760050  0.30903950  0.09056900  1
  C  917  1  0.67473000  0.32659000  0.07031100  1
  C  918  1  0.65550000  0.30691250  0.03142650  1
  C  923  1  0.60292950  0.21526350  0.05040100  1
  C  925  1  0.29014150  0.68732050  0.09115900  1
  C  926  1  0.25259700  0.65961300  0.07091400  1
  C  927  1  0.23364350  0.64053200  0.03252150  1
  C  928  1  0.25080000  0.64751300  0.01205400  1
  C  929  1  0.28863150  0.67482500  0.03221550  1
  C  930  1  0.30797400  0.69442000  0.07110200  1
  C  935  1  0.19750450  0.62296900  0.05248950  1
  C  937  1  0.43593950  0.41571800  0.67323950  1
  C  938  1  0.44329850  0.44335100  0.66329550  1
  C  939  1  0.42389150  0.46233750  0.66332400  1
  C  940  1  0.39649200  0.45537450  0.67356150  1
  C  941  1  0.38941800  0.42811850  0.68415550  1
  C  942  1  0.40878850  0.40860400  0.68398050  1
  C  947  1  0.46135900  0.47988850  0.64468550  1
  C  949  1  0.77461000  0.83327800  0.42946600  1
  C  950  1  0.81216300  0.85055450  0.43931850  1
  C  951  1  0.83108200  0.83108250  0.43915450  1
  C  952  1  0.81388800  0.79345200  0.42894400  1
  C  953  1  0.77605750  0.77580500  0.41842650  1
  C  954  1  0.75674450  0.79537750  0.41869400  1
  C  959  1  0.86727900  0.88718850  0.45779050  1
  C  961  1  0.66846700  0.09142850  0.30916350  1
  C  962  1  0.64072900  0.07112600  0.27162600  1
  C  963  1  0.62160450  0.03273400  0.25275950  1
  C  964  1  0.62851300  0.01232700  0.27002000  1
  C  965  1  0.65588100  0.03254600  0.30783300  1
  C  966  1  0.67554300  0.07143100  0.32708100  1
  C  971  1  0.60407350  0.05259350  0.21650300  1
  C  973  1  0.25021200  0.01171800  0.64759800  1
  C  974  1  0.23295700  0.03200450  0.64015950  1
  C  975  1  0.25244000  0.07039600  0.65947500  1
  C  976  1  0.29006800  0.09082700  0.68691400  1
  C  977  1  0.30768750  0.07062250  0.69404900  1
  C  978  1  0.28809950  0.03173600  0.67474650  1
  C  983  1  0.19634900  0.05049750  0.62196050  1
  C  985  1  0.81422250  0.42955550  0.79375100  1
  C  986  1  0.83145650  0.43942700  0.83131250  1
  C  987  1  0.81193350  0.43924400  0.85018350  1
  C  988  1  0.77427400  0.42891450  0.83290550  1
  C  989  1  0.75667700  0.41839850  0.79507350  1
  C  990  1  0.77630950  0.41872350  0.77582100  1
  C  995  1  0.86803950  0.45797800  0.88646750  1
  C  997  1  0.39671450  0.67343250  0.45519300  1
  C  998  1  0.42436000  0.66351000  0.46261900  1
  C  999  1  0.44338150  0.66352100  0.44324850  1
  C  1000  1  0.43638900  0.67364350  0.41576150  1
  C  1001  1  0.40913700  0.68424100  0.40863800  1
  C  1002  1  0.38961200  0.68411950  0.42800050  1
  C  1007  1  0.46093050  0.64497100  0.48080850  1
  C  1009  1  0.41058750  0.68741950  0.64752100  1
  C  1010  1  0.42032000  0.65963000  0.64006900  1
  C  1011  1  0.42000400  0.64049150  0.65932250  1
  C  1012  1  0.40966150  0.64744100  0.68664250  1
  C  1013  1  0.39928450  0.67485850  0.69381200  1
  C  1014  1  0.39974800  0.69452600  0.67459500  1
  C  1019  1  0.43871400  0.62290100  0.62193600  1
  C  1021  1  0.65432950  0.26966900  0.30910650  1
  C  1022  1  0.64448350  0.25234850  0.27156000  1
  C  1023  1  0.64451050  0.27174250  0.25256100  1
  C  1024  1  0.65458350  0.30933800  0.26966950  1
  C  1025  1  0.66510750  0.32703050  0.30750200  1
  C  1026  1  0.66496000  0.30753300  0.32689100  1
  C  1031  1  0.62605700  0.21565750  0.21647850  1
  C  1033  1  0.07197500  0.83341200  0.45510900  1
  C  1034  1  0.05168450  0.85069400  0.46246650  1
  C  1035  1  0.01329200  0.83121600  0.44312400  1
  C  1036  1  0.99287000  0.79355100  0.41579500  1
  C  1037  1  0.01307100  0.77590850  0.40871850  1
  C  1038  1  0.05195750  0.79549850  0.42802300  1
  C  1043  1  0.03317750  0.88733950  0.48050700  1
  C  1045  1  0.99268250  0.41558500  0.79385250  1
  C  1046  1  0.01296100  0.44325250  0.83141750  1
  C  1047  1  0.05135450  0.46232550  0.85033700  1
  C  1048  1  0.07178950  0.45536650  0.83313100  1
  C  1049  1  0.05159850  0.42808700  0.79528850  1
  C  1050  1  0.01271050  0.40851000  0.77597550  1
  C  1055  1  0.03144550  0.47985150  0.88654800  1
  C  1057  1  0.62843250  0.42991600  0.68741450  1
  C  1058  1  0.62102150  0.43970400  0.65966550  1
  C  1059  1  0.64029950  0.43942000  0.64055050  1
  C  1060  1  0.66760650  0.42905750  0.64748500  1
  C  1061  1  0.67473200  0.41862500  0.67486500  1
  C  1062  1  0.65549600  0.41906200  0.69451300  1
  C  1067  1  0.60292950  0.45815300  0.62298250  1
  C  1069  1  0.29014200  0.67326200  0.26942500  1
  C  1070  1  0.25259800  0.66342900  0.25212900  1
  C  1071  1  0.23364750  0.66356450  0.27157100  1
  C  1072  1  0.25080650  0.67374150  0.30919600  1
  C  1073  1  0.28863700  0.68425400  0.32686200  1
  C  1074  1  0.30797550  0.68399400  0.30731450  1
  C  1079  1  0.19750500  0.64498850  0.21546550  1
  C  1081  1  0.43594300  0.09069700  0.83316300  1
  C  1082  1  0.44330350  0.07042850  0.85047400  1
  C  1083  1  0.42389500  0.03203450  0.83104550  1
  C  1084  1  0.39649100  0.01159250  0.79340850  1
  C  1085  1  0.38941500  0.03176950  0.77573450  1
  C  1086  1  0.40878850  0.07065650  0.79527300  1
  C  1091  1  0.46136950  0.05196300  0.88715250  1
  C  1093  1  0.77463750  0.01174650  0.41561700  1
  C  1094  1  0.81219100  0.03202500  0.44331400  1
  C  1095  1  0.83110700  0.07041700  0.46240100  1
  C  1096  1  0.81390650  0.09085100  0.45542650  1
  C  1097  1  0.77607350  0.07066450  0.42812300  1
  C  1098  1  0.75676450  0.03177850  0.40853600  1
  C  1103  1  0.86731350  0.05051200  0.47994850  1
  C  1105  1  0.66846350  0.64752300  0.42976250  1
  C  1106  1  0.64072950  0.64008400  0.43956750  1
  C  1107  1  0.62160750  0.65935350  0.43932400  1
  C  1108  1  0.62851700  0.68667950  0.42898350  1
  C  1109  1  0.65588050  0.69383150  0.41853100  1
  C  1110  1  0.67553800  0.67460350  0.41893150  1
  C  1115  1  0.60407800  0.62195200  0.45803700  1
  C  1117  1  0.25019450  0.30894700  0.67307250  1
  C  1118  1  0.23294200  0.27140550  0.66325750  1
  C  1119  1  0.25243050  0.25250050  0.66342600  1
  C  1120  1  0.29005500  0.26969850  0.67361650  1
  C  1121  1  0.30767550  0.30752450  0.68410300  1
  C  1122  1  0.28808450  0.32682000  0.68381450  1
  C  1127  1  0.19633750  0.21630250  0.64484600  1
  C  1129  1  0.81423500  0.45513450  0.09093450  1
  C  1130  1  0.83146350  0.46249900  0.07060450  1
  C  1131  1  0.81193600  0.44316300  0.03221100  1
  C  1132  1  0.77427600  0.41583550  0.01183050  1
  C  1133  1  0.75668350  0.40875400  0.03206850  1
  C  1134  1  0.77632100  0.42805700  0.07095400  1
  C  1139  1  0.86804350  0.48053200  0.05202850  1
  C  1141  1  0.39671750  0.79375550  0.01202400  1
  C  1142  1  0.42436100  0.83132550  0.03224650  1
  C  1143  1  0.44337900  0.85033350  0.07063850  1
  C  1144  1  0.43638600  0.83321600  0.09113000  1
  C  1145  1  0.40913500  0.79536650  0.07100050  1
  C  1146  1  0.38961300  0.77596450  0.03211350  1
  C  1151  1  0.46092850  0.88643400  0.05063050  1
  C  1441  1  0.22312350  0.89640350  0.64952300  1
  C  1442  1  0.22656100  0.90716850  0.68484650  1
  C  1443  1  0.25467850  0.90827000  0.71222150  1
  C  1444  1  0.27888850  0.89657300  0.70537450  1
  C  1445  1  0.27027200  0.87879150  0.66812650  1
  C  1446  1  0.24308050  0.87912850  0.64069500  1
  C  1451  1  0.23099650  0.93675750  0.73590900  1
  C  1453  1  0.84095050  0.45818800  0.70524050  1
  C  1454  1  0.83744700  0.49004400  0.71248800  1
  C  1455  1  0.80935600  0.48924550  0.68537650  1
  C  1456  1  0.78497350  0.45792350  0.64964600  1
  C  1457  1  0.79363600  0.42934500  0.64059600  1
  C  1458  1  0.82112950  0.42934900  0.66805150  1
  C  1463  1  0.83318700  0.53688000  0.73750900  1
  C  1465  1  0.78577700  0.20658300  0.39743800  1
  C  1466  1  0.81030050  0.19570550  0.39017900  1
  C  1467  1  0.83635600  0.19439150  0.41718450  1
  C  1468  1  0.84106100  0.20602050  0.45303950  1
  C  1469  1  0.82171700  0.22397400  0.46217200  1
  C  1470  1  0.79413100  0.22382050  0.43464050  1
  C  1475  1  0.83170500  0.16598000  0.36507500  1
  C  1477  1  0.27952800  0.64474950  0.45331450  1
  C  1478  1  0.25498050  0.61280550  0.41801000  1
  C  1479  1  0.22853750  0.61342850  0.39066400  1
  C  1480  1  0.22397500  0.64465550  0.39751950  1
  C  1481  1  0.24346300  0.67331450  0.43472250  1
  C  1482  1  0.27103350  0.67348200  0.46226450  1
  C  1487  1  0.23327050  0.56593050  0.36698600  1
  C  1489  1  0.62527000  0.45322400  0.29841700  1
  C  1490  1  0.59333250  0.41793300  0.27387950  1
  C  1491  1  0.59396600  0.39051600  0.24753600  1
  C  1492  1  0.62498950  0.39733200  0.24264150  1
  C  1493  1  0.65368750  0.43453750  0.26207800  1
  C  1494  1  0.65401500  0.46199450  0.28990650  1
  C  1499  1  0.54664900  0.36692400  0.25244000  1
  C  1501  1  0.18724650  0.39751800  0.80446050  1
  C  1502  1  0.17649250  0.39023850  0.82906000  1
  C  1503  1  0.17555050  0.41732500  0.85544050  1
  C  1504  1  0.18695350  0.45309350  0.85994600  1
  C  1505  1  0.20470000  0.46219250  0.84046050  1
  C  1506  1  0.20468650  0.43475000  0.81294450  1
  C  1511  1  0.14716750  0.36514350  0.85080700  1
  C  1513  1  0.43960100  0.70535700  0.86037000  1
  C  1514  1  0.47137100  0.71257700  0.85674300  1
  C  1515  1  0.47034500  0.68553800  0.82838400  1
  C  1516  1  0.43914350  0.64972500  0.80415550  1
  C  1517  1  0.41062300  0.64065000  0.81293400  1
  C  1518  1  0.41064650  0.66820750  0.84036300  1
  C  1523  1  0.51787650  0.73759150  0.85208500  1
  C  1525  1  0.87741650  0.64946150  0.24251800  1
  C  1526  1  0.88818700  0.68480050  0.24596650  1
  C  1527  1  0.88911150  0.71209950  0.27400100  1
  C  1528  1  0.87769900  0.70520650  0.29836650  1
  C  1529  1  0.85996750  0.66796200  0.28970750  1
  C  1530  1  0.85996800  0.64045000  0.26227400  1
  C  1535  1  0.91752450  0.73588150  0.25023400  1
  C  1537  1  0.37834100  0.80463200  0.20639800  1
  C  1538  1  0.37093950  0.82914600  0.19559650  1
  C  1539  1  0.39790250  0.85545150  0.19447300  1
  C  1540  1  0.43383200  0.86037900  0.20619700  1
  C  1541  1  0.44309050  0.84097650  0.22402100  1
  C  1542  1  0.41560550  0.81318500  0.22370450  1
  C  1547  1  0.34567250  0.85051200  0.16593950  1
  C  1549  1  0.43425300  0.29864900  0.64472700  1
  C  1550  1  0.39894950  0.27402350  0.61278600  1
  C  1551  1  0.37162950  0.24755000  0.61340750  1
  C  1552  1  0.37850100  0.24302200  0.64465300  1
  C  1553  1  0.41570100  0.26257450  0.67332450  1
  C  1554  1  0.44320400  0.29016550  0.67347350  1
  C  1559  1  0.34791650  0.25220150  0.56586300  1
  C  1561  1  0.63050450  0.24208500  0.89626250  1
  C  1562  1  0.66590400  0.24571950  0.90709950  1
  C  1563  1  0.69322250  0.27403700  0.90835750  1
  C  1564  1  0.68625150  0.29824100  0.89672250  1
  C  1565  1  0.64894300  0.28943050  0.87886250  1
  C  1566  1  0.62155750  0.26205200  0.87905950  1
  C  1571  1  0.71707500  0.25039300  0.93677500  1
  C  1573  1  0.68613800  0.86001700  0.45821200  1
  C  1574  1  0.69345450  0.85652700  0.49007450  1
  C  1575  1  0.66636100  0.82841450  0.48927450  1
  C  1576  1  0.63061800  0.80403150  0.45796350  1
  C  1577  1  0.62152850  0.81270650  0.42939400  1
  C  1578  1  0.64895450  0.84021150  0.42938000  1
  C  1583  1  0.71851700  0.85223000  0.53686900  1
  C  1585  1  0.22310900  0.39717150  0.64405550  1
  C  1586  1  0.22655350  0.38985000  0.61217550  1
  C  1587  1  0.25467550  0.41686850  0.61292500  1
  C  1588  1  0.27888050  0.45277400  0.64398350  1
  C  1589  1  0.27025650  0.46193450  0.67261000  1
  C  1590  1  0.24306050  0.43440250  0.67284200  1
  C  1595  1  0.23100150  0.36470300  0.56555350  1
  C  1597  1  0.84095750  0.45322600  0.20617050  1
  C  1598  1  0.83744550  0.41786350  0.19541700  1
  C  1599  1  0.80934450  0.39057300  0.19443150  1
  C  1600  1  0.78496350  0.39752050  0.20577800  1
  C  1601  1  0.79363800  0.43476600  0.22349800  1
  C  1602  1  0.82114050  0.46225050  0.22353900  1
  C  1607  1  0.83316800  0.36676000  0.16613100  1
  C  1609  1  0.78576650  0.64966250  0.45879000  1
  C  1610  1  0.81029750  0.68504250  0.49060000  1
  C  1611  1  0.83640450  0.71241950  0.48970400  1
  C  1612  1  0.84114500  0.70552000  0.45858300  1
  C  1613  1  0.82174450  0.66824050  0.43003700  1
  C  1614  1  0.79412500  0.64080350  0.42994250  1
  C  1619  1  0.83170650  0.73615750  0.53713300  1
  C  1621  1  0.27955000  0.70526650  0.89671050  1
  C  1622  1  0.25499500  0.71265850  0.90745650  1
  C  1623  1  0.22853800  0.68558500  0.90834000  1
  C  1624  1  0.22396950  0.64979250  0.89691400  1
  C  1625  1  0.24346900  0.64062950  0.87921050  1
  C  1626  1  0.27105250  0.66803950  0.87925900  1
  C  1631  1  0.23327300  0.73781500  0.93676100  1
  C  1633  1  0.62530600  0.24255000  0.39732100  1
  C  1634  1  0.59336550  0.24589650  0.38992300  1
  C  1635  1  0.59399750  0.27394600  0.41689750  1
  C  1636  1  0.62502500  0.29816150  0.45281450  1
  C  1637  1  0.65372750  0.28965900  0.46207450  1
  C  1638  1  0.65405600  0.26253050  0.43457350  1
  C  1643  1  0.54667550  0.25021450  0.36468000  1
  C  1645  1  0.18726050  0.86019900  0.45325450  1
  C  1646  1  0.17650650  0.85672750  0.41790200  1
  C  1647  1  0.17556850  0.82870350  0.39057700  1
  C  1648  1  0.18697050  0.80433600  0.39747050  1
  C  1649  1  0.20470950  0.81297500  0.43469950  1
  C  1650  1  0.20469800  0.84040250  0.46220550  1
  C  1655  1  0.14719150  0.85251250  0.36683600  1
  C  1657  1  0.43959350  0.80471850  0.64971900  1
  C  1658  1  0.47136800  0.82926350  0.68511150  1
  C  1659  1  0.47035200  0.85528250  0.71245050  1
  C  1660  1  0.43915500  0.85990200  0.70548400  1
  C  1661  1  0.41062950  0.84045950  0.66818800  1
  C  1662  1  0.41064400  0.81292100  0.64077700  1
  C  1667  1  0.51787550  0.85074950  0.73627000  1
  C  1669  1  0.87740100  0.29839650  0.70536550  1
  C  1670  1  0.88817800  0.27383600  0.71269500  1
  C  1671  1  0.88910350  0.24745800  0.68558850  1
  C  1672  1  0.87768200  0.24292650  0.64980450  1
  C  1673  1  0.85994250  0.26243350  0.64072600  1
  C  1674  1  0.85994350  0.28994850  0.66815700  1
  C  1679  1  0.91752950  0.25210500  0.73777250  1
  C  1681  1  0.37833300  0.64413300  0.24239400  1
  C  1682  1  0.37094150  0.61223500  0.24582350  1
  C  1683  1  0.39790950  0.61292450  0.27393600  1
  C  1684  1  0.43384000  0.64393650  0.29815050  1
  C  1685  1  0.44308050  0.67256000  0.28953250  1
  C  1686  1  0.41559550  0.67284450  0.26234100  1
  C  1691  1  0.34568550  0.56562100  0.25024150  1
  C  1693  1  0.43426350  0.20608400  0.85999250  1
  C  1694  1  0.39896200  0.19540600  0.85663400  1
  C  1695  1  0.37163850  0.19455650  0.82869400  1
  C  1696  1  0.37850400  0.20595450  0.80431650  1
  C  1697  1  0.41570400  0.22360650  0.81284350  1
  C  1698  1  0.44321050  0.22352000  0.84019650  1
  C  1703  1  0.34793150  0.16619300  0.85252850  1
  C  1705  1  0.63049550  0.45887850  0.80468100  1
  C  1706  1  0.66589300  0.49064600  0.82924400  1
  C  1707  1  0.69321050  0.48965300  0.85530950  1
  C  1708  1  0.68624450  0.45848050  0.85997900  1
  C  1709  1  0.64893650  0.42997850  0.84052600  1
  C  1710  1  0.62154900  0.42996350  0.81293650  1
  C  1715  1  0.71705950  0.53714950  0.85074300  1
  C  1717  1  0.68613450  0.89656700  0.29838650  1
  C  1718  1  0.69344300  0.90738400  0.27384100  1
  C  1719  1  0.66635350  0.90842600  0.24757250  1
  C  1720  1  0.63061700  0.89707650  0.24315550  1
  C  1721  1  0.62153000  0.87930450  0.26263050  1
  C  1722  1  0.64895600  0.87920600  0.29005200  1
  C  1727  1  0.71850200  0.93674900  0.25211300  1
  H  7  1  0.37929700  0.87491200  0.78966700  1
  H  8  1  0.41057100  0.90413050  0.71945650  1
  H  9  1  0.43928550  0.83370750  0.75082400  1
  H  16  1  0.32124050  0.86610900  0.71943750  1
  H  17  1  0.32417150  0.96803300  0.75074950  1
  H  18  1  0.42284000  0.96541150  0.78966150  1
  H  25  1  0.68462750  0.44209750  0.52789700  1
  H  26  1  0.65320350  0.34051950  0.52563300  1
  H  27  1  0.62491500  0.34341350  0.42663650  1
  H  34  1  0.74248300  0.42956200  0.57688000  1
  H  35  1  0.73988500  0.45839050  0.67603250  1
  H  36  1  0.64105700  0.39876400  0.57489700  1
  H  43  1  0.94677750  0.22735700  0.57498250  1
  H  44  1  0.84737100  0.19844300  0.57704900  1
  H  45  1  0.94917500  0.26894000  0.67615600  1
  H  52  1  0.88543850  0.23633350  0.52581800  1
  H  53  1  0.81488150  0.13448950  0.42674400  1
  H  54  1  0.85627450  0.13696500  0.52797750  1
  H  61  1  0.11789250  0.66043400  0.31274050  1
  H  62  1  0.21728550  0.76190100  0.38326250  1
  H  63  1  0.11549300  0.75920500  0.35197100  1
  H  70  1  0.17936800  0.67281400  0.38324500  1
  H  71  1  0.24995000  0.64428800  0.35204500  1
  H  72  1  0.20833550  0.70382750  0.31279800  1
  H  79  1  0.64104250  0.31278650  0.13660000  1
  H  80  1  0.74246400  0.38339850  0.23604850  1
  H  81  1  0.73987900  0.35197750  0.13430450  1
  H  88  1  0.65317150  0.38315700  0.19800350  1
  H  89  1  0.62489250  0.35197500  0.26871650  1
  H  90  1  0.68461950  0.31302150  0.22717700  1
  H  97  1  0.20831850  0.57495900  0.96597050  1
  H  98  1  0.17935600  0.57702800  0.86656800  1
  H  99  1  0.24994100  0.67612150  0.96835950  1
  H  106  1  0.21726900  0.52584500  0.90446700  1
  H  107  1  0.11547350  0.42674650  0.83395600  1
  H  108  1  0.11787500  0.52791950  0.87557650  1
  H  115  1  0.42283300  0.52790400  0.70366500  1
  H  116  1  0.32122800  0.52559300  0.67228200  1
  H  117  1  0.32417100  0.42660450  0.64389650  1
  H  124  1  0.41056400  0.57691300  0.76160200  1
  H  125  1  0.43926150  0.67604850  0.75894500  1
  H  126  1  0.37927250  0.57485300  0.66011550  1
  H  133  1  0.85624550  0.78970400  0.39874950  1
  H  134  1  0.88551300  0.71959200  0.43016100  1
  H  135  1  0.81490050  0.75081250  0.45863000  1
  H  142  1  0.84738900  0.71936650  0.34081350  1
  H  143  1  0.94918900  0.75069850  0.34350250  1
  H  144  1  0.94679950  0.78987450  0.44228400  1
  H  151  1  0.55592550  0.96631850  0.22769700  1
  H  152  1  0.55786200  0.86684500  0.19873700  1
  H  153  1  0.65703600  0.96856950  0.26916250  1
  H  160  1  0.50663600  0.90496500  0.23660900  1
  H  161  1  0.40764050  0.83419600  0.13471850  1
  H  162  1  0.50890750  0.87572300  0.13729750  1
  H  169  1  0.29373550  0.13691100  0.66043850  1
  H  170  1  0.36429900  0.23631400  0.76189800  1
  H  171  1  0.33296200  0.13452300  0.75921300  1
  H  178  1  0.36430150  0.19845750  0.67286900  1
  H  179  1  0.33295200  0.26890500  0.64421300  1
  H  180  1  0.29373000  0.22728350  0.70375950  1
  H  187  1  0.77043400  0.39867300  0.87521800  1
  H  188  1  0.70019150  0.43000550  0.90431000  1
  H  189  1  0.73160150  0.45856100  0.83382250  1
  H  196  1  0.70019700  0.34067100  0.86634400  1
  H  197  1  0.73160400  0.34351700  0.96823800  1
  H  198  1  0.77043150  0.44224250  0.96568300  1
  H  205  1  0.50891050  0.70366750  0.44211800  1
  H  206  1  0.50664100  0.67216550  0.34053650  1
  H  207  1  0.40764350  0.64391050  0.34343000  1
  H  214  1  0.55786500  0.76150850  0.42963850  1
  H  215  1  0.65703900  0.75895950  0.45837150  1
  H  216  1  0.55593100  0.66010000  0.39872800  1
  H  439  1  0.68496800  0.22778100  0.31306400  1
  H  440  1  0.65417300  0.19860150  0.38351550  1
  H  441  1  0.62438800  0.26826750  0.35160150  1
  H  448  1  0.74326700  0.23689350  0.38355350  1
  H  449  1  0.74090200  0.13520400  0.35162900  1
  H  450  1  0.64192850  0.13737650  0.31301800  1
  H  457  1  0.38031000  0.66090900  0.57504100  1
  H  458  1  0.41113250  0.76226350  0.57690000  1
  H  459  1  0.44054500  0.75986150  0.67619250  1
  H  466  1  0.32213150  0.67333000  0.52608550  1
  H  467  1  0.32430250  0.64373500  0.42666950  1
  H  468  1  0.42337300  0.70390750  0.52771450  1
  H  475  1  0.11782550  0.87554850  0.52762100  1
  H  476  1  0.21746000  0.90444050  0.52602950  1
  H  477  1  0.11586300  0.83460950  0.42658750  1
  H  484  1  0.17909100  0.86624250  0.57672050  1
  H  485  1  0.24880550  0.96783700  0.67615550  1
  H  486  1  0.20821050  0.96585600  0.57508050  1
  H  493  1  0.94680000  0.44221200  0.79013300  1
  H  494  1  0.84720450  0.34096050  0.71945500  1
  H  495  1  0.94880950  0.34316600  0.75116050  1
  H  502  1  0.88534000  0.42980450  0.71938850  1
  H  503  1  0.81540200  0.45926700  0.75105000  1
  H  504  1  0.85646750  0.39929550  0.79012200  1
  H  511  1  0.42338800  0.78994600  0.96617100  1
  H  512  1  0.32215450  0.71929900  0.86654450  1
  H  513  1  0.32430500  0.75103500  0.96812400  1
  H  520  1  0.41114650  0.71935450  0.90473300  1
  H  521  1  0.44056550  0.75117550  0.83486100  1
  H  522  1  0.38034550  0.78990450  0.87578700  1
  H  529  1  0.85648700  0.52763800  0.13681100  1
  H  530  1  0.88536000  0.52599850  0.23641650  1
  H  531  1  0.81541150  0.42659950  0.13481300  1
  H  538  1  0.84722350  0.57670250  0.19822800  1
  H  539  1  0.94882350  0.67610550  0.26811600  1
  H  540  1  0.94682250  0.57505600  0.22712050  1
  H  547  1  0.64191450  0.57503550  0.39934700  1
  H  548  1  0.74324700  0.57684250  0.43013850  1
  H  549  1  0.74089900  0.67617650  0.45972950  1
  H  556  1  0.65413800  0.52604000  0.34108300  1
  H  557  1  0.62436200  0.42659350  0.34322350  1
  H  558  1  0.68495600  0.52766800  0.44233600  1
  H  565  1  0.20818800  0.31280400  0.70358300  1
  H  566  1  0.17907050  0.38329650  0.67282000  1
  H  567  1  0.24878950  0.35141900  0.64310650  1
  H  574  1  0.21744150  0.38346800  0.76188050  1
  H  575  1  0.11584700  0.35171400  0.75973000  1
  H  576  1  0.11780450  0.31273050  0.66065900  1
  H  583  1  0.50847950  0.13648350  0.87522900  1
  H  584  1  0.50701650  0.23618250  0.90417100  1
  H  585  1  0.40750950  0.13466150  0.83437700  1
  H  592  1  0.55769400  0.19785000  0.86600100  1
  H  593  1  0.65704900  0.26765350  0.96764050  1
  H  594  1  0.55594500  0.22685750  0.96554950  1
  H  601  1  0.77091600  0.96581700  0.44218300  1
  H  602  1  0.70023550  0.86627750  0.34088600  1
  H  603  1  0.73194800  0.96792350  0.34319850  1
  H  610  1  0.70024850  0.90438900  0.42979850  1
  H  611  1  0.73192200  0.83443500  0.45919800  1
  H  612  1  0.77088900  0.87546750  0.39915550  1
  H  619  1  0.29408700  0.70378650  0.22744650  1
  H  620  1  0.36455850  0.67293550  0.19837100  1
  H  621  1  0.33258300  0.64326000  0.26806100  1
  H  628  1  0.36456750  0.76205550  0.23663500  1
  H  629  1  0.33259550  0.75976600  0.13497050  1
  H  630  1  0.29408550  0.66073700  0.13707950  1
  H  637  1  0.55593650  0.39955650  0.66083300  1
  H  638  1  0.55768450  0.43029950  0.76213100  1
  H  639  1  0.65704100  0.45985850  0.75984750  1
  H  646  1  0.50700450  0.34129700  0.67328850  1
  H  647  1  0.40750200  0.34331900  0.64359100  1
  H  648  1  0.50847450  0.44246300  0.70369350  1
  H  871  1  0.39185350  0.74836300  0.78191750  1
  H  872  1  0.39110950  0.78091750  0.74857600  1
  H  876  1  0.44861600  0.91009850  0.91068250  1
  H  883  1  0.67293250  0.42205500  0.38912350  1
  H  884  1  0.67316750  0.38924650  0.42221800  1
  H  888  1  0.61570400  0.49408950  0.49351850  1
  H  895  1  0.06550850  0.35430250  0.71372600  1
  H  896  1  0.99960900  0.32158800  0.68056800  1
  H  900  1  0.03282350  0.19251850  0.60929500  1
  H  907  1  0.99917000  0.68045200  0.32101600  1
  H  908  1  0.06506900  0.71321150  0.35417150  1
  H  912  1  0.03179500  0.60895550  0.19179650  1
  H  919  1  0.66129700  0.32066750  0.01781350  1
  H  920  1  0.69391200  0.35400800  0.08370900  1
  H  924  1  0.58941800  0.19186950  0.05079250  1
  H  931  1  0.33534400  0.71380400  0.08464400  1
  H  932  1  0.30255900  0.68062250  0.01874550  1
  H  936  1  0.17364300  0.60949300  0.05218000  1
  H  943  1  0.40301800  0.38927350  0.69204250  1
  H  944  1  0.37017150  0.42232750  0.69231300  1
  H  948  1  0.47488100  0.49373800  0.63477300  1
  H  955  1  0.72937100  0.78156500  0.41069700  1
  H  956  1  0.76211500  0.74840700  0.41028600  1
  H  960  1  0.89115850  0.91073100  0.46819950  1
  H  967  1  0.69494300  0.08501650  0.35444850  1
  H  968  1  0.66164950  0.01912050  0.32182500  1
  H  972  1  0.59019000  0.05223050  0.19272850  1
  H  979  1  0.30189850  0.01816350  0.68056800  1
  H  980  1  0.33508500  0.08406150  0.71330350  1
  H  984  1  0.17281900  0.05084200  0.60879700  1
  H  991  1  0.76252500  0.41071000  0.74844000  1
  H  992  1  0.72926500  0.41019400  0.78107800  1
  H  996  1  0.89145150  0.46789900  0.91025750  1
  H  1003  1  0.37027050  0.69215850  0.42217700  1
  H  1004  1  0.40333350  0.69233100  0.38933750  1
  H  1008  1  0.47437300  0.63456200  0.49396900  1
  H  1015  1  0.39182650  0.71396400  0.68042350  1
  H  1016  1  0.39108350  0.68066250  0.71302100  1
  H  1020  1  0.44858550  0.60898900  0.60841450  1
  H  1027  1  0.67294350  0.32137300  0.35425850  1
  H  1028  1  0.67316150  0.35440950  0.32139300  1
  H  1032  1  0.61570250  0.19210250  0.19263600  1
  H  1039  1  0.06553150  0.78168150  0.42226000  1
  H  1040  1  0.99963100  0.74848850  0.38952450  1
  H  1044  1  0.03283350  0.91077050  0.49400600  1
  H  1051  1  0.99914850  0.38916150  0.74859200  1
  H  1052  1  0.06504650  0.42230750  0.78132800  1
  H  1056  1  0.03178500  0.49330850  0.91043350  1
  H  1063  1  0.66129050  0.41109900  0.71391850  1
  H  1064  1  0.69391300  0.41038900  0.68064600  1
  H  1068  1  0.58941850  0.46803950  0.60908100  1
  H  1075  1  0.33534600  0.69197650  0.32113850  1
  H  1076  1  0.30256600  0.69238500  0.35425900  1
  H  1080  1  0.17364500  0.63460800  0.19191700  1
  H  1087  1  0.40301450  0.08420950  0.78143700  1
  H  1088  1  0.37016500  0.01830850  0.74833050  1
  H  1092  1  0.47489650  0.05164100  0.91058950  1
  H  1099  1  0.72938800  0.01821650  0.38916550  1
  H  1100  1  0.76212300  0.08411600  0.42232600  1
  H  1104  1  0.89119750  0.05085200  0.49341050  1
  H  1111  1  0.69493700  0.68042250  0.41096150  1
  H  1112  1  0.66164450  0.71302800  0.41031150  1
  H  1116  1  0.59019650  0.60842350  0.46792400  1
  H  1123  1  0.30188100  0.35418950  0.69179050  1
  H  1124  1  0.33507350  0.32148450  0.69224700  1
  H  1128  1  0.17281000  0.19242800  0.63447900  1
  H  1135  1  0.76253750  0.42228450  0.08455200  1
  H  1136  1  0.72927200  0.38954750  0.01865450  1
  H  1140  1  0.89145350  0.49402200  0.05164850  1
  H  1147  1  0.37027200  0.74858200  0.01859200  1
  H  1148  1  0.40333050  0.78147150  0.08449500  1
  H  1152  1  0.47437350  0.91028800  0.05091550  1
  H  1447  1  0.24289650  0.87253700  0.61617250  1
  H  1448  1  0.28820600  0.87214150  0.66180450  1
  H  1452  1  0.22791150  0.95322050  0.75568100  1
  H  1459  1  0.82148100  0.40510800  0.66182400  1
  H  1460  1  0.77576800  0.40509050  0.61598850  1
  H  1464  1  0.83510400  0.55875100  0.75716800  1
  H  1471  1  0.77622300  0.23050400  0.44100400  1
  H  1472  1  0.82195200  0.23060000  0.48671000  1
  H  1476  1  0.83502200  0.14950100  0.34554700  1
  H  1483  1  0.28901100  0.69777300  0.48681500  1
  H  1484  1  0.24298950  0.69750600  0.44103350  1
  H  1488  1  0.23113850  0.54408900  0.34707450  1
  H  1495  1  0.67838550  0.48648900  0.30782550  1
  H  1496  1  0.67791250  0.44079650  0.26169400  1
  H  1500  1  0.52379150  0.34718750  0.24916700  1
  H  1507  1  0.21129200  0.44104000  0.79497100  1
  H  1508  1  0.21148900  0.48683650  0.84088450  1
  H  1512  1  0.12939400  0.34545600  0.85296800  1
  H  1519  1  0.38638900  0.66191900  0.84070400  1
  H  1520  1  0.38627750  0.61615150  0.79500000  1
  H  1524  1  0.54074050  0.75708400  0.85512650  1
  H  1531  1  0.85337850  0.61586900  0.26195250  1
  H  1532  1  0.85317600  0.66158500  0.30755500  1
  H  1536  1  0.93530800  0.75582950  0.24834450  1
  H  1543  1  0.42207300  0.79529500  0.23032700  1
  H  1544  1  0.46770250  0.84136400  0.23068850  1
  H  1548  1  0.32607700  0.85375300  0.14944500  1
  H  1555  1  0.46774500  0.30817200  0.69776900  1
  H  1556  1  0.42202550  0.26212600  0.69753050  1
  H  1560  1  0.32798900  0.25001500  0.54399000  1
  H  1567  1  0.59696300  0.26172200  0.87242200  1
  H  1568  1  0.64251900  0.30733500  0.87224900  1
  H  1572  1  0.73690400  0.24737000  0.95324100  1
  H  1579  1  0.64270950  0.84057000  0.40514050  1
  H  1580  1  0.59691250  0.79483650  0.40514900  1
  H  1584  1  0.73819500  0.85413450  0.55871650  1
  H  1591  1  0.24287100  0.44080650  0.69717850  1
  H  1592  1  0.28818750  0.48651950  0.69686900  1
  H  1596  1  0.22792150  0.34515700  0.54269850  1
  H  1603  1  0.82149900  0.48684750  0.23012050  1
  H  1604  1  0.77577400  0.44115950  0.23023750  1
  H  1608  1  0.83508000  0.34680250  0.14838650  1
  H  1615  1  0.77620200  0.61623200  0.40565100  1
  H  1616  1  0.82199050  0.66187100  0.40573850  1
  H  1620  1  0.83501200  0.75594500  0.55997800  1
  H  1627  1  0.28903350  0.66172750  0.87269100  1
  H  1628  1  0.24299300  0.61596250  0.87242150  1
  H  1632  1  0.23113300  0.75752000  0.95453800  1
  H  1639  1  0.67842850  0.26241100  0.44102350  1
  H  1640  1  0.67795450  0.30763000  0.48668050  1
  H  1644  1  0.52381450  0.24708750  0.34509600  1
  H  1651  1  0.21130000  0.84071400  0.48678300  1
  H  1652  1  0.21149850  0.79511850  0.44106200  1
  H  1656  1  0.12942150  0.85442900  0.34690450  1
  H  1663  1  0.38638450  0.79495550  0.61618100  1
  H  1664  1  0.38628850  0.84061850  0.66178100  1
  H  1668  1  0.54074100  0.85411750  0.75608950  1
  H  1675  1  0.85334950  0.30793450  0.66188300  1
  H  1676  1  0.85314650  0.26201050  0.61608300  1
  H  1680  1  0.93531800  0.24994750  0.75744950  1
  H  1687  1  0.42206150  0.69718950  0.26216200  1
  H  1688  1  0.46769000  0.69678700  0.30746300  1
  H  1692  1  0.32609850  0.54278700  0.24714950  1
  H  1699  1  0.46775100  0.23005350  0.84043950  1
  H  1700  1  0.42202750  0.23037800  0.79496250  1
  H  1704  1  0.32800650  0.14844950  0.85447400  1
  H  1711  1  0.59695800  0.40569900  0.79498000  1
  H  1712  1  0.64251550  0.40565100  0.84071650  1
  H  1716  1  0.73688950  0.56000400  0.85410850  1
  H  1723  1  0.64271800  0.87259750  0.30804750  1
  H  1724  1  0.59692050  0.87256600  0.26227250  1
  H  1728  1  0.73817750  0.95451800  0.24993750  1
  N  873  1  0.43194650  0.88483500  0.85488550  1
  N  885  1  0.63245200  0.45502400  0.48516100  1
  N  897  1  0.00220600  0.21768950  0.61783550  1
  N  909  1  0.06242350  0.64784150  0.24766100  1
  N  921  1  0.62853700  0.24766900  0.08132800  1
  N  933  1  0.19881050  0.61777900  0.02150450  1
  N  945  1  0.43563150  0.48513200  0.65128450  1
  N  957  1  0.86592950  0.85487400  0.45125050  1
  N  969  1  0.59873500  0.02164250  0.21793550  1
  N  981  1  0.22866300  0.08145850  0.64775450  1
  N  993  1  0.83565850  0.45124850  0.88502200  1
  N  1005  1  0.46608550  0.65138550  0.45496200  1
  N  1017  1  0.43191400  0.61757850  0.64754050  1
  N  1029  1  0.63244550  0.24791300  0.21773850  1
  N  1041  1  0.00221750  0.85497900  0.45485050  1
  N  1053  1  0.06241050  0.48505000  0.88519350  1
  N  1065  1  0.62854150  0.45136300  0.61766550  1
  N  1077  1  0.19881550  0.65148950  0.24775900  1
  N  1089  1  0.43563900  0.02098900  0.85482900  1
  N  1101  1  0.86595650  0.08147500  0.48514550  1
  N  1113  1  0.59874150  0.64757100  0.45127950  1
  N  1125  1  0.22865250  0.21765900  0.65136850  1
  N  1137  1  0.83565850  0.45488350  0.02109300  1
  N  1149  1  0.46608250  0.88517300  0.08163050  1
  N  1449  1  0.25737100  0.92764400  0.74423800  1
  N  1461  1  0.80647650  0.51842050  0.70211000  1
  N  1473  1  0.84896450  0.17494600  0.40053150  1
  N  1485  1  0.21616850  0.58423900  0.35865450  1
  N  1497  1  0.56461250  0.35853300  0.23491850  1
  N  1509  1  0.15590850  0.40054800  0.86783350  1
  N  1521  1  0.49960450  0.70213550  0.82556700  1
  N  1533  1  0.90876550  0.74414600  0.27688950  1
  N  1545  1  0.38115350  0.86802050  0.17505500  1
  N  1557  1  0.33961100  0.23511100  0.58418900  1
  N  1569  1  0.72530400  0.27686350  0.92777450  1
  N  1581  1  0.68312450  0.82551700  0.51842650  1
  N  1593  1  0.25737500  0.40019100  0.58360500  1
  N  1605  1  0.80645700  0.35851550  0.17481650  1
  N  1617  1  0.84900850  0.74446450  0.51897400  1
  N  1629  1  0.21616200  0.70240050  0.92797650  1
  N  1641  1  0.56464050  0.27657150  0.40016400  1
  N  1653  1  0.15593050  0.82584550  0.35854500  1
  N  1665  1  0.49961200  0.86794050  0.74452350  1
  N  1677  1  0.90876600  0.23507600  0.70236000  1
  N  1689  1  0.38116500  0.58361350  0.27661950  1
  N  1701  1  0.33962250  0.17497550  0.82589700  1
  N  1713  1  0.72529150  0.51891200  0.86797750  1
  N  1725  1  0.68311200  0.92808700  0.23518200  1
  O  874  1  0.43260650  0.85386000  0.88691050  1
  O  886  1  0.63226050  0.48656700  0.45370750  1
  O  898  1  0.06520800  0.24882250  0.64932450  1
  O  910  1  0.99942800  0.61635850  0.21580950  1
  O  922  1  0.59714200  0.21565350  0.01832650  1
  O  934  1  0.23000800  0.64931450  0.08450050  1
  O  946  1  0.46724300  0.45373950  0.65108850  1
  O  958  1  0.83479550  0.88673400  0.45165550  1
  O  970  1  0.63035150  0.08464500  0.24898850  1
  O  982  1  0.19679100  0.01846300  0.61628000  1
  O  994  1  0.86760900  0.45169850  0.85397150  1
  O  1006  1  0.43464550  0.65122800  0.48651850  1
  O  1018  1  0.43257400  0.64921600  0.61617700  1
  O  1030  1  0.63226700  0.21618550  0.24900450  1
  O  1042  1  0.06522150  0.88685600  0.48635750  1
  O  1054  1  0.99941550  0.45353000  0.85405650  1
  O  1066  1  0.59713550  0.45196600  0.64926150  1
  O  1078  1  0.23000600  0.65114000  0.21595400  1
  O  1090  1  0.46725400  0.08399250  0.88662550  1
  O  1102  1  0.83483000  0.01848100  0.45360000  1
  O  1114  1  0.63035100  0.61617750  0.45181650  1
  O  1126  1  0.19677650  0.24877850  0.65096700  1
  O  1138  1  0.86761650  0.48637850  0.08409500  1
  O  1150  1  0.43464850  0.85389300  0.01863450  1
  O  1450  1  0.21206200  0.92662250  0.69959550  1
  O  1462  1  0.85175900  0.51923700  0.74641400  1
  O  1474  1  0.80567200  0.17628650  0.35625450  1
  O  1486  1  0.25985600  0.58369950  0.40320650  1
  O  1498  1  0.56411600  0.40324150  0.27864650  1
  O  1510  1  0.15682950  0.35628500  0.82424950  1
  O  1522  1  0.50072000  0.74646850  0.87125950  1
  O  1534  1  0.90786700  0.69966600  0.23169800  1
  O  1546  1  0.33694950  0.82435850  0.17611800  1
  O  1558  1  0.38411750  0.27883650  0.58364100  1
  O  1570  1  0.68075150  0.23124550  0.92651900  1
  O  1582  1  0.72739600  0.87082450  0.51923550  1
  O  1594  1  0.21206100  0.35589750  0.58292550  1
  O  1606  1  0.85175050  0.40297400  0.17580050  1
  O  1618  1  0.80565050  0.69981900  0.51988650  1
  O  1630  1  0.25986800  0.74663750  0.92714050  1
  O  1642  1  0.56414500  0.23136700  0.35593900  1
  O  1654  1  0.15685150  0.87102550  0.40305500  1
  O  1666  1  0.50071250  0.82471350  0.69993900  1
  O  1678  1  0.90786700  0.27865950  0.74664750  1
  O  1690  1  0.33695600  0.58302750  0.23131550  1
  O  1702  1  0.38413250  0.17575900  0.87094750  1
  O  1714  1  0.68073900  0.51996850  0.82467250  1
  O  1726  1  0.72738150  0.92701700  0.27861050  1
