# generated using pymatgen
data_H9C18N4O
_symmetry_space_group_name_H-M   'P 1'
_cell_length_a   23.71470000
_cell_length_b   55.71420000
_cell_length_c   55.71420000
_cell_angle_alpha   90.00000000
_cell_angle_beta   90.00000000
_cell_angle_gamma   90.00000000
_symmetry_Int_Tables_number   1
_chemical_formula_structural   H9C18N4O
_chemical_formula_sum   'H288 C576 N128 O32'
_cell_volume   73612.13819447
_cell_formula_units_Z   32
loop_
 _symmetry_equiv_pos_site_id
 _symmetry_equiv_pos_as_xyz
  1  'x, y, z'
loop_
 _atom_site_type_symbol
 _atom_site_label
 _atom_site_symmetry_multiplicity
 _atom_site_fract_x
 _atom_site_fract_y
 _atom_site_fract_z
 _atom_site_occupancy
  C  1  1  0.11939700  0.13813500  0.36477200  1
  C  2  1  0.15894200  0.11952800  0.37001900  1
  C  3  1  0.18077700  0.10541600  0.35088900  1
  C  4  1  0.16298500  0.10940700  0.32735500  1
  C  5  1  0.12366900  0.12714100  0.32149300  1
  C  6  1  0.10218300  0.14193400  0.34040000  1
  C  7  1  0.17499600  0.11565200  0.39407500  1
  C  8  1  0.06282900  0.16037900  0.33608700  1
  C  10  1  0.09711900  0.15272200  0.38380500  1
  C  11  1  0.11370300  0.14839600  0.40803800  1
  C  12  1  0.09018800  0.16177100  0.42727000  1
  C  13  1  0.05286500  0.18070800  0.42133600  1
  C  14  1  0.03486800  0.18599900  0.39732600  1
  C  15  1  0.05740100  0.17131400  0.37868800  1
  C  16  1  0.15278900  0.12973100  0.41258600  1
  C  18  1  0.04120600  0.17466300  0.35454700  1
  C  27  1  0.11940500  0.86411400  0.59520200  1
  C  28  1  0.15894100  0.88272600  0.58995700  1
  C  29  1  0.18078100  0.89683800  0.60908200  1
  C  30  1  0.16300000  0.89284000  0.63261400  1
  C  31  1  0.12363000  0.87512700  0.63847300  1
  C  32  1  0.10219200  0.86031400  0.61957100  1
  C  33  1  0.17501300  0.88660900  0.56590800  1
  C  34  1  0.06283800  0.84187000  0.62388000  1
  C  36  1  0.09712000  0.84952800  0.57617300  1
  C  37  1  0.11369500  0.85389400  0.55195400  1
  C  38  1  0.09010000  0.84061300  0.53269700  1
  C  39  1  0.05291900  0.82158900  0.53859700  1
  C  40  1  0.03490100  0.81626400  0.56261100  1
  C  41  1  0.05740300  0.83093200  0.58127000  1
  C  42  1  0.15284900  0.87252600  0.54740600  1
  C  44  1  0.04120600  0.82758800  0.60541600  1
  C  53  1  0.88510400  0.38591100  0.84297000  1
  C  54  1  0.84555900  0.39115300  0.86157900  1
  C  55  1  0.82377000  0.37203100  0.87570800  1
  C  56  1  0.84150400  0.34849500  0.87169700  1
  C  57  1  0.88084500  0.34263400  0.85397100  1
  C  58  1  0.90232100  0.36154200  0.83917400  1
  C  59  1  0.82949300  0.41520300  0.86546700  1
  C  60  1  0.94167600  0.35723200  0.82072800  1
  C  62  1  0.90739400  0.40494000  0.82838700  1
  C  63  1  0.89082200  0.42915800  0.83275500  1
  C  64  1  0.91437900  0.44841000  0.81945300  1
  C  65  1  0.95161100  0.44251500  0.80044900  1
  C  66  1  0.96961200  0.41850000  0.79511900  1
  C  67  1  0.94710700  0.39984100  0.80978800  1
  C  68  1  0.85166500  0.43370600  0.85138800  1
  C  70  1  0.96330400  0.37569600  0.80644600  1
  C  79  1  0.88507800  0.61632800  0.11698900  1
  C  80  1  0.84550800  0.61109900  0.09837200  1
  C  81  1  0.82368000  0.63025400  0.08426600  1
  C  82  1  0.84153200  0.65377000  0.08830900  1
  C  83  1  0.88087600  0.65960900  0.10602800  1
  C  84  1  0.90232500  0.64069300  0.12080500  1
  C  85  1  0.82949000  0.58703900  0.09449300  1
  C  86  1  0.94168700  0.64501500  0.13924100  1
  C  88  1  0.90737900  0.59730000  0.13157700  1
  C  89  1  0.89079200  0.57306900  0.12724900  1
  C  90  1  0.91431800  0.55384100  0.14062600  1
  C  91  1  0.95164000  0.55977300  0.15956600  1
  C  92  1  0.96965000  0.58378300  0.16485300  1
  C  93  1  0.94710300  0.60241900  0.15017200  1
  C  94  1  0.85170000  0.56852600  0.10858100  1
  C  96  1  0.96330800  0.62655800  0.15352400  1
  C  105  1  0.63471500  0.36432700  0.36471700  1
  C  106  1  0.59528400  0.38287200  0.37001900  1
  C  107  1  0.57360100  0.39690800  0.35084200  1
  C  108  1  0.59141700  0.39290900  0.32730600  1
  C  109  1  0.63073000  0.37518800  0.32143000  1
  C  110  1  0.65211300  0.36043600  0.34034800  1
  C  111  1  0.57924500  0.38673100  0.39410100  1
  C  112  1  0.69146900  0.34199400  0.33603600  1
  C  114  1  0.65653300  0.34992200  0.38387700  1
  C  115  1  0.64032300  0.35408600  0.40823700  1
  C  116  1  0.66394800  0.34073000  0.42761600  1
  C  117  1  0.70105800  0.32178900  0.42197100  1
  C  118  1  0.71665800  0.31757600  0.39806200  1
  C  119  1  0.69580400  0.33148500  0.37867700  1
  C  120  1  0.60134300  0.37270600  0.41269000  1
  C  122  1  0.71273800  0.32780500  0.35462400  1
  C  131  1  0.63468800  0.63793200  0.59524100  1
  C  132  1  0.59523700  0.61937900  0.58995200  1
  C  133  1  0.57354600  0.60534800  0.60914400  1
  C  134  1  0.59141300  0.60938500  0.63266600  1
  C  135  1  0.63078900  0.62707900  0.63852100  1
  C  136  1  0.65211100  0.64183400  0.61960100  1
  C  137  1  0.57922200  0.61551100  0.56587000  1
  C  138  1  0.69146600  0.66027300  0.62392000  1
  C  140  1  0.65653500  0.65233500  0.57608500  1
  C  141  1  0.64032100  0.64815100  0.55173200  1
  C  142  1  0.66396700  0.66146900  0.53234200  1
  C  143  1  0.70102400  0.68044200  0.53792700  1
  C  144  1  0.71674400  0.68465700  0.56178700  1
  C  145  1  0.69584000  0.67078600  0.58124100  1
  C  146  1  0.60130800  0.62954100  0.54728100  1
  C  148  1  0.71274900  0.67445600  0.60532700  1
  C  157  1  0.86899600  0.11612800  0.84312200  1
  C  158  1  0.90884400  0.11114800  0.86167800  1
  C  159  1  0.93010500  0.13051100  0.87568900  1
  C  160  1  0.91172600  0.15399900  0.87116200  1
  C  161  1  0.87222600  0.15968000  0.85294000  1
  C  162  1  0.85131500  0.14030000  0.83909700  1
  C  163  1  0.92506800  0.08708400  0.86550600  1
  C  164  1  0.81275200  0.14494200  0.82047500  1
  C  166  1  0.84702600  0.09720500  0.82840500  1
  C  167  1  0.86374600  0.07302600  0.83274800  1
  C  168  1  0.84019100  0.05381800  0.81937400  1
  C  169  1  0.80287000  0.05973600  0.80041700  1
  C  170  1  0.78485600  0.08373800  0.79510400  1
  C  171  1  0.80732500  0.10235800  0.80978800  1
  C  172  1  0.90288400  0.06853500  0.85142000  1
  C  174  1  0.79104400  0.12648600  0.80632800  1
  C  183  1  0.86903800  0.88616200  0.11682200  1
  C  184  1  0.90893900  0.89113500  0.09820800  1
  C  185  1  0.93039200  0.87174900  0.08416000  1
  C  186  1  0.91163200  0.84833500  0.08886200  1
  C  187  1  0.87218800  0.84263200  0.10705000  1
  C  188  1  0.85131200  0.86199700  0.12087600  1
  C  189  1  0.92511000  0.91521400  0.09443600  1
  C  190  1  0.81275400  0.85731600  0.13949200  1
  C  192  1  0.84702200  0.90505500  0.13157200  1
  C  193  1  0.86375600  0.92922300  0.12722200  1
  C  194  1  0.84014900  0.94843700  0.14055200  1
  C  195  1  0.80289500  0.94252600  0.15954200  1
  C  196  1  0.78486400  0.91852300  0.16486600  1
  C  197  1  0.80731700  0.89989600  0.15019000  1
  C  198  1  0.90290100  0.93374200  0.10855800  1
  C  200  1  0.79104200  0.87576600  0.15364300  1
  C  209  1  0.61896300  0.63799000  0.86498200  1
  C  210  1  0.65880800  0.61942900  0.86997600  1
  C  211  1  0.68013000  0.60541800  0.85064300  1
  C  212  1  0.66171100  0.60992300  0.82714100  1
  C  213  1  0.62225400  0.62814900  0.82144000  1
  C  214  1  0.60131600  0.64200700  0.84080300  1
  C  215  1  0.67504600  0.61561500  0.89404800  1
  C  216  1  0.56275500  0.66063000  0.83615800  1
  C  218  1  0.59701300  0.65271100  0.88390400  1
  C  219  1  0.61374900  0.64838600  0.90808400  1
  C  220  1  0.59020200  0.66177400  0.92729000  1
  C  221  1  0.55286500  0.68071000  0.92135700  1
  C  222  1  0.53484600  0.68601000  0.89735600  1
  C  223  1  0.55731400  0.67132100  0.87874400  1
  C  224  1  0.65284900  0.62970700  0.91259100  1
  C  226  1  0.54104700  0.67477900  0.85461300  1
  C  235  1  0.61898800  0.36426400  0.09498900  1
  C  236  1  0.65881400  0.38281600  0.08999300  1
  C  237  1  0.68014400  0.39681600  0.10934000  1
  C  238  1  0.66174200  0.39233800  0.13284100  1
  C  239  1  0.62211500  0.37414200  0.13853600  1
  C  240  1  0.60130800  0.36026700  0.11916200  1
  C  241  1  0.67504400  0.38663700  0.06592800  1
  C  242  1  0.56277000  0.34163300  0.12380600  1
  C  244  1  0.59702500  0.34954500  0.07606800  1
  C  245  1  0.61374900  0.35386800  0.05188500  1
  C  246  1  0.59020200  0.34048000  0.03267900  1
  C  247  1  0.55287100  0.32154100  0.03861500  1
  C  248  1  0.53483800  0.31625000  0.06261500  1
  C  249  1  0.55732000  0.33093500  0.08122800  1
  C  250  1  0.65285600  0.37254800  0.04738200  1
  C  252  1  0.54105600  0.32748000  0.10535700  1
  C  261  1  0.38472100  0.88585800  0.34317100  1
  C  262  1  0.34527800  0.89115500  0.36172100  1
  C  263  1  0.32364100  0.87198800  0.37577700  1
  C  264  1  0.34140300  0.84845100  0.37175600  1
  C  265  1  0.38073400  0.84258600  0.35403700  1
  C  266  1  0.40213000  0.86149700  0.33927600  1
  C  267  1  0.32922100  0.91522800  0.36559600  1
  C  268  1  0.44149700  0.85720500  0.32082300  1
  C  270  1  0.40656800  0.90500800  0.32876200  1
  C  271  1  0.39032100  0.92935000  0.33299400  1
  C  272  1  0.41391300  0.94876500  0.31974400  1
  C  273  1  0.45089400  0.94317200  0.30075800  1
  C  274  1  0.46668600  0.91922500  0.29639800  1
  C  275  1  0.44588900  0.89984100  0.31030000  1
  C  276  1  0.35127700  0.93380800  0.35157800  1
  C  278  1  0.46281800  0.87580700  0.30662600  1
  C  287  1  0.38467600  0.11638300  0.61678300  1
  C  288  1  0.34522200  0.11109900  0.59822800  1
  C  289  1  0.32354400  0.13030200  0.58419700  1
  C  290  1  0.34142300  0.15382100  0.58824900  1
  C  291  1  0.38076600  0.15967600  0.60595000  1
  C  292  1  0.40210300  0.14074800  0.62068500  1
  C  293  1  0.32922400  0.08701200  0.59436500  1
  C  294  1  0.44144500  0.14507800  0.63911300  1
  C  296  1  0.40654000  0.09722000  0.63118200  1
  C  297  1  0.39033700  0.07286500  0.62702700  1
  C  298  1  0.41402000  0.05349600  0.64040000  1
  C  299  1  0.45127200  0.05908700  0.65933800  1
  C  300  1  0.46722800  0.08292400  0.66337100  1
  C  301  1  0.44587900  0.10236800  0.64960500  1
  C  302  1  0.35133000  0.06842100  0.60840100  1
  C  304  1  0.46267600  0.12649400  0.65328900  1
  C  313  1  0.13513800  0.86447100  0.86492100  1
  C  314  1  0.09542400  0.88296200  0.86997600  1
  C  315  1  0.07424800  0.89688800  0.85058700  1
  C  316  1  0.09265900  0.89240300  0.82708300  1
  C  317  1  0.13224100  0.87421500  0.82137800  1
  C  318  1  0.15298800  0.86037500  0.84075000  1
  C  319  1  0.07919900  0.88676500  0.89406600  1
  C  320  1  0.19153800  0.84174400  0.83611000  1
  C  322  1  0.15663500  0.84993200  0.88397200  1
  C  323  1  0.14028300  0.85409500  0.90828400  1
  C  324  1  0.16394200  0.84072600  0.92763600  1
  C  325  1  0.20107600  0.82178700  0.92199500  1
  C  326  1  0.21669500  0.81756200  0.89815900  1
  C  327  1  0.19589000  0.83147600  0.87873500  1
  C  328  1  0.10128700  0.87273300  0.91269000  1
  C  330  1  0.21289200  0.82768800  0.85469200  1
  C  339  1  0.13507100  0.13775100  0.09499300  1
  C  340  1  0.09524000  0.11921400  0.08997100  1
  C  341  1  0.07373400  0.10531600  0.10941600  1
  C  342  1  0.09270800  0.10998000  0.13282300  1
  C  343  1  0.13225000  0.12812200  0.13853400  1
  C  344  1  0.15297600  0.14188400  0.11915500  1
  C  345  1  0.07913600  0.11545500  0.06585700  1
  C  346  1  0.19151300  0.16048900  0.12386400  1
  C  348  1  0.15662000  0.15232000  0.07597200  1
  C  349  1  0.14030000  0.14816300  0.05167000  1
  C  350  1  0.16405700  0.16153500  0.03234200  1
  C  351  1  0.20114300  0.18054100  0.03803700  1
  C  352  1  0.21669500  0.18468700  0.06202400  1
  C  353  1  0.19584300  0.17076300  0.08125500  1
  C  354  1  0.10126900  0.12952700  0.04725000  1
  C  356  1  0.21284500  0.17453200  0.10530500  1
  C  365  1  0.36940100  0.61618200  0.34333100  1
  C  366  1  0.40913400  0.61114900  0.36182300  1
  C  367  1  0.43024900  0.63055700  0.37575700  1
  C  368  1  0.41184300  0.65404700  0.37122300  1
  C  369  1  0.37228600  0.65973500  0.35303400  1
  C  370  1  0.35153200  0.64035000  0.33922400  1
  C  371  1  0.42534700  0.58706400  0.36563700  1
  C  372  1  0.31298900  0.64500600  0.32061100  1
  C  374  1  0.34788300  0.59713300  0.32879900  1
  C  375  1  0.36419900  0.57283400  0.33298100  1
  C  376  1  0.34042700  0.55348700  0.31965300  1
  C  377  1  0.30335400  0.55914600  0.30062400  1
  C  378  1  0.28789500  0.58313700  0.29640900  1
  C  379  1  0.30867200  0.60238500  0.31034800  1
  C  380  1  0.40327200  0.56844200  0.35160200  1
  C  382  1  0.29166200  0.62643600  0.30657400  1
  C  391  1  0.36939000  0.38608600  0.61662900  1
  C  392  1  0.40915400  0.39112100  0.59810200  1
  C  393  1  0.43035400  0.37170100  0.58415100  1
  C  394  1  0.41176700  0.34824900  0.58877100  1
  C  395  1  0.37229000  0.34254800  0.60696500  1
  C  396  1  0.35149700  0.36192700  0.62076600  1
  C  397  1  0.42535600  0.41521400  0.59431700  1
  C  398  1  0.31292100  0.35728800  0.63939700  1
  C  400  1  0.34786300  0.40511600  0.63119800  1
  C  401  1  0.36425700  0.42940900  0.62698400  1
  C  402  1  0.34062100  0.44878900  0.64026600  1
  C  403  1  0.30364100  0.44318000  0.65924700  1
  C  404  1  0.28782500  0.41924700  0.66359700  1
  C  405  1  0.30856500  0.39989300  0.64968700  1
  C  406  1  0.40328400  0.43382700  0.60836500  1
  C  408  1  0.29153100  0.37588100  0.65346500  1
  C  417  1  0.92325100  0.23368700  0.40371700  1
  C  418  1  0.89588800  0.24402000  0.42438000  1
  C  419  1  0.85097700  0.26097800  0.42142900  1
  C  420  1  0.83263200  0.26789800  0.39833300  1
  C  421  1  0.86078600  0.25718800  0.37839000  1
  C  422  1  0.90458800  0.24066800  0.38079000  1
  C  424  1  0.84117500  0.26488400  0.46387600  1
  C  425  1  0.88461900  0.24833500  0.46722000  1
  C  432  1  0.96652200  0.21666600  0.40629000  1
  C  434  1  0.79104800  0.28485000  0.39218500  1
  C  436  1  0.92325700  0.76856700  0.55624400  1
  C  437  1  0.89588800  0.75822700  0.53558500  1
  C  438  1  0.85097100  0.74127200  0.53853900  1
  C  439  1  0.83266000  0.73435100  0.56163200  1
  C  440  1  0.86080000  0.74506500  0.58157500  1
  C  441  1  0.90460200  0.76158100  0.57917400  1
  C  443  1  0.84117100  0.73737000  0.49609100  1
  C  444  1  0.88461700  0.75391900  0.49274700  1
  C  451  1  0.96650900  0.78560000  0.55367000  1
  C  453  1  0.79106300  0.71741100  0.56771200  1
  C  455  1  0.08127300  0.42490600  0.74742200  1
  C  456  1  0.10868500  0.44554900  0.73706300  1
  C  457  1  0.15364200  0.44256200  0.72007700  1
  C  458  1  0.17195600  0.41938900  0.71312700  1
  C  459  1  0.14371100  0.39957300  0.72393200  1
  C  460  1  0.09992000  0.40198700  0.74044500  1
  C  462  1  0.16335000  0.48503600  0.71621900  1
  C  463  1  0.11989900  0.48837800  0.73277400  1
  C  470  1  0.03800400  0.42744800  0.76445700  1
  C  472  1  0.21358300  0.41248400  0.69630000  1
  C  474  1  0.08126900  0.57744000  0.21254700  1
  C  475  1  0.10856400  0.55676300  0.22286200  1
  C  476  1  0.15342600  0.55967800  0.23976500  1
  C  477  1  0.17189500  0.58268100  0.24664300  1
  C  478  1  0.14380000  0.60279600  0.23607600  1
  C  479  1  0.09994600  0.60038700  0.21954400  1
  C  481  1  0.16331000  0.51725000  0.24373300  1
  C  482  1  0.11988600  0.51390100  0.22719000  1
  C  489  1  0.03800400  0.57482800  0.19552500  1
  C  491  1  0.21344400  0.58786800  0.26382700  1
  C  493  1  0.67325000  0.07743400  0.74742200  1
  C  494  1  0.64593400  0.05675800  0.73710800  1
  C  495  1  0.60116600  0.05964100  0.72015900  1
  C  496  1  0.58316000  0.08259900  0.71303500  1
  C  497  1  0.61076400  0.10275100  0.72387500  1
  C  498  1  0.65456600  0.10037900  0.74044100  1
  C  500  1  0.59117200  0.01725500  0.71623700  1
  C  501  1  0.63461600  0.01390100  0.73277400  1
  C  508  1  0.71648900  0.07481800  0.76445100  1
  C  510  1  0.54043000  0.08814500  0.69644400  1
  C  512  1  0.67323800  0.92490400  0.21255100  1
  C  513  1  0.64583900  0.94554900  0.22291100  1
  C  514  1  0.60090000  0.94256000  0.23990800  1
  C  515  1  0.58257600  0.91938700  0.24685600  1
  C  516  1  0.61082900  0.89957300  0.23605500  1
  C  517  1  0.65459700  0.90198500  0.21952900  1
  C  519  1  0.59115100  0.98503600  0.24374600  1
  C  520  1  0.63461200  0.98837800  0.22719500  1
  C  527  1  0.71651200  0.92744700  0.19552300  1
  C  529  1  0.54087000  0.91248200  0.26365100  1
  C  531  1  0.42324300  0.73368500  0.90371600  1
  C  532  1  0.39588700  0.74401800  0.92437800  1
  C  533  1  0.35098700  0.76097600  0.92142900  1
  C  534  1  0.33265800  0.76790100  0.89833800  1
  C  535  1  0.36078400  0.75718900  0.87838600  1
  C  536  1  0.40457800  0.74066600  0.88078600  1
  C  538  1  0.34117400  0.76488200  0.96387400  1
  C  539  1  0.38461900  0.74833700  0.96722000  1
  C  546  1  0.46653900  0.71668100  0.90629100  1
  C  548  1  0.29107600  0.78485000  0.89230400  1
  C  550  1  0.42324700  0.26856200  0.05629900  1
  C  551  1  0.39593800  0.25824700  0.03562500  1
  C  552  1  0.35105200  0.24135900  0.03852500  1
  C  553  1  0.33253600  0.23449100  0.06157100  1
  C  554  1  0.36069400  0.24503800  0.08164700  1
  C  555  1  0.40458800  0.26156700  0.07924700  1
  C  557  1  0.34120900  0.23737400  0.99611000  1
  C  558  1  0.38462000  0.25392300  0.99275900  1
  C  565  1  0.46651100  0.28558200  0.05368300  1
  C  567  1  0.29106600  0.21729800  0.06687900  1
  C  569  1  0.16439300  0.15163500  0.48627100  1
  C  570  1  0.19526500  0.16855300  0.50071800  1
  C  571  1  0.22619100  0.16098800  0.52170400  1
  C  572  1  0.22895300  0.13632400  0.52864600  1
  C  573  1  0.19983500  0.12015700  0.51330700  1
  C  574  1  0.16945300  0.12717500  0.49282800  1
  C  576  1  0.25190100  0.20189100  0.52942700  1
  C  577  1  0.22290600  0.20935400  0.50895800  1
  C  584  1  0.13886600  0.15934000  0.46434300  1
  C  586  1  0.25594600  0.12454600  0.54836500  1
  C  588  1  0.16427500  0.85056400  0.47367100  1
  C  589  1  0.19525400  0.83368000  0.45923300  1
  C  590  1  0.22623800  0.84125600  0.43826300  1
  C  591  1  0.22899600  0.86591900  0.43132600  1
  C  592  1  0.19986600  0.88206800  0.44669000  1
  C  593  1  0.16940800  0.87503500  0.46715200  1
  C  595  1  0.25191300  0.80035100  0.43053700  1
  C  596  1  0.22291500  0.79288800  0.45100300  1
  C  603  1  0.13840700  0.84269300  0.49548600  1
  C  605  1  0.25585700  0.87772400  0.41158400  1
  C  607  1  0.84018600  0.50743800  0.82942200  1
  C  608  1  0.80924600  0.52189200  0.81254100  1
  C  609  1  0.77825200  0.54286500  0.82013400  1
  C  610  1  0.77548000  0.54982400  0.84480100  1
  C  611  1  0.80461400  0.53444200  0.86093300  1
  C  612  1  0.83508600  0.51396800  0.85389400  1
  C  614  1  0.75259300  0.55058100  0.77920900  1
  C  615  1  0.78159400  0.53011400  0.77174600  1
  C  622  1  0.86615400  0.48563700  0.82155300  1
  C  624  1  0.74854100  0.56962000  0.85656600  1
  C  626  1  0.84010400  0.49483100  0.13050700  1
  C  627  1  0.80920800  0.48038400  0.14741900  1
  C  628  1  0.77826500  0.45939300  0.13985000  1
  C  629  1  0.77547600  0.45242100  0.11518600  1
  C  630  1  0.80460300  0.46779100  0.09903800  1
  C  631  1  0.83501200  0.48827400  0.10605200  1
  C  633  1  0.75260200  0.45167800  0.18076700  1
  C  634  1  0.78160300  0.47214900  0.18822300  1
  C  641  1  0.86570000  0.51675100  0.13820800  1
  C  643  1  0.74854300  0.43263100  0.10341000  1
  C  645  1  0.59003200  0.35062700  0.48632800  1
  C  646  1  0.55916900  0.33370300  0.50075200  1
  C  647  1  0.52825800  0.34130100  0.52174100  1
  C  648  1  0.52552500  0.36598700  0.52870700  1
  C  649  1  0.55460900  0.38212300  0.51334100  1
  C  650  1  0.58498600  0.37508600  0.49285600  1
  C  652  1  0.50259900  0.30035800  0.52943800  1
  C  653  1  0.53159300  0.29289300  0.50896900  1
  C  660  1  0.61553300  0.34292000  0.46444900  1
  C  662  1  0.49862800  0.37776200  0.54849900  1
  C  664  1  0.59004600  0.65164200  0.47364900  1
  C  665  1  0.55922600  0.66856200  0.45922200  1
  C  666  1  0.52829800  0.66098600  0.43824900  1
  C  667  1  0.52554400  0.63632200  0.43130100  1
  C  668  1  0.55465700  0.62015200  0.44665100  1
  C  669  1  0.58506800  0.62717200  0.46712900  1
  C  671  1  0.50259600  0.70189300  0.43053500  1
  C  672  1  0.53159100  0.70935800  0.45100200  1
  C  679  1  0.61567000  0.65942400  0.49547500  1
  C  681  1  0.49849600  0.62459800  0.41153200  1
  C  683  1  0.91438100  0.99482900  0.82945300  1
  C  684  1  0.94528600  0.98038200  0.81254900  1
  C  685  1  0.97623900  0.95939400  0.82012300  1
  C  686  1  0.97901400  0.95243200  0.84478800  1
  C  687  1  0.94989200  0.96780200  0.86093500  1
  C  688  1  0.91946800  0.98827900  0.85391300  1
  C  690  1  0.00190900  0.95168000  0.77920700  1
  C  691  1  0.97291000  0.97214900  0.77174900  1
  C  698  1  0.88868600  0.01670400  0.82166300  1
  C  700  1  0.00593500  0.93265300  0.85656600  1
  C  702  1  0.91431100  0.00745100  0.13051500  1
  C  703  1  0.94526900  0.02191000  0.14739100  1
  C  704  1  0.97617600  0.04291200  0.13975800  1
  C  705  1  0.97878600  0.04992900  0.11505700  1
  C  706  1  0.94979800  0.03449900  0.09897000  1
  C  707  1  0.91945000  0.01399200  0.10604500  1
  C  709  1  0.00192600  0.05057600  0.18073700  1
  C  710  1  0.97291800  0.03011300  0.18820700  1
  C  717  1  0.88852400  0.98559600  0.13833900  1
  C  719  1  0.00621900  0.06957000  0.10321900  1
  C  721  1  0.66439500  0.65163500  0.98627300  1
  C  722  1  0.69526600  0.66855300  0.00072000  1
  C  723  1  0.72619400  0.66098800  0.02170600  1
  C  724  1  0.72896600  0.63632400  0.02865500  1
  C  725  1  0.69984300  0.62016000  0.01331200  1
  C  726  1  0.66945700  0.62717600  0.99282900  1
  C  728  1  0.75190200  0.70189100  0.02942600  1
  C  729  1  0.72290500  0.70935400  0.00895800  1
  C  736  1  0.63887300  0.65934000  0.96434500  1
  C  738  1  0.75598600  0.62455200  0.04838500  1
  C  740  1  0.66441400  0.35061100  0.97369400  1
  C  741  1  0.69528900  0.33368900  0.95924900  1
  C  742  1  0.72623000  0.34125200  0.93826000  1
  C  743  1  0.72901900  0.36591200  0.93130600  1
  C  744  1  0.69988500  0.38207000  0.94666000  1
  C  745  1  0.66947800  0.37506400  0.96713400  1
  C  747  1  0.75190200  0.30034500  0.93054200  1
  C  748  1  0.72290300  0.29288900  0.95101200  1
  C  755  1  0.63887900  0.34290500  0.99562200  1
  C  757  1  0.75590400  0.37771900  0.91155700  1
  C  759  1  0.34012900  0.00748200  0.32942800  1
  C  760  1  0.30922800  0.02190300  0.31252900  1
  C  761  1  0.27824800  0.04286100  0.32011200  1
  C  762  1  0.27549500  0.04979900  0.34477700  1
  C  763  1  0.30462700  0.03443100  0.36092900  1
  C  764  1  0.33508200  0.01397300  0.35390100  1
  C  766  1  0.25258900  0.05058100  0.27920500  1
  C  767  1  0.28158800  0.03011500  0.27174000  1
  C  774  1  0.36599200  0.98573200  0.32157000  1
  C  776  1  0.24859900  0.06954700  0.35657700  1
  C  778  1  0.34004200  0.99478900  0.63050200  1
  C  779  1  0.30918600  0.98037100  0.64742900  1
  C  780  1  0.27825600  0.95939100  0.63986000  1
  C  781  1  0.27548500  0.95244300  0.61519700  1
  C  782  1  0.30461100  0.96779800  0.59903800  1
  C  783  1  0.33500500  0.98826700  0.60604500  1
  C  785  1  0.25259800  0.95167800  0.68076900  1
  C  786  1  0.28159600  0.97214900  0.68822800  1
  C  793  1  0.36554000  0.01666800  0.63818900  1
  C  795  1  0.24859500  0.93270100  0.60339000  1
  C  797  1  0.09001400  0.85063000  0.98633500  1
  C  798  1  0.05913900  0.83372100  0.00076800  1
  C  799  1  0.02821800  0.84134900  0.02175800  1
  C  800  1  0.02546900  0.86605900  0.02874100  1
  C  801  1  0.05456700  0.88215200  0.01335400  1
  C  802  1  0.08496300  0.87509100  0.99286900  1
  C  804  1  0.00260500  0.80036500  0.02943900  1
  C  805  1  0.03159200  0.79289800  0.00897100  1
  C  812  1  0.11552600  0.84292100  0.96445400  1
  C  814  1  0.99861400  0.87785300  0.04855900  1
  C  816  1  0.09004400  0.15164100  0.97365100  1
  C  817  1  0.05922400  0.16856200  0.95922200  1
  C  818  1  0.02829400  0.16098400  0.93824900  1
  C  819  1  0.02552800  0.13632200  0.93129200  1
  C  820  1  0.05464900  0.12015300  0.94664500  1
  C  821  1  0.08506400  0.12717300  0.96712700  1
  C  823  1  0.00259600  0.20189300  0.93053500  1
  C  824  1  0.03159100  0.20935800  0.95100200  1
  C  831  1  0.11568100  0.15942500  0.99547700  1
  C  833  1  0.99845300  0.12460500  0.91151300  1
  C  835  1  0.41434600  0.49477100  0.32942900  1
  C  836  1  0.44528400  0.48035900  0.31253200  1
  C  837  1  0.47625400  0.45939600  0.32011400  1
  C  838  1  0.47899700  0.45246300  0.34477700  1
  C  839  1  0.44987800  0.46782500  0.36093100  1
  C  840  1  0.41943400  0.48828300  0.35390300  1
  C  842  1  0.50192000  0.45167500  0.27920700  1
  C  843  1  0.47292300  0.47214200  0.27174200  1
  C  850  1  0.38854700  0.51653800  0.32156800  1
  C  852  1  0.50586900  0.43272600  0.35658200  1
  C  854  1  0.41436100  0.50748100  0.63051400  1
  C  855  1  0.44526500  0.52189000  0.64742900  1
  C  856  1  0.47621600  0.54285400  0.63985100  1
  C  857  1  0.47896400  0.54978600  0.61518600  1
  C  858  1  0.44984200  0.53444200  0.59902100  1
  C  859  1  0.41943100  0.51397500  0.60604300  1
  C  861  1  0.50191800  0.55057800  0.68075300  1
  C  862  1  0.47292100  0.53011300  0.68822100  1
  C  869  1  0.38868200  0.48568600  0.63832400  1
  C  871  1  0.50595300  0.56950300  0.60340400  1
  C  873  1  0.10506300  0.14027200  0.25706000  1
  C  874  1  0.10924400  0.16067500  0.24154000  1
  C  875  1  0.11647500  0.15738500  0.21610800  1
  C  876  1  0.12135800  0.13404200  0.20577900  1
  C  877  1  0.11523600  0.11448200  0.22191100  1
  C  878  1  0.10803700  0.11725200  0.24663200  1
  C  880  1  0.11648700  0.20006600  0.21087400  1
  C  881  1  0.11074300  0.20341700  0.23559200  1
  C  888  1  0.10110500  0.14289300  0.28200900  1
  C  890  1  0.12428900  0.12700000  0.18139000  1
  C  892  1  0.10506000  0.86198100  0.70290200  1
  C  893  1  0.10926400  0.84157500  0.71842000  1
  C  894  1  0.11649500  0.84486200  0.74385300  1
  C  895  1  0.12120600  0.86820600  0.75418800  1
  C  896  1  0.11525700  0.88776800  0.73805800  1
  C  897  1  0.10805800  0.88499900  0.71333500  1
  C  899  1  0.11649500  0.80218500  0.74909300  1
  C  900  1  0.11074400  0.79883200  0.72437500  1
  C  907  1  0.10109100  0.85937100  0.67794400  1
  C  909  1  0.12422900  0.87523600  0.77857700  1
  C  911  1  0.89945200  0.27820900  0.84083400  1
  C  912  1  0.89526200  0.26268500  0.82043300  1
  C  913  1  0.88802600  0.23724800  0.82372500  1
  C  914  1  0.88313900  0.22691500  0.84706900  1
  C  915  1  0.88927000  0.24305100  0.86662300  1
  C  916  1  0.89647600  0.26777600  0.86385100  1
  C  918  1  0.88803000  0.23201400  0.78104300  1
  C  919  1  0.89376700  0.25673300  0.77769000  1
  C  926  1  0.90342600  0.30316900  0.83822800  1
  C  928  1  0.88005800  0.20252300  0.85412300  1
  C  930  1  0.89946600  0.72405600  0.11913400  1
  C  931  1  0.89527500  0.73957600  0.13953500  1
  C  932  1  0.88803200  0.76501000  0.13624200  1
  C  933  1  0.88314300  0.77534600  0.11289800  1
  C  934  1  0.88927400  0.75920700  0.09334400  1
  C  935  1  0.89648500  0.73448400  0.09611500  1
  C  937  1  0.88801800  0.77023800  0.17892500  1
  C  938  1  0.89376900  0.74551900  0.18227700  1
  C  945  1  0.90340900  0.69910500  0.12174500  1
  C  947  1  0.88004800  0.79974400  0.10584200  1
  C  949  1  0.64942700  0.36198800  0.25705800  1
  C  950  1  0.64524400  0.34157900  0.24154700  1
  C  951  1  0.63802300  0.34486400  0.21611500  1
  C  952  1  0.63330400  0.36820100  0.20577300  1
  C  953  1  0.63925200  0.38777200  0.22189900  1
  C  954  1  0.64644400  0.38500800  0.24662300  1
  C  956  1  0.63801700  0.30218700  0.21087800  1
  C  957  1  0.64376400  0.29883800  0.23559500  1
  C  964  1  0.65341000  0.35936100  0.28200300  1
  C  966  1  0.63043900  0.37518300  0.18136100  1
  C  968  1  0.64945500  0.64027700  0.70291900  1
  C  969  1  0.64527400  0.66067900  0.71843400  1
  C  970  1  0.63803200  0.65738700  0.74386800  1
  C  971  1  0.63314200  0.63404100  0.75420100  1
  C  972  1  0.63927300  0.61448600  0.73806500  1
  C  973  1  0.64648400  0.61725700  0.71334400  1
  C  975  1  0.63802300  0.70006900  0.74909400  1
  C  976  1  0.64376800  0.70342000  0.72437700  1
  C  983  1  0.65340000  0.64287900  0.67797600  1
  C  985  1  0.63007200  0.62698000  0.77859100  1
  C  987  1  0.39947200  0.77819800  0.34083800  1
  C  988  1  0.39526700  0.76268300  0.32043400  1
  C  989  1  0.38803200  0.73725200  0.32372400  1
  C  990  1  0.38315300  0.72692200  0.34706400  1
  C  991  1  0.38926300  0.74305100  0.36662600  1
  C  992  1  0.39647400  0.76777000  0.36385700  1
  C  994  1  0.38801900  0.73201600  0.28104500  1
  C  995  1  0.39376700  0.75673300  0.27769200  1
  C  1002  1  0.40341000  0.80314700  0.33824400  1
  C  1004  1  0.38020500  0.70253700  0.35410200  1
  C  1006  1  0.39944300  0.22404900  0.61913500  1
  C  1007  1  0.39525400  0.23957100  0.63953500  1
  C  1008  1  0.38801900  0.26500400  0.63624300  1
  C  1009  1  0.38320400  0.27533200  0.61289600  1
  C  1010  1  0.38926300  0.25919600  0.59334100  1
  C  1011  1  0.39647000  0.23447700  0.59611400  1
  C  1013  1  0.38802700  0.27023800  0.67892600  1
  C  1014  1  0.39376600  0.24552100  0.68227800  1
  C  1021  1  0.40342400  0.19909800  0.62175500  1
  C  1023  1  0.38008600  0.29971400  0.60582900  1
  H  9  1  0.17943500  0.09884600  0.31385400  1
  H  17  1  0.03763000  0.19005700  0.43559300  1
  H  19  1  0.16650300  0.12599400  0.42955800  1
  H  20  1  0.20323600  0.10249700  0.39844100  1
  H  21  1  0.01285500  0.18769700  0.34990700  1
  H  22  1  0.04719300  0.16363300  0.31949700  1
  H  35  1  0.17943600  0.90340500  0.64611700  1
  H  43  1  0.03767600  0.81224900  0.52433100  1
  H  45  1  0.16658700  0.87626800  0.53043700  1
  H  46  1  0.20325200  0.89976300  0.56153900  1
  H  47  1  0.01285200  0.81455500  0.61005400  1
  H  48  1  0.04719400  0.83862100  0.64046900  1
  H  61  1  0.82507200  0.33499400  0.88226300  1
  H  69  1  0.96682900  0.45677900  0.79110200  1
  H  71  1  0.83790700  0.45067300  0.85512500  1
  H  72  1  0.80125300  0.41957200  0.87862000  1
  H  73  1  0.99165800  0.37105600  0.79341300  1
  H  74  1  0.95731400  0.34064200  0.81747700  1
  H  87  1  0.82517000  0.66731300  0.07776400  1
  H  95  1  0.96687200  0.54551600  0.16892000  1
  H  97  1  0.83800200  0.55155200  0.10484400  1
  H  98  1  0.80124200  0.58267500  0.08134000  1
  H  99  1  0.99166000  0.63120000  0.16655700  1
  H  100  1  0.95730800  0.66160900  0.14249300  1
  H  113  1  0.57498000  0.40346400  0.31380100  1
  H  121  1  0.71867600  0.31177000  0.43545800  1
  H  123  1  0.58763400  0.37643700  0.42966100  1
  H  124  1  0.55101000  0.39988500  0.39844600  1
  H  125  1  0.74114200  0.31474000  0.35022700  1
  H  126  1  0.70727800  0.33868600  0.31948000  1
  H  139  1  0.57505000  0.59884000  0.64620100  1
  H  147  1  0.71862500  0.69046500  0.52446400  1
  H  149  1  0.58760500  0.62580400  0.53031200  1
  H  150  1  0.55098200  0.60236000  0.56152800  1
  H  151  1  0.74115700  0.68751800  0.60973000  1
  H  152  1  0.70727300  0.66357200  0.64047900  1
  H  165  1  0.92929800  0.16737400  0.88125100  1
  H  173  1  0.78765000  0.04548200  0.79106000  1
  H  175  1  0.91662600  0.05156700  0.85515500  1
  H  176  1  0.95333400  0.08273400  0.87865400  1
  H  177  1  0.76287200  0.13115200  0.79324700  1
  H  178  1  0.79889600  0.16196900  0.81697500  1
  H  191  1  0.92892700  0.83480300  0.07890300  1
  H  199  1  0.78766400  0.95678300  0.16889100  1
  H  201  1  0.91663300  0.95071600  0.10483400  1
  H  202  1  0.95337200  0.91957300  0.08129200  1
  H  203  1  0.76287000  0.87109700  0.16672300  1
  H  204  1  0.79891500  0.84028300  0.14298800  1
  H  217  1  0.67930800  0.59984500  0.81377600  1
  H  225  1  0.53762800  0.69006300  0.93560900  1
  H  227  1  0.66657500  0.62597300  0.92956000  1
  H  228  1  0.70331400  0.60246800  0.89839700  1
  H  229  1  0.51287300  0.68786000  0.84995000  1
  H  230  1  0.54890800  0.66413400  0.81913000  1
  H  243  1  0.67932200  0.40245600  0.14619000  1
  H  251  1  0.53762800  0.31219100  0.02436200  1
  H  253  1  0.66656900  0.37628500  0.03041200  1
  H  254  1  0.70330800  0.39978500  0.06157200  1
  H  255  1  0.51288400  0.31439900  0.11002400  1
  H  256  1  0.54891400  0.33812200  0.14083200  1
  H  269  1  0.32497800  0.83494700  0.38231700  1
  H  277  1  0.46830800  0.95678800  0.29080200  1
  H  279  1  0.33752400  0.95077500  0.35531000  1
  H  280  1  0.30098800  0.91957500  0.37874900  1
  H  281  1  0.49121300  0.87144400  0.29355900  1
  H  282  1  0.45728100  0.84064200  0.31752200  1
  H  295  1  0.32507500  0.16736500  0.57770900  1
  H  303  1  0.46884100  0.04570800  0.66945000  1
  H  305  1  0.33763800  0.05145000  0.60466800  1
  H  306  1  0.30097900  0.08267100  0.58121400  1
  H  307  1  0.49112900  0.13095500  0.66632400  1
  H  308  1  0.45725800  0.16163500  0.64242300  1
  H  321  1  0.07506500  0.90250100  0.81372800  1
  H  329  1  0.21868900  0.81176100  0.93546900  1
  H  331  1  0.08756300  0.87645900  0.92965700  1
  H  332  1  0.05094100  0.89991100  0.89840100  1
  H  333  1  0.24111900  0.81458000  0.85026400  1
  H  334  1  0.20553400  0.83817900  0.81910900  1
  H  347  1  0.07548400  0.10000900  0.14635400  1
  H  355  1  0.21887500  0.19058300  0.02460800  1
  H  357  1  0.08755700  0.12580500  0.03027700  1
  H  358  1  0.05085600  0.10232100  0.06152000  1
  H  359  1  0.24105500  0.18763800  0.10978800  1
  H  360  1  0.20549900  0.16405200  0.14087000  1
  H  373  1  0.42939100  0.66742000  0.38131200  1
  H  381  1  0.28567900  0.54571400  0.29056700  1
  H  383  1  0.41703900  0.55148100  0.35532900  1
  H  384  1  0.45360800  0.58273100  0.37878100  1
  H  385  1  0.26345100  0.63091400  0.29346600  1
  H  386  1  0.29898200  0.66200500  0.31704700  1
  H  399  1  0.42920400  0.33479400  0.57875000  1
  H  407  1  0.28618500  0.45678800  0.66919600  1
  H  409  1  0.41701800  0.45079700  0.60464300  1
  H  410  1  0.45361800  0.41954500  0.58117500  1
  H  411  1  0.26332300  0.37148700  0.66658000  1
  H  412  1  0.29895100  0.34027900  0.64294900  1
  H  427  1  0.82115200  0.27250000  0.47819000  1
  H  428  1  0.92269400  0.23385400  0.36555700  1
  H  429  1  0.85014700  0.26150200  0.36106800  1
  H  431  1  0.93935300  0.22752000  0.45199600  1
  H  433  1  0.97677400  0.21385700  0.42271800  1
  H  435  1  0.78600700  0.28422200  0.37467800  1
  H  446  1  0.82115400  0.72975500  0.48177500  1
  H  447  1  0.92269200  0.76840000  0.59440500  1
  H  448  1  0.85015900  0.74075500  0.59889600  1
  H  450  1  0.93935300  0.77473400  0.50797100  1
  H  452  1  0.97679800  0.78840200  0.53724200  1
  H  454  1  0.78604900  0.71807200  0.58521700  1
  H  465  1  0.18335300  0.49936500  0.70861600  1
  H  466  1  0.08183800  0.38674700  0.74725600  1
  H  467  1  0.15418900  0.38221800  0.71969600  1
  H  469  1  0.06515600  0.47315000  0.75359600  1
  H  471  1  0.02770700  0.44387400  0.76726000  1
  H  473  1  0.21886300  0.39499600  0.69662500  1
  H  484  1  0.18336100  0.50295300  0.25136000  1
  H  485  1  0.08177600  0.61559900  0.21270900  1
  H  486  1  0.15469200  0.62007300  0.24049900  1
  H  488  1  0.06518200  0.52913400  0.20638700  1
  H  490  1  0.02775200  0.55839400  0.19271700  1
  H  492  1  0.21784200  0.60530900  0.26308900  1
  H  503  1  0.57113600  0.00295600  0.70860700  1
  H  504  1  0.67269800  0.11559400  0.74729200  1
  H  505  1  0.59988000  0.12006700  0.71952900  1
  H  507  1  0.68932000  0.02912900  0.75358200  1
  H  509  1  0.72676300  0.05838500  0.76724800  1
  H  511  1  0.53626800  0.10562300  0.69721500  1
  H  522  1  0.57115500  0.99936300  0.25135100  1
  H  523  1  0.67266600  0.88674700  0.21271100  1
  H  524  1  0.60032500  0.88221800  0.24028300  1
  H  526  1  0.68935000  0.97315200  0.20637300  1
  H  528  1  0.72678400  0.94387600  0.19271200  1
  H  530  1  0.53537000  0.89500500  0.26322700  1
  H  541  1  0.32115300  0.77250000  0.97818900  1
  H  542  1  0.42269300  0.73385400  0.86555500  1
  H  543  1  0.35012800  0.76150600  0.86106800  1
  H  545  1  0.43935100  0.72752000  0.95199800  1
  H  547  1  0.47676000  0.71385900  0.92272200  1
  H  549  1  0.28597400  0.78418100  0.87474600  1
  H  560  1  0.32114900  0.22975300  0.98181100  1
  H  561  1  0.42276400  0.26840400  0.09445700  1
  H  562  1  0.34987000  0.24063700  0.09895300  1
  H  564  1  0.43933000  0.27472200  0.00799000  1
  H  566  1  0.47675000  0.28839100  0.03725000  1
  H  568  1  0.28676500  0.21800200  0.08435100  1
  H  579  1  0.27223900  0.21407600  0.54001500  1
  H  580  1  0.15096800  0.11403900  0.48267800  1
  H  581  1  0.20008900  0.10207100  0.51673400  1
  H  583  1  0.17589700  0.19974800  0.48225000  1
  H  585  1  0.15704300  0.17371600  0.45768200  1
  H  587  1  0.24816600  0.10713300  0.54972300  1
  H  598  1  0.27225100  0.78816300  0.41994900  1
  H  599  1  0.15087100  0.88816500  0.47729100  1
  H  600  1  0.20008000  0.90015600  0.44327700  1
  H  602  1  0.17581700  0.80248300  0.47767700  1
  H  604  1  0.15692100  0.82845100  0.50228700  1
  H  606  1  0.24787500  0.89512200  0.41027200  1
  H  617  1  0.73225600  0.56116900  0.76702200  1
  H  618  1  0.85364000  0.50382800  0.86701900  1
  H  619  1  0.80439200  0.53786800  0.87901600  1
  H  621  1  0.82869400  0.50344100  0.78134100  1
  H  623  1  0.84764400  0.47884200  0.80730900  1
  H  625  1  0.75640500  0.57101400  0.87396700  1
  H  636  1  0.73227000  0.44109000  0.19295400  1
  H  637  1  0.85351800  0.49841500  0.09291400  1
  H  638  1  0.80437800  0.46436500  0.08095500  1
  H  640  1  0.82862000  0.49885700  0.17860900  1
  H  642  1  0.84747500  0.52342700  0.15256800  1
  H  644  1  0.75642800  0.43127800  0.08600100  1
  H  655  1  0.48227000  0.28816900  0.54002600  1
  H  656  1  0.60350800  0.38820800  0.48270100  1
  H  657  1  0.55437000  0.40020300  0.51677800  1
  H  659  1  0.57861100  0.30249900  0.48227600  1
  H  661  1  0.59732000  0.32855900  0.45774500  1
  H  663  1  0.50596200  0.39521500  0.54997100  1
  H  674  1  0.48226100  0.71407800  0.41994500  1
  H  675  1  0.60357600  0.61404800  0.47728800  1
  H  676  1  0.55438700  0.60206900  0.44321400  1
  H  678  1  0.57863200  0.69976600  0.47768800  1
  H  680  1  0.59734000  0.67373700  0.50223600  1
  H  682  1  0.50624400  0.60718300  0.41015200  1
  H  693  1  0.02223800  0.94109200  0.76701800  1
  H  694  1  0.90095200  0.99842200  0.86704800  1
  H  695  1  0.95012000  0.96437500  0.87902000  1
  H  697  1  0.92586500  0.99883900  0.78135200  1
  H  699  1  0.90700600  0.02342500  0.80734300  1
  H  701  1  0.99808600  0.93129400  0.87397600  1
  H  712  1  0.02225900  0.06116600  0.19292400  1
  H  713  1  0.90094000  0.00382500  0.09292900  1
  H  714  1  0.95009100  0.03791400  0.08088800  1
  H  716  1  0.92585500  0.00342900  0.17860300  1
  H  718  1  0.90700000  0.97883300  0.15260600  1
  H  720  1  0.00045600  0.07080000  0.08564200  1
  H  731  1  0.77223900  0.71407600  0.04001500  1
  H  732  1  0.65097300  0.61403900  0.98267900  1
  H  733  1  0.70009800  0.60207300  0.01673800  1
  H  735  1  0.67589800  0.69974800  0.98225200  1
  H  737  1  0.65705100  0.67371700  0.95768600  1
  H  739  1  0.74818000  0.60714000  0.04973200  1
  H  750  1  0.77223300  0.28815800  0.91995600  1
  H  751  1  0.65098800  0.38820400  0.97727900  1
  H  752  1  0.70010500  0.40015800  0.94324200  1
  H  754  1  0.67588800  0.30249900  0.97771700  1
  H  756  1  0.65705100  0.32852800  0.00228400  1
  H  758  1  0.74791200  0.39511600  0.91025100  1
  H  769  1  0.23225100  0.06116700  0.26701800  1
  H  770  1  0.35364000  0.00382700  0.36702300  1
  H  771  1  0.30441800  0.03784700  0.37901600  1
  H  773  1  0.32869700  0.00345200  0.28132900  1
  H  775  1  0.34748400  0.97889800  0.30732900  1
  H  777  1  0.25660000  0.07084900  0.37397500  1
  H  788  1  0.23226700  0.94109400  0.69295800  1
  H  789  1  0.35351700  0.99841500  0.59291200  1
  H  790  1  0.30439700  0.96438200  0.58095100  1
  H  792  1  0.32862100  0.99884400  0.67862200  1
  H  794  1  0.34733200  0.02337300  0.65255000  1
  H  796  1  0.25657800  0.93139300  0.58599100  1
  H  807  1  0.98227500  0.78817400  0.04002600  1
  H  808  1  0.10350700  0.88820400  0.98271000  1
  H  809  1  0.05436500  0.90023000  0.01679900  1
  H  811  1  0.07860800  0.80250600  0.98228100  1
  H  813  1  0.09731300  0.82855900  0.95774900  1
  H  815  1  0.00502500  0.89538200  0.04995200  1
  H  826  1  0.98226100  0.21407800  0.91994500  1
  H  827  1  0.10357200  0.11404800  0.97728400  1
  H  828  1  0.05437800  0.10207200  0.94320800  1
  H  830  1  0.07863000  0.19976400  0.97768800  1
  H  832  1  0.09734400  0.17373700  0.00223500  1
  H  834  1  0.00622700  0.10718900  0.91014100  1
  H  845  1  0.52225500  0.44108900  0.26702000  1
  H  846  1  0.40088000  0.49842900  0.36702500  1
  H  847  1  0.45008700  0.46441100  0.37902000  1
  H  849  1  0.42582200  0.49880500  0.28132900  1
  H  851  1  0.40703700  0.52336400  0.30731800  1
  H  853  1  0.49789500  0.43141400  0.37398200  1
  H  864  1  0.52225700  0.56116600  0.69293600  1
  H  865  1  0.40090200  0.50382300  0.59292100  1
  H  866  1  0.45008700  0.53786300  0.58093400  1
  H  868  1  0.42583800  0.50343400  0.67862900  1
  H  870  1  0.40715600  0.47888500  0.65258800  1
  H  872  1  0.49813300  0.57084200  0.58599400  1
  H  883  1  0.11924100  0.21445300  0.19960300  1
  H  884  1  0.10526200  0.10208100  0.25694000  1
  H  885  1  0.11629000  0.09710100  0.21585200  1
  H  887  1  0.10319700  0.18792500  0.26663400  1
  H  889  1  0.09709900  0.15893600  0.28855300  1
  H  891  1  0.11209400  0.11022900  0.17900700  1
  H  902  1  0.11923200  0.78779700  0.76036600  1
  H  903  1  0.10527500  0.90017300  0.70303100  1
  H  904  1  0.11628500  0.90514800  0.74412400  1
  H  906  1  0.10320500  0.81431700  0.69333300  1
  H  908  1  0.09701500  0.84331500  0.67144600  1
  H  910  1  0.11202100  0.89201100  0.78098000  1
  H  921  1  0.88526000  0.22074400  0.76665500  1
  H  922  1  0.89925300  0.27808200  0.87902400  1
  H  923  1  0.88820500  0.23699700  0.88400600  1
  H  925  1  0.90130700  0.28777600  0.79317500  1
  H  927  1  0.90747800  0.30966400  0.82217100  1
  H  929  1  0.89223000  0.20011600  0.87090400  1
  H  940  1  0.88527000  0.78150800  0.19331500  1
  H  941  1  0.89924900  0.72417400  0.08094400  1
  H  942  1  0.88820100  0.76526100  0.07596100  1
  H  944  1  0.90131700  0.71447800  0.16678700  1
  H  946  1  0.90741500  0.69257200  0.13779500  1
  H  948  1  0.89218600  0.80213300  0.08906400  1
  H  959  1  0.63528000  0.28779900  0.19960400  1
  H  960  1  0.64922700  0.40018200  0.25692900  1
  H  961  1  0.63824600  0.40514600  0.21581700  1
  H  963  1  0.65130800  0.31432400  0.26663800  1
  H  965  1  0.65737800  0.34332000  0.28854400  1
  H  967  1  0.64266200  0.39195200  0.17895600  1
  H  978  1  0.63526700  0.71445900  0.76036600  1
  H  979  1  0.64925200  0.60208500  0.70303600  1
  H  980  1  0.63820200  0.59710300  0.74412100  1
  H  982  1  0.65131800  0.68793000  0.69333500  1
  H  984  1  0.65737800  0.65892700  0.67143600  1
  H  986  1  0.64226500  0.61020300  0.78100400  1
  H  997  1  0.38527300  0.72074400  0.26665700  1
  H  998  1  0.39925300  0.77807800  0.37902900  1
  H  999  1  0.38821800  0.73699200  0.38400800  1
  H  1001  1  0.40131500  0.78777600  0.29317800  1
  H  1003  1  0.40740800  0.80966100  0.32218500  1
  H  1005  1  0.39241400  0.70013900  0.37087700  1
  H  1016  1  0.38526100  0.28151000  0.69331300  1
  H  1017  1  0.39924500  0.22416900  0.58094200  1
  H  1018  1  0.38820100  0.26524800  0.57595700  1
  H  1020  1  0.40130600  0.21448000  0.66679600  1
  H  1022  1  0.40740800  0.19259000  0.63780500  1
  H  1024  1  0.39223200  0.30210800  0.58904700  1
  N  23  1  0.11510000  0.12722700  0.29769400  1
  N  24  1  0.21481500  0.08672900  0.35169800  1
  N  25  1  0.99485200  0.20305800  0.39187900  1
  N  26  1  0.09854600  0.15283300  0.45007200  1
  N  49  1  0.11507000  0.87504800  0.66227100  1
  N  50  1  0.21481400  0.91552600  0.60829000  1
  N  51  1  0.99488800  0.79920000  0.56807200  1
  N  52  1  0.09882700  0.84959100  0.50993600  1
  N  75  1  0.88944700  0.31884000  0.85390400  1
  N  76  1  0.78971000  0.37283100  0.89438800  1
  N  77  1  0.00963000  0.41303800  0.77805500  1
  N  78  1  0.90567300  0.47116000  0.82846900  1
  N  101  1  0.88945800  0.68340400  0.10609500  1
  N  102  1  0.78971800  0.62968000  0.06551300  1
  N  103  1  0.00966000  0.58923000  0.18191600  1
  N  104  1  0.90597300  0.53104000  0.13168000  1
  N  127  1  0.63936600  0.37506100  0.29764600  1
  N  128  1  0.53962600  0.41556200  0.35166600  1
  N  129  1  0.75419200  0.30106100  0.39507000  1
  N  130  1  0.65585600  0.34959300  0.45030300  1
  N  153  1  0.63939800  0.62721000  0.66230300  1
  N  154  1  0.53964700  0.58664000  0.60849500  1
  N  155  1  0.75414700  0.70118200  0.56509800  1
  N  156  1  0.65572300  0.65259700  0.50967400  1
  N  179  1  0.86605600  0.18248500  0.84420100  1
  N  180  1  0.96446200  0.12987100  0.89446100  1
  N  181  1  0.74485800  0.08921300  0.77804800  1
  N  182  1  0.84870400  0.03105500  0.82836000  1
  N  205  1  0.86610500  0.81980200  0.11575200  1
  N  206  1  0.96464700  0.87130700  0.06517000  1
  N  207  1  0.74486200  0.91304400  0.18192100  1
  N  208  1  0.84871100  0.97119400  0.13156800  1
  N  231  1  0.61607900  0.63689300  0.79863500  1
  N  232  1  0.71450500  0.58663500  0.85123700  1
  N  233  1  0.49484600  0.70306300  0.89189100  1
  N  234  1  0.59855000  0.65283200  0.95008100  1
  N  257  1  0.61572700  0.36542600  0.16134100  1
  N  258  1  0.71452800  0.41556200  0.10858900  1
  N  259  1  0.49485000  0.29918900  0.06808000  1
  N  260  1  0.59855800  0.34942100  0.00988800  1
  N  283  1  0.38940200  0.81880700  0.35392600  1
  N  284  1  0.28963700  0.87281700  0.39442400  1
  N  285  1  0.50485700  0.91748400  0.27976300  1
  N  286  1  0.40553100  0.97140400  0.32865900  1
  N  309  1  0.38942700  0.18345800  0.60605400  1
  N  310  1  0.28964700  0.12971500  0.56547500  1
  N  311  1  0.50329200  0.08734600  0.68011000  1
  N  312  1  0.40587300  0.03081200  0.63152700  1
  N  335  1  0.13859200  0.86541700  0.79860800  1
  N  336  1  0.03992400  0.91560300  0.85135000  1
  N  337  1  0.25411900  0.80106500  0.89489400  1
  N  338  1  0.15585200  0.84959300  0.95031200  1
  N  361  1  0.13848700  0.13683900  0.16134200  1
  N  362  1  0.03971200  0.08629300  0.10988600  1
  N  363  1  0.25380700  0.20110100  0.06573800  1
  N  364  1  0.15575800  0.15262400  0.00968100  1
  N  387  1  0.36597800  0.68250600  0.34424400  1
  N  388  1  0.46453600  0.62989900  0.39449700  1
  N  389  1  0.25076700  0.58685900  0.28000600  1
  N  390  1  0.34893400  0.53085700  0.32860900  1
  N  413  1  0.36612100  0.31976000  0.61573300  1
  N  414  1  0.46462800  0.37180800  0.56530500  1
  N  415  1  0.24965400  0.41748200  0.68021400  1
  N  416  1  0.34884600  0.47143600  0.63137900  1
  N  423  1  0.82598400  0.27054500  0.44118900  1
  N  426  1  0.91000200  0.23867500  0.44778900  1
  N  442  1  0.82597800  0.73170400  0.51877800  1
  N  445  1  0.91000200  0.76357900  0.51217800  1
  N  461  1  0.17860100  0.46234900  0.71053200  1
  N  464  1  0.09451400  0.46895000  0.74243500  1
  N  480  1  0.17841200  0.53993800  0.24935100  1
  N  483  1  0.09451700  0.53334700  0.21753900  1
  N  499  1  0.57607800  0.03994100  0.71060200  1
  N  502  1  0.65998000  0.03334400  0.74243400  1
  N  518  1  0.57592400  0.96234900  0.24944400  1
  N  521  1  0.65999500  0.96895000  0.21753300  1
  N  537  1  0.32599000  0.77054300  0.94118700  1
  N  540  1  0.41000100  0.73867500  0.94778700  1
  N  556  1  0.32609100  0.23176900  0.01880600  1
  N  559  1  0.40999700  0.26357000  0.01220700  1
  N  575  1  0.25263800  0.17818400  0.53494100  1
  N  578  1  0.19618600  0.19277700  0.49554500  1
  N  594  1  0.25267200  0.82406100  0.42502400  1
  N  597  1  0.19616800  0.80946100  0.46440400  1
  N  613  1  0.75183200  0.55609300  0.80292100  1
  N  616  1  0.80832400  0.51670800  0.78832100  1
  N  632  1  0.75184500  0.44616100  0.15705800  1
  N  635  1  0.80830300  0.48556600  0.17164300  1
  N  651  1  0.50185000  0.32407200  0.53495700  1
  N  654  1  0.55828800  0.30947600  0.49555900  1
  N  670  1  0.50185700  0.67818400  0.42501900  1
  N  673  1  0.55832400  0.69278400  0.46440400  1
  N  689  1  0.00266400  0.94616300  0.80291500  1
  N  692  1  0.94619200  0.98555800  0.78832700  1
  N  708  1  0.00263400  0.05609200  0.15701400  1
  N  711  1  0.94619200  0.01671100  0.17162600  1
  N  727  1  0.75263800  0.67818400  0.03494100  1
  N  730  1  0.69618700  0.69277700  0.99554500  1
  N  746  1  0.75265900  0.32405200  0.92502400  1
  N  749  1  0.69620200  0.30946900  0.96442700  1
  N  765  1  0.25182200  0.05609400  0.30291400  1
  N  768  1  0.30831700  0.01671400  0.28831200  1
  N  784  1  0.25183700  0.94615900  0.65706200  1
  N  787  1  0.30829700  0.98556000  0.67164900  1
  N  803  1  0.00185200  0.82408600  0.03495600  1
  N  806  1  0.05828300  0.80948500  0.99556500  1
  N  822  1  0.00185800  0.17818500  0.92501900  1
  N  825  1  0.05832500  0.19278400  0.96440400  1
  N  841  1  0.50268100  0.44616100  0.30291600  1
  N  844  1  0.44618000  0.48553900  0.28831400  1
  N  860  1  0.50266000  0.55609000  0.65704400  1
  N  863  1  0.44618400  0.51670700  0.67164900  1
  N  879  1  0.11924900  0.17737900  0.20213700  1
  N  882  1  0.10724000  0.18395300  0.24989500  1
  N  898  1  0.11924600  0.82487000  0.75782600  1
  N  901  1  0.10724800  0.81829400  0.71007000  1
  N  917  1  0.88525100  0.22328100  0.80373000  1
  N  920  1  0.89727100  0.27103700  0.79715200  1
  N  936  1  0.88525400  0.77897500  0.15624000  1
  N  939  1  0.89727300  0.73121700  0.16281300  1
  N  955  1  0.63527600  0.32487200  0.20214200  1
  N  958  1  0.64726200  0.31829900  0.24989900  1
  N  974  1  0.63525200  0.67738400  0.75783400  1
  N  977  1  0.64727300  0.68395700  0.71007400  1
  N  993  1  0.38526100  0.72328100  0.30373000  1
  N  996  1  0.39727100  0.77103900  0.29715400  1
  N  1012  1  0.38524900  0.27897400  0.65623800  1
  N  1015  1  0.39726700  0.23121800  0.66281700  1
  O  430  1  0.90123500  0.24200800  0.48955000  1
  O  449  1  0.90123700  0.76024800  0.47041700  1
  O  468  1  0.10326700  0.51070600  0.73910800  1
  O  487  1  0.10327600  0.49156900  0.22086600  1
  O  506  1  0.65122600  0.99156900  0.73910100  1
  O  525  1  0.65124300  0.01070500  0.22086100  1
  O  544  1  0.40123500  0.74200800  0.98955000  1
  O  563  1  0.40123000  0.26024600  0.97042800  1
  O  582  1  0.22064200  0.23277500  0.50261100  1
  O  601  1  0.22064200  0.76947000  0.45735700  1
  O  620  1  0.78386300  0.52375900  0.74832600  1
  O  639  1  0.78386900  0.47850100  0.21164400  1
  O  658  1  0.53386400  0.26947200  0.50261500  1
  O  677  1  0.53386400  0.73277500  0.45735600  1
  O  696  1  0.97063900  0.97850300  0.74833000  1
  O  715  1  0.97065400  0.02376300  0.21163400  1
  O  734  1  0.72064200  0.73277500  0.00261100  1
  O  753  1  0.72063600  0.26946800  0.95736300  1
  O  772  1  0.28386100  0.02375700  0.24832300  1
  O  791  1  0.28386900  0.97850300  0.71164600  1
  O  810  1  0.03386400  0.76947300  0.00261500  1
  O  829  1  0.03386400  0.23277500  0.95735500  1
  O  848  1  0.47064600  0.47849700  0.24832400  1
  O  867  1  0.47065200  0.52376000  0.71164100  1
  O  886  1  0.10846800  0.22571100  0.24517100  1
  O  905  1  0.10846700  0.77653600  0.71480000  1
  O  924  1  0.89604200  0.26631100  0.75539400  1
  O  943  1  0.89604200  0.73594000  0.20457100  1
  O  962  1  0.64604400  0.27654200  0.24517100  1
  O  981  1  0.64604400  0.72571600  0.71479800  1
  O  1000  1  0.39604300  0.76631100  0.25539800  1
  O  1019  1  0.39604300  0.23594200  0.70457400  1
