# generated using pymatgen
data_H13(C8N3)2
_symmetry_space_group_name_H-M   'P 1'
_cell_length_a   57.82390000
_cell_length_b   63.17520000
_cell_length_c   63.37200000
_cell_angle_alpha   90.00000000
_cell_angle_beta   90.00000000
_cell_angle_gamma   90.00000000
_symmetry_Int_Tables_number   1
_chemical_formula_structural   H13(C8N3)2
_chemical_formula_sum   'H832 C1024 N384'
_cell_volume   231500.22573703
_cell_formula_units_Z   64
loop_
 _symmetry_equiv_pos_site_id
 _symmetry_equiv_pos_as_xyz
  1  'x, y, z'
loop_
 _atom_site_type_symbol
 _atom_site_label
 _atom_site_symmetry_multiplicity
 _atom_site_fract_x
 _atom_site_fract_y
 _atom_site_fract_z
 _atom_site_occupancy
  H  7  1  0.99120300  0.40631500  0.88345300  1
  H  16  1  0.94582800  0.36591100  0.86678200  1
  H  19  1  0.98366000  0.33795600  0.85593500  1
  H  20  1  0.98768400  0.34002300  0.83028400  1
  H  21  1  0.01550400  0.37120000  0.92281900  1
  H  22  1  0.01927100  0.37359500  0.89717800  1
  H  23  1  0.93722900  0.35191400  0.95016200  1
  H  24  1  0.91569600  0.35054800  0.93353200  1
  H  25  1  0.99793800  0.41218400  0.79932900  1
  H  26  1  0.00025000  0.43231600  0.81523800  1
  H  33  1  0.49128300  0.07748000  0.11998800  1
  H  42  1  0.44582300  0.11779200  0.13667300  1
  H  45  1  0.48347500  0.14583200  0.14748400  1
  H  46  1  0.48742300  0.14377700  0.17314600  1
  H  47  1  0.51552100  0.11277900  0.08061600  1
  H  48  1  0.51930000  0.11032800  0.10625100  1
  H  49  1  0.43716600  0.13172400  0.05327300  1
  H  50  1  0.41563100  0.13304000  0.06990600  1
  H  51  1  0.49804700  0.07167000  0.20411700  1
  H  52  1  0.50039000  0.05153400  0.18821900  1
  H  59  1  0.24177900  0.35942600  0.16765400  1
  H  68  1  0.19565600  0.37701200  0.12779100  1
  H  71  1  0.23304400  0.38792300  0.09997000  1
  H  72  1  0.23742800  0.41356800  0.10221800  1
  H  73  1  0.26526900  0.32055500  0.13145200  1
  H  74  1  0.26909800  0.34619300  0.13446700  1
  H  75  1  0.18687400  0.29364200  0.11224000  1
  H  76  1  0.16536200  0.31037200  0.11111300  1
  H  77  1  0.24963400  0.44354500  0.17460400  1
  H  78  1  0.25344400  0.42720800  0.19419100  1
  H  85  1  0.74165400  0.12439500  0.83581700  1
  H  94  1  0.69558300  0.10685300  0.87571000  1
  H  97  1  0.73305200  0.09589200  0.90351600  1
  H  98  1  0.73752400  0.07026000  0.90126400  1
  H  99  1  0.76529100  0.16320700  0.87186100  1
  H  100  1  0.76907500  0.13755900  0.86890200  1
  H  101  1  0.68696700  0.19024100  0.89122900  1
  H  102  1  0.66542100  0.17354900  0.89235400  1
  H  103  1  0.74959700  0.04028700  0.82888000  1
  H  104  1  0.75336200  0.05661400  0.80927200  1
  H  111  1  0.46886000  0.07644700  0.88522800  1
  H  120  1  0.51278800  0.11908100  0.86856500  1
  H  123  1  0.47417600  0.14528400  0.85838700  1
  H  124  1  0.47056900  0.14330500  0.83268500  1
  H  125  1  0.44474000  0.10952600  0.92572100  1
  H  126  1  0.44052900  0.10705200  0.90013900  1
  H  127  1  0.52181800  0.13398100  0.95166600  1
  H  128  1  0.54258700  0.13733500  0.93448200  1
  H  129  1  0.46262400  0.07115700  0.80104300  1
  H  130  1  0.46057100  0.05088500  0.81679900  1
  H  137  1  0.96879000  0.40740100  0.11823000  1
  H  146  1  0.01280800  0.36487800  0.13488100  1
  H  149  1  0.97437100  0.33855400  0.14503800  1
  H  150  1  0.97083300  0.34051400  0.17074900  1
  H  151  1  0.94468400  0.37413000  0.07774000  1
  H  152  1  0.94048000  0.37667000  0.10331800  1
  H  153  1  0.02181000  0.34989200  0.05178400  1
  H  154  1  0.04259900  0.34660500  0.06896500  1
  H  155  1  0.96251100  0.41261600  0.20242100  1
  H  156  1  0.96042700  0.43289800  0.18667900  1
  H  163  1  0.21821300  0.12604300  0.16880600  1
  H  172  1  0.26290700  0.10840900  0.12679500  1
  H  175  1  0.22467900  0.09827700  0.10057900  1
  H  176  1  0.22070500  0.07257400  0.10273600  1
  H  177  1  0.19495600  0.16614400  0.13457100  1
  H  178  1  0.19064300  0.14057000  0.13764200  1
  H  179  1  0.27217800  0.19144400  0.11019600  1
  H  180  1  0.29294500  0.17413300  0.10721500  1
  H  181  1  0.21086100  0.04184800  0.17514400  1
  H  182  1  0.20729200  0.05801000  0.19490800  1
  H  189  1  0.71832300  0.35777400  0.83465900  1
  H  198  1  0.76295000  0.37540100  0.87671000  1
  H  201  1  0.72463200  0.38556000  0.90289200  1
  H  202  1  0.72057300  0.41125200  0.90071900  1
  H  203  1  0.69497600  0.31770400  0.86870700  1
  H  204  1  0.69067900  0.34328200  0.86567600  1
  H  205  1  0.77212800  0.29235900  0.89332000  1
  H  206  1  0.79291100  0.30965200  0.89629800  1
  H  207  1  0.71086600  0.44195700  0.82831400  1
  H  208  1  0.70735000  0.42579900  0.80853200  1
  H  215  1  0.97137800  0.57271600  0.12185700  1
  H  224  1  0.01514600  0.61387600  0.13678300  1
  H  227  1  0.97875000  0.64224900  0.14660900  1
  H  228  1  0.97363100  0.64126000  0.17214900  1
  H  229  1  0.94579100  0.60695900  0.08059600  1
  H  230  1  0.94193000  0.60499100  0.10626100  1
  H  231  1  0.02411200  0.62601800  0.05311400  1
  H  232  1  0.04559400  0.62758400  0.06976400  1
  H  233  1  0.95144100  0.57160900  0.20469300  1
  H  234  1  0.94649500  0.55190200  0.18871600  1
  H  241  1  0.47130700  0.91112100  0.88158500  1
  H  250  1  0.51514400  0.87005700  0.86663600  1
  H  253  1  0.47893900  0.84161300  0.85682500  1
  H  254  1  0.47388700  0.84259900  0.83127400  1
  H  255  1  0.44576600  0.87669000  0.92284700  1
  H  256  1  0.44189400  0.87871900  0.89718800  1
  H  257  1  0.52416800  0.85796100  0.95031900  1
  H  258  1  0.54565400  0.85645500  0.93366600  1
  H  259  1  0.45130700  0.91217500  0.79876600  1
  H  260  1  0.44636600  0.93188500  0.81474000  1
  H  267  1  0.71870300  0.62435000  0.83658400  1
  H  276  1  0.76683700  0.60709600  0.87398000  1
  H  279  1  0.73423700  0.59491300  0.90302300  1
  H  280  1  0.72991000  0.56929800  0.90054400  1
  H  281  1  0.69672600  0.66316100  0.87398800  1
  H  282  1  0.69285600  0.63753100  0.87107500  1
  H  283  1  0.77574700  0.69033200  0.89017100  1
  H  284  1  0.79748400  0.67380000  0.88996200  1
  H  285  1  0.69605700  0.54184100  0.83372900  1
  H  286  1  0.69368800  0.55763900  0.81348400  1
  H  293  1  0.21885800  0.85947200  0.16686100  1
  H  302  1  0.26690900  0.87668200  0.12939500  1
  H  305  1  0.23420600  0.88890500  0.10037000  1
  H  306  1  0.22979300  0.91450800  0.10284100  1
  H  307  1  0.19669000  0.82072100  0.12958300  1
  H  308  1  0.19287200  0.84636100  0.13246300  1
  H  309  1  0.27564200  0.79343200  0.11320300  1
  H  310  1  0.29741200  0.80992400  0.11340800  1
  H  311  1  0.19608900  0.94195600  0.16968200  1
  H  312  1  0.19380900  0.92619000  0.18996400  1
  H  319  1  0.49117600  0.91191900  0.12027200  1
  H  328  1  0.44942000  0.86829100  0.13534700  1
  H  331  1  0.48704600  0.84185500  0.14431000  1
  H  332  1  0.49184200  0.84284400  0.16989500  1
  H  333  1  0.51666400  0.88005000  0.07782400  1
  H  334  1  0.52107400  0.88216200  0.10341000  1
  H  335  1  0.43972000  0.85495000  0.05201800  1
  H  336  1  0.41911400  0.85120800  0.06927600  1
  H  337  1  0.51113500  0.91275800  0.20312400  1
  H  338  1  0.51535800  0.93276700  0.18736000  1
  H  345  1  0.99122800  0.57186400  0.88313400  1
  H  354  1  0.94940100  0.61538000  0.86807700  1
  H  357  1  0.98684400  0.64193100  0.85913000  1
  H  358  1  0.99158000  0.64096400  0.83353700  1
  H  359  1  0.01672700  0.60392300  0.92559200  1
  H  360  1  0.02112600  0.60174400  0.90000900  1
  H  361  1  0.93972500  0.62879900  0.95140400  1
  H  362  1  0.91909600  0.63247000  0.93415200  1
  H  363  1  0.01131200  0.57113400  0.80030900  1
  H  364  1  0.01551000  0.55110900  0.81605700  1
  H  371  1  0.74434300  0.85782600  0.83532600  1
  H  380  1  0.69786900  0.87546300  0.87505700  1
  H  383  1  0.73184200  0.88648800  0.90268600  1
  H  384  1  0.73589200  0.91213700  0.90028700  1
  H  385  1  0.76602500  0.81756400  0.87073300  1
  H  386  1  0.77060100  0.84309300  0.86770200  1
  H  387  1  0.68781600  0.79266000  0.89241900  1
  H  388  1  0.66682500  0.80992100  0.89412700  1
  H  389  1  0.76699800  0.94035700  0.83286600  1
  H  390  1  0.76882300  0.92480300  0.81237600  1
  H  397  1  0.24426400  0.62603600  0.16806000  1
  H  406  1  0.19783900  0.60837500  0.12828600  1
  H  409  1  0.23190300  0.59731400  0.10069600  1
  H  410  1  0.23603200  0.57167600  0.10311600  1
  H  411  1  0.26602500  0.66624100  0.13280400  1
  H  412  1  0.27058700  0.64071100  0.13581200  1
  H  413  1  0.18787400  0.69117700  0.11088200  1
  H  414  1  0.16686700  0.67393000  0.10917800  1
  H  415  1  0.26698000  0.54352100  0.17058500  1
  H  416  1  0.26874900  0.55907100  0.19108400  1
  H  423  1  0.49408200  0.90920600  0.38391100  1
  H  432  1  0.44498900  0.87228400  0.36706700  1
  H  435  1  0.47622200  0.84288400  0.35482200  1
  H  436  1  0.48094900  0.84510400  0.32933000  1
  H  437  1  0.51497800  0.87183500  0.42307200  1
  H  438  1  0.51896400  0.87440700  0.39750400  1
  H  439  1  0.43567700  0.85685700  0.45016700  1
  H  440  1  0.41394500  0.85749400  0.43370700  1
  H  441  1  0.51990300  0.90990200  0.30248400  1
  H  442  1  0.52330500  0.93010800  0.31826800  1
  H  449  1  0.99413100  0.57456100  0.61957200  1
  H  458  1  0.94501000  0.61140800  0.63640900  1
  H  461  1  0.97607100  0.64085300  0.64863800  1
  H  462  1  0.98075800  0.63863700  0.67413400  1
  H  463  1  0.01499000  0.61207600  0.58039200  1
  H  464  1  0.01899400  0.60946000  0.60595400  1
  H  465  1  0.93564000  0.62674600  0.55329200  1
  H  466  1  0.91391200  0.62606400  0.56975300  1
  H  467  1  0.02006200  0.57397100  0.70096200  1
  H  468  1  0.02346700  0.55375700  0.68518900  1
  H  475  1  0.74095400  0.86211000  0.67144900  1
  H  484  1  0.69654100  0.87728300  0.63109400  1
  H  487  1  0.73226500  0.88630900  0.60203200  1
  H  488  1  0.73825600  0.91177100  0.60255800  1
  H  489  1  0.76550800  0.82031800  0.63647700  1
  H  490  1  0.76962700  0.84600200  0.63862600  1
  H  491  1  0.68663500  0.79347800  0.61855200  1
  H  492  1  0.66522500  0.81031100  0.61746200  1
  H  493  1  0.76459600  0.94440600  0.67075800  1
  H  494  1  0.76981400  0.92842200  0.69037300  1
  H  501  1  0.24088500  0.62169700  0.33198400  1
  H  510  1  0.19649700  0.60654700  0.37237400  1
  H  513  1  0.23229200  0.59745800  0.40140900  1
  H  514  1  0.23836000  0.57201100  0.40086600  1
  H  515  1  0.26555100  0.66341100  0.36682300  1
  H  516  1  0.26962900  0.63771700  0.36472300  1
  H  517  1  0.18675000  0.69037100  0.38488900  1
  H  518  1  0.16530900  0.67357500  0.38598300  1
  H  519  1  0.26463100  0.53941100  0.33266100  1
  H  520  1  0.26979300  0.55539200  0.31303400  1
  H  527  1  0.96621900  0.57336900  0.38547600  1
  H  536  1  0.01362200  0.61275800  0.36830300  1
  H  539  1  0.98091700  0.64077200  0.35725700  1
  H  540  1  0.97651000  0.63862800  0.33172700  1
  H  541  1  0.94557000  0.60864000  0.42613800  1
  H  542  1  0.94086100  0.60588700  0.40068300  1
  H  543  1  0.02396500  0.62981400  0.45089600  1
  H  544  1  0.04499300  0.63125800  0.43370400  1
  H  545  1  0.94027600  0.57307800  0.30406500  1
  H  546  1  0.93737600  0.55260200  0.31959800  1
  H  553  1  0.46618100  0.91045300  0.61794600  1
  H  562  1  0.51361700  0.87115900  0.63516000  1
  H  565  1  0.48107300  0.84311500  0.64626000  1
  H  566  1  0.47672900  0.84530400  0.67179500  1
  H  567  1  0.44552000  0.87499400  0.57734900  1
  H  568  1  0.44081600  0.87782600  0.60279600  1
  H  569  1  0.52393600  0.85399200  0.55258500  1
  H  570  1  0.54497600  0.85260100  0.56977000  1
  H  571  1  0.44026300  0.91084100  0.69935900  1
  H  572  1  0.43740100  0.93131200  0.68381400  1
  H  579  1  0.71942500  0.62310400  0.67248300  1
  H  588  1  0.76193800  0.60751100  0.62979200  1
  H  591  1  0.72498500  0.59963800  0.60249200  1
  H  592  1  0.71919100  0.57414500  0.60303300  1
  H  593  1  0.69537600  0.66624000  0.63972700  1
  H  594  1  0.69052600  0.64066600  0.64202300  1
  H  595  1  0.77324000  0.69090900  0.61612700  1
  H  596  1  0.79378300  0.67339400  0.61312100  1
  H  597  1  0.69528600  0.54091200  0.67152500  1
  H  598  1  0.69082400  0.55668600  0.69145200  1
  H  605  1  0.21952200  0.86074200  0.33096600  1
  H  614  1  0.26196100  0.87627600  0.37373100  1
  H  617  1  0.22488300  0.88412100  0.40100800  1
  H  618  1  0.21901500  0.90960100  0.40048400  1
  H  619  1  0.19538600  0.81760000  0.36351400  1
  H  620  1  0.19055500  0.84317800  0.36126800  1
  H  621  1  0.27317100  0.79285900  0.38734800  1
  H  622  1  0.29372500  0.81035800  0.39038100  1
  H  623  1  0.19529700  0.94292300  0.33201600  1
  H  624  1  0.19090900  0.92718900  0.31204300  1
  H  631  1  0.46787100  0.07248700  0.62244000  1
  H  640  1  0.51601500  0.11018500  0.63666000  1
  H  643  1  0.48579300  0.14057300  0.64740700  1
  H  644  1  0.47995200  0.14000400  0.67281600  1
  H  645  1  0.44616500  0.10863600  0.58055000  1
  H  646  1  0.44214100  0.10663500  0.60616800  1
  H  647  1  0.52545600  0.12357700  0.55320900  1
  H  648  1  0.54714100  0.12326800  0.56972200  1
  H  649  1  0.43457200  0.08049400  0.70099600  1
  H  650  1  0.42946600  0.05996900  0.68583300  1
  H  657  1  0.96785000  0.41137100  0.38097700  1
  H  666  1  0.01599700  0.37373900  0.36673900  1
  H  669  1  0.98595800  0.34332800  0.35597900  1
  H  670  1  0.98014000  0.34390900  0.33056900  1
  H  671  1  0.94615400  0.37506400  0.42287300  1
  H  672  1  0.94211600  0.37711700  0.39726100  1
  H  673  1  0.02550200  0.36041400  0.45020000  1
  H  674  1  0.04718000  0.36076500  0.43368400  1
  H  675  1  0.93447200  0.40333400  0.30245400  1
  H  676  1  0.92940000  0.42387400  0.31760700  1
  H  683  1  0.21868700  0.12187700  0.33177400  1
  H  692  1  0.26600300  0.10660800  0.36958900  1
  H  695  1  0.23542400  0.09571000  0.39944900  1
  H  696  1  0.22931200  0.07030000  0.39850200  1
  H  697  1  0.19658000  0.16337400  0.36826700  1
  H  698  1  0.19237400  0.13772000  0.36612700  1
  H  699  1  0.27603500  0.19020000  0.38338700  1
  H  700  1  0.29760400  0.17349400  0.38317700  1
  H  701  1  0.18374300  0.04355400  0.33818700  1
  H  702  1  0.17960400  0.05901100  0.31771900  1
  H  709  1  0.71874500  0.36191900  0.67168100  1
  H  718  1  0.76605600  0.37715600  0.63382200  1
  H  721  1  0.73539900  0.38808600  0.60397500  1
  H  722  1  0.72920800  0.41348200  0.60490700  1
  H  723  1  0.69652900  0.32049500  0.63529300  1
  H  724  1  0.69237200  0.34615800  0.63740100  1
  H  725  1  0.77592000  0.29354600  0.62003200  1
  H  726  1  0.79752400  0.31021400  0.62024200  1
  H  727  1  0.68374000  0.44018900  0.66519600  1
  H  728  1  0.67961900  0.42478400  0.68571300  1
  H  735  1  0.99486100  0.41237600  0.62089400  1
  H  744  1  0.94852900  0.37226000  0.63552200  1
  H  747  1  0.98037700  0.34318700  0.64495000  1
  H  748  1  0.98602700  0.34374700  0.67038300  1
  H  749  1  0.01618100  0.37846800  0.57750700  1
  H  750  1  0.02099200  0.38066200  0.60300400  1
  H  751  1  0.93777700  0.35712900  0.55259400  1
  H  752  1  0.91684300  0.35537400  0.56984300  1
  H  753  1  0.02858200  0.40427000  0.69931800  1
  H  754  1  0.03306000  0.42513200  0.68443600  1
  H  761  1  0.49490800  0.07142600  0.38252800  1
  H  770  1  0.44853800  0.11142700  0.36788300  1
  H  773  1  0.48017000  0.14055600  0.35840400  1
  H  774  1  0.48579300  0.13997500  0.33297000  1
  H  775  1  0.51623000  0.10551200  0.42589100  1
  H  776  1  0.52104100  0.10325300  0.40039900  1
  H  777  1  0.43778800  0.12665300  0.45079700  1
  H  778  1  0.41684200  0.12834800  0.43354900  1
  H  779  1  0.52867800  0.07952600  0.30413100  1
  H  780  1  0.53313500  0.05865700  0.31901000  1
  H  787  1  0.24404100  0.36048800  0.33085300  1
  H  796  1  0.19851500  0.37604000  0.37109100  1
  H  799  1  0.23064700  0.38569400  0.39957700  1
  H  800  1  0.23640600  0.41116000  0.39863800  1
  H  801  1  0.26594700  0.31758100  0.36516900  1
  H  802  1  0.27084200  0.34313200  0.36288900  1
  H  803  1  0.18731200  0.29282100  0.38588000  1
  H  804  1  0.16641500  0.31016600  0.38757500  1
  H  805  1  0.27893700  0.43885800  0.33719300  1
  H  806  1  0.28249200  0.42367400  0.31642400  1
  H  813  1  0.74397800  0.12333600  0.67261700  1
  H  822  1  0.69848700  0.10778100  0.63231200  1
  H  825  1  0.73072400  0.09812200  0.60386000  1
  H  826  1  0.73654500  0.07266800  0.60480000  1
  H  827  1  0.76594900  0.16619800  0.63844000  1
  H  828  1  0.77082500  0.14064600  0.64069900  1
  H  829  1  0.68737900  0.19100500  0.61748900  1
  H  830  1  0.66646700  0.17367400  0.61578300  1
  H  831  1  0.77898800  0.04504200  0.66621400  1
  H  832  1  0.78251800  0.06018300  0.68702600  1
  H  839  1  0.97158200  0.39936400  0.69958500  1
  H  846  1  0.03255200  0.37673500  0.80412000  1
  H  847  1  0.96046900  0.36972100  0.80193100  1
  H  848  1  0.02318100  0.35275900  0.69790000  1
  H  850  1  0.04121300  0.37677900  0.74884000  1
  H  851  1  0.05359000  0.37778100  0.77227900  1
  H  853  1  0.95762200  0.41119300  0.73225100  1
  H  854  1  0.96735200  0.40228000  0.75503200  1
  H  861  1  0.47167400  0.08434200  0.30386300  1
  H  868  1  0.53256400  0.10723100  0.19930900  1
  H  869  1  0.46044300  0.11396800  0.20150500  1
  H  870  1  0.52311800  0.13109000  0.30554200  1
  H  872  1  0.54119200  0.10704200  0.25457500  1
  H  873  1  0.55358500  0.10615700  0.23113700  1
  H  875  1  0.45775700  0.07247000  0.27118400  1
  H  876  1  0.46748700  0.08140100  0.24840900  1
  H  883  1  0.21616000  0.54455700  0.15697400  1
  H  890  1  0.28249600  0.44004500  0.13967400  1
  H  891  1  0.21060900  0.44080900  0.13097100  1
  H  892  1  0.27350300  0.54576000  0.11648400  1
  H  894  1  0.28982700  0.49549900  0.14081400  1
  H  895  1  0.30266400  0.47222700  0.14168000  1
  H  897  1  0.20133400  0.51195800  0.16815900  1
  H  898  1  0.21265800  0.48904800  0.16130000  1
  H  905  1  0.71620100  0.93929600  0.84645100  1
  H  912  1  0.78251300  0.04379300  0.86380400  1
  H  913  1  0.71061500  0.04297100  0.87243100  1
  H  914  1  0.77351800  0.93805100  0.88698100  1
  H  916  1  0.78988900  0.98834100  0.86270900  1
  H  917  1  0.80271000  0.01162200  0.86183500  1
  H  919  1  0.70152200  0.97189500  0.83517300  1
  H  920  1  0.71291700  0.99478500  0.84201800  1
  H  927  1  0.49152600  0.08457100  0.70199800  1
  H  934  1  0.42795500  0.10639700  0.80518200  1
  H  935  1  0.50003600  0.11376700  0.80484300  1
  H  936  1  0.44062400  0.13177600  0.69948900  1
  H  938  1  0.42096800  0.10696800  0.74967500  1
  H  939  1  0.40788000  0.10562000  0.77278100  1
  H  941  1  0.50453900  0.07245400  0.73491400  1
  H  942  1  0.49433100  0.08135800  0.75753000  1
  H  949  1  0.99144000  0.39933100  0.30146400  1
  H  956  1  0.92793700  0.37728100  0.19826100  1
  H  957  1  0.00005300  0.37014900  0.19860000  1
  H  958  1  0.94067400  0.35200500  0.30396200  1
  H  960  1  0.92098800  0.37685100  0.25375200  1
  H  961  1  0.90788300  0.37809200  0.23064900  1
  H  963  1  0.00446100  0.41145400  0.26854000  1
  H  964  1  0.99426600  0.40254100  0.24592200  1
  H  971  1  0.24705900  0.94173400  0.15659800  1
  H  978  1  0.17794400  0.04470300  0.14050800  1
  H  979  1  0.24973800  0.04588100  0.13120100  1
  H  980  1  0.19012600  0.93958500  0.11566700  1
  H  982  1  0.17234100  0.98903800  0.14094000  1
  H  983  1  0.15878800  0.01195300  0.14224700  1
  H  985  1  0.26097900  0.97459700  0.16807600  1
  H  986  1  0.24910300  0.99729900  0.16128900  1
  H  993  1  0.74697700  0.54207200  0.84679500  1
  H  1000  1  0.67790400  0.43910100  0.86295000  1
  H  1001  1  0.74971300  0.43798900  0.87216100  1
  H  1002  1  0.69008200  0.54424400  0.88778300  1
  H  1004  1  0.67225000  0.49476400  0.86255400  1
  H  1005  1  0.65871400  0.47183900  0.86124600  1
  H  1007  1  0.76075300  0.50921800  0.83521700  1
  H  1008  1  0.74881600  0.48653300  0.84198800  1
  H  1015  1  0.99169800  0.58252600  0.30361400  1
  H  1022  1  0.92772600  0.61066400  0.19962900  1
  H  1023  1  0.00014300  0.60804800  0.20117900  1
  H  1024  1  0.93954600  0.62852600  0.30631500  1
  H  1026  1  0.91952200  0.61005500  0.25480600  1
  H  1027  1  0.90707500  0.61166100  0.23148400  1
  H  1029  1  0.00414900  0.57009900  0.27088500  1
  H  1030  1  0.99320600  0.57822300  0.24833200  1
  H  1037  1  0.49164700  0.90141500  0.69981800  1
  H  1044  1  0.42772800  0.87304300  0.80380300  1
  H  1045  1  0.50014700  0.87592000  0.80226900  1
  H  1046  1  0.43960900  0.85531100  0.69711800  1
  H  1048  1  0.41956600  0.87386100  0.74865200  1
  H  1049  1  0.40710500  0.87211800  0.77196200  1
  H  1051  1  0.50403600  0.91389300  0.73256200  1
  H  1052  1  0.49305100  0.90576000  0.75509800  1
  H  1059  1  0.46841400  0.90100500  0.30129700  1
  H  1066  1  0.53505300  0.87408400  0.19864900  1
  H  1067  1  0.46259600  0.87582500  0.19845500  1
  H  1068  1  0.52005900  0.85458800  0.30478900  1
  H  1070  1  0.54157600  0.87416000  0.25404300  1
  H  1071  1  0.55476800  0.87295400  0.23102900  1
  H  1073  1  0.45680600  0.91364900  0.26834600  1
  H  1074  1  0.46826000  0.90556800  0.24597900  1
  H  1081  1  0.96856600  0.58271300  0.70217700  1
  H  1088  1  0.03510500  0.60991400  0.80481000  1
  H  1089  1  0.96264600  0.60779000  0.80496400  1
  H  1090  1  0.02001100  0.62933400  0.69865200  1
  H  1092  1  0.04164100  0.60990400  0.74941300  1
  H  1093  1  0.05482200  0.61116000  0.77242900  1
  H  1095  1  0.95718300  0.56994700  0.73512100  1
  H  1096  1  0.96868800  0.57805500  0.75746200  1
  H  1103  1  0.72402000  0.04323900  0.66194500  1
  H  1110  1  0.78541100  0.93913300  0.63111500  1
  H  1111  1  0.71316600  0.94114400  0.63640900  1
  H  1112  1  0.77237500  0.04634700  0.61273300  1
  H  1114  1  0.79387800  0.99451900  0.63039300  1
  H  1115  1  0.80618800  0.97104200  0.62881700  1
  H  1117  1  0.71283400  0.01035400  0.67509500  1
  H  1118  1  0.72314600  0.98779700  0.66615400  1
  H  1125  1  0.22401000  0.44051200  0.34154000  1
  H  1132  1  0.28539600  0.54466800  0.37230500  1
  H  1133  1  0.21312100  0.54264700  0.36699000  1
  H  1134  1  0.27238800  0.43747100  0.39072600  1
  H  1136  1  0.29384400  0.48930200  0.37288700  1
  H  1137  1  0.30616100  0.51277300  0.37452500  1
  H  1139  1  0.21283100  0.47339200  0.32834400  1
  H  1140  1  0.22319900  0.49594500  0.33725100  1
  H  1147  1  0.73882000  0.44272800  0.66187700  1
  H  1154  1  0.67461900  0.54545500  0.63220700  1
  H  1155  1  0.74696700  0.54534600  0.63676700  1
  H  1156  1  0.69123900  0.43890000  0.61209500  1
  H  1158  1  0.66800300  0.48983700  0.63089400  1
  H  1159  1  0.65487300  0.51297100  0.62971300  1
  H  1161  1  0.74908400  0.47581200  0.67528200  1
  H  1162  1  0.73827500  0.49819300  0.66636700  1
  H  1169  1  0.23873200  0.04104800  0.34155300  1
  H  1176  1  0.17459100  0.93833300  0.37135200  1
  H  1177  1  0.24692400  0.93852200  0.36662600  1
  H  1178  1  0.19120500  0.04493100  0.39138400  1
  H  1180  1  0.16792600  0.99394500  0.37269900  1
  H  1181  1  0.15481700  0.97080100  0.37389100  1
  H  1183  1  0.24879900  0.00796800  0.32807700  1
  H  1184  1  0.23790900  0.98561400  0.33700000  1
  H  1191  1  0.97247600  0.54091000  0.83258400  1
  H  1198  1  0.03584600  0.43613000  0.84599300  1
  H  1199  1  0.96626700  0.43979300  0.86524300  1
  H  1200  1  0.02784600  0.54225900  0.87569400  1
  H  1202  1  0.04504000  0.49184700  0.84413300  1
  H  1203  1  0.05685000  0.46821600  0.84087900  1
  H  1205  1  0.95930100  0.50782000  0.81980200  1
  H  1206  1  0.97072600  0.48504700  0.82728000  1
  H  1213  1  0.47232900  0.94287700  0.17073600  1
  H  1220  1  0.53589300  0.04764400  0.15743300  1
  H  1221  1  0.46629000  0.04406900  0.13822700  1
  H  1222  1  0.52783900  0.94156000  0.12778100  1
  H  1224  1  0.54496200  0.99192200  0.15940200  1
  H  1225  1  0.55682700  0.01553900  0.16259200  1
  H  1227  1  0.45911800  0.97595600  0.18351600  1
  H  1228  1  0.47059000  0.99873300  0.17611400  1
  H  1235  1  0.23648500  0.41646800  0.30137400  1
  H  1242  1  0.28927900  0.39315300  0.19517400  1
  H  1243  1  0.21818800  0.38098000  0.20295200  1
  H  1244  1  0.27946600  0.36267100  0.30269500  1
  H  1246  1  0.30248900  0.39319100  0.25021600  1
  H  1247  1  0.31307700  0.39561800  0.22604100  1
  H  1249  1  0.22616300  0.43130100  0.26831600  1
  H  1250  1  0.23464400  0.42102900  0.24558500  1
  H  1257  1  0.73649900  0.06731800  0.70215100  1
  H  1264  1  0.78921200  0.09062500  0.80832700  1
  H  1265  1  0.71814300  0.10283500  0.80045400  1
  H  1266  1  0.77940100  0.12116400  0.70074500  1
  H  1268  1  0.80250800  0.09065700  0.75329800  1
  H  1269  1  0.81305500  0.08816400  0.77748200  1
  H  1271  1  0.72635900  0.05243300  0.73523500  1
  H  1272  1  0.73486300  0.06274200  0.75794500  1
  H  1279  1  0.48897500  0.94300700  0.83110500  1
  H  1286  1  0.42453800  0.04668200  0.84761900  1
  H  1287  1  0.49430600  0.04323100  0.86631900  1
  H  1288  1  0.43431900  0.93987600  0.87488000  1
  H  1290  1  0.41590400  0.99093700  0.84463200  1
  H  1291  1  0.40380900  0.01452700  0.84199000  1
  H  1293  1  0.50138500  0.97658200  0.81892000  1
  H  1294  1  0.48975100  0.99901100  0.82713500  1
  H  1301  1  0.98910400  0.54083900  0.17228600  1
  H  1308  1  0.92448700  0.43717300  0.15579900  1
  H  1309  1  0.99430200  0.44054800  0.13721200  1
  H  1310  1  0.93434600  0.54393900  0.12861800  1
  H  1312  1  0.91596600  0.49291700  0.15890100  1
  H  1313  1  0.90381600  0.46934300  0.16145800  1
  H  1315  1  0.00149300  0.50727500  0.18451700  1
  H  1316  1  0.98980800  0.48484700  0.17636300  1
  H  1323  1  0.22497800  0.06600200  0.30144900  1
  H  1330  1  0.17108700  0.09236600  0.19641200  1
  H  1331  1  0.24242400  0.10353800  0.20376000  1
  H  1332  1  0.18294700  0.12035300  0.30453700  1
  H  1334  1  0.15850600  0.09123500  0.25156700  1
  H  1335  1  0.14759900  0.08950600  0.22744900  1
  H  1337  1  0.23438100  0.05169000  0.26792400  1
  H  1338  1  0.22568400  0.06258300  0.24555000  1
  H  1345  1  0.72497900  0.41783000  0.70206200  1
  H  1352  1  0.67113300  0.39148600  0.80706800  1
  H  1353  1  0.74245500  0.38027900  0.79963700  1
  H  1354  1  0.68300200  0.36345000  0.69888400  1
  H  1356  1  0.65847900  0.39254500  0.75192300  1
  H  1357  1  0.64760600  0.39434000  0.77604900  1
  H  1359  1  0.73419400  0.43218900  0.73560900  1
  H  1360  1  0.72546700  0.42126400  0.75796200  1
  H  1367  1  0.73358600  0.57027200  0.70345400  1
  H  1374  1  0.66977400  0.59347900  0.80756200  1
  H  1375  1  0.74202600  0.60065100  0.80367000  1
  H  1376  1  0.68293100  0.61803900  0.70097000  1
  H  1378  1  0.66045800  0.59116900  0.75203900  1
  H  1379  1  0.64816500  0.59084100  0.77560600  1
  H  1381  1  0.74394200  0.55589400  0.73651900  1
  H  1382  1  0.73243000  0.56398900  0.75895600  1
  H  1389  1  0.23367700  0.91362800  0.30003500  1
  H  1396  1  0.16991000  0.89032000  0.19586900  1
  H  1397  1  0.24217700  0.88327400  0.19982800  1
  H  1398  1  0.18302300  0.86585900  0.30247700  1
  H  1400  1  0.16056600  0.89279600  0.25137300  1
  H  1401  1  0.14828200  0.89302500  0.22780200  1
  H  1403  1  0.24397900  0.92807400  0.26697900  1
  H  1404  1  0.23243700  0.91999600  0.24454600  1
  H  1411  1  0.72761500  0.91472700  0.70329300  1
  H  1418  1  0.79293900  0.88890600  0.80599300  1
  H  1419  1  0.72060200  0.88212100  0.80288800  1
  H  1420  1  0.77786100  0.86671900  0.69906400  1
  H  1422  1  0.80141500  0.89244100  0.75043100  1
  H  1423  1  0.81407900  0.89211000  0.77383200  1
  H  1425  1  0.71798000  0.92847900  0.73681900  1
  H  1426  1  0.72981100  0.91981300  0.75890600  1
  H  1433  1  0.22760800  0.56905800  0.30006900  1
  H  1440  1  0.29289100  0.59496500  0.19739900  1
  H  1441  1  0.22055100  0.60169900  0.20058400  1
  H  1442  1  0.27781100  0.61709900  0.30439800  1
  H  1444  1  0.30143100  0.59147500  0.25295900  1
  H  1445  1  0.31407100  0.59178200  0.22954500  1
  H  1447  1  0.21818200  0.55523400  0.26653700  1
  H  1448  1  0.23006200  0.56393200  0.24447900  1
  H  1455  1  0.48918400  0.04183500  0.32558100  1
  H  1462  1  0.54497600  0.93599000  0.35651900  1
  H  1463  1  0.47254900  0.94285300  0.35633200  1
  H  1464  1  0.52987600  0.04409200  0.38061900  1
  H  1466  1  0.55703800  0.99142800  0.35548700  1
  H  1467  1  0.56831000  0.96734100  0.35624400  1
  H  1469  1  0.48185300  0.00872900  0.30956300  1
  H  1470  1  0.49145100  0.98615800  0.31942200  1
  H  1477  1  0.98907400  0.44192400  0.67784200  1
  H  1484  1  0.04501700  0.54776300  0.64691500  1
  H  1485  1  0.97257400  0.54098500  0.64721200  1
  H  1486  1  0.02985800  0.43971900  0.62285700  1
  H  1488  1  0.05700100  0.49232000  0.64804500  1
  H  1489  1  0.06830400  0.51639300  0.64721200  1
  H  1491  1  0.98173000  0.47501000  0.69389000  1
  H  1492  1  0.99135900  0.49759000  0.68408000  1
  H  1499  1  0.97268500  0.44180800  0.32423500  1
  H  1506  1  0.91562400  0.54623800  0.35807400  1
  H  1507  1  0.98812800  0.54023600  0.35709100  1
  H  1508  1  0.93256100  0.43781500  0.37952400  1
  H  1510  1  0.90429300  0.49072100  0.35577700  1
  H  1511  1  0.89270900  0.51464700  0.35730900  1
  H  1513  1  0.97925300  0.47535800  0.30884300  1
  H  1514  1  0.96939100  0.49757200  0.31927700  1
  H  1521  1  0.47271800  0.04200000  0.67915300  1
  H  1528  1  0.41559700  0.93761700  0.64537500  1
  H  1529  1  0.48810300  0.94363500  0.64630600  1
  H  1530  1  0.43254100  0.04607800  0.62390200  1
  H  1532  1  0.40426600  0.99313700  0.64760900  1
  H  1533  1  0.39267900  0.96920900  0.64613700  1
  H  1535  1  0.47910500  0.00844700  0.69458100  1
  H  1536  1  0.46919700  0.98625500  0.68412500  1
  H  1543  1  0.91013600  0.39197200  0.89333800  1
  H  1550  1  0.79370200  0.35393700  0.91958300  1
  H  1551  1  0.80285700  0.34410400  0.85433600  1
  H  1552  1  0.91039900  0.32526700  0.89458100  1
  H  1554  1  0.85372500  0.36258900  0.93044100  1
  H  1555  1  0.82738200  0.36127000  0.94070700  1
  H  1557  1  0.87366500  0.40987800  0.88927000  1
  H  1558  1  0.84882400  0.39685100  0.88756400  1
  H  1565  1  0.41009400  0.09173400  0.11021700  1
  H  1572  1  0.29369400  0.12990800  0.08390100  1
  H  1573  1  0.30284400  0.13959900  0.14917000  1
  H  1574  1  0.41040300  0.15843400  0.10879400  1
  H  1576  1  0.35371400  0.12123700  0.07303800  1
  H  1577  1  0.32737200  0.12259200  0.06276900  1
  H  1579  1  0.37361100  0.07386100  0.11437300  1
  H  1580  1  0.34878000  0.08690900  0.11604900  1
  H  1587  1  0.15926900  0.35024500  0.15255900  1
  H  1594  1  0.04395700  0.32309900  0.11380500  1
  H  1595  1  0.05229400  0.38845300  0.10284400  1
  H  1596  1  0.16085300  0.34968800  0.08607100  1
  H  1598  1  0.10406900  0.31303400  0.12287700  1
  H  1599  1  0.07787200  0.30242400  0.12161400  1
  H  1601  1  0.12243300  0.35397900  0.16984000  1
  H  1602  1  0.09784200  0.35569200  0.15646700  1
  H  1609  1  0.65926900  0.13359700  0.85091700  1
  H  1616  1  0.54395500  0.16090700  0.88976500  1
  H  1617  1  0.55224100  0.09550000  0.90045400  1
  H  1618  1  0.66081200  0.13429500  0.91740700  1
  H  1620  1  0.60407200  0.17096100  0.88070700  1
  H  1621  1  0.57788600  0.18158900  0.88202700  1
  H  1623  1  0.62244700  0.12978900  0.83362800  1
  H  1624  1  0.59784300  0.12815600  0.84699200  1
  H  1631  1  0.05189300  0.58825500  0.11263700  1
  H  1638  1  0.16671400  0.63166800  0.08482600  1
  H  1639  1  0.15778900  0.63655700  0.15065800  1
  H  1640  1  0.04957000  0.65468900  0.10685000  1
  H  1642  1  0.10701300  0.62161800  0.07370400  1
  H  1643  1  0.13319300  0.62456800  0.06341700  1
  H  1645  1  0.08886700  0.57165800  0.11823500  1
  H  1646  1  0.11325400  0.58544900  0.11934300  1
  H  1653  1  0.55191900  0.89566400  0.89067500  1
  H  1660  1  0.66666667  0.85211000  0.91852500  1
  H  1661  1  0.65778400  0.84739800  0.85268100  1
  H  1662  1  0.54956900  0.82924800  0.89664700  1
  H  1664  1  0.60703500  0.86220100  0.92967700  1
  H  1665  1  0.63321300  0.85920600  0.93995300  1
  H  1667  1  0.58889700  0.91222900  0.88498800  1
  H  1668  1  0.61327600  0.89842600  0.88390800  1
  H  1675  1  0.80333100  0.63241000  0.84932300  1
  H  1682  1  0.91908400  0.65790600  0.89199800  1
  H  1683  1  0.90904300  0.59198400  0.89663200  1
  H  1684  1  0.80174900  0.63539400  0.91575600  1
  H  1686  1  0.85949500  0.66992600  0.88231100  1
  H  1687  1  0.88584900  0.67988300  0.88520800  1
  H  1689  1  0.84015700  0.62751300  0.83223200  1
  H  1690  1  0.86468500  0.62585400  0.84571600  1
  H  1697  1  0.30331400  0.85138400  0.15406400  1
  H  1704  1  0.41909200  0.82573600  0.11133500  1
  H  1705  1  0.40908700  0.89167500  0.10690000  1
  H  1706  1  0.30179800  0.84826700  0.08763500  1
  H  1708  1  0.35950200  0.81371500  0.12101800  1
  H  1709  1  0.38584800  0.80375400  0.11807400  1
  H  1711  1  0.34011900  0.85633000  0.17117500  1
  H  1712  1  0.36466800  0.85790800  0.15771100  1
  H  1719  1  0.40817800  0.89689900  0.39028400  1
  H  1726  1  0.29286200  0.85036100  0.41663800  1
  H  1727  1  0.30280600  0.85095800  0.35075600  1
  H  1728  1  0.41005400  0.83054000  0.39696400  1
  H  1730  1  0.35211600  0.86085000  0.42928100  1
  H  1731  1  0.32589800  0.85647600  0.43897000  1
  H  1733  1  0.37131600  0.91357300  0.38420900  1
  H  1734  1  0.34686000  0.89987600  0.38318200  1
  H  1741  1  0.90816500  0.58679600  0.61329600  1
  H  1748  1  0.79288400  0.63344500  0.58685700  1
  H  1749  1  0.80280400  0.63272300  0.65274100  1
  H  1750  1  0.91007400  0.65313200  0.60643000  1
  H  1752  1  0.85212400  0.62289800  0.57421400  1
  H  1753  1  0.82591200  0.62730200  0.56452500  1
  H  1755  1  0.87129600  0.57015500  0.61943400  1
  H  1756  1  0.84684800  0.58386400  0.62042200  1
  H  1763  1  0.65920700  0.85395000  0.65623600  1
  H  1770  1  0.54444800  0.82727900  0.61060900  1
  H  1771  1  0.55414200  0.89337700  0.60882200  1
  H  1772  1  0.66192900  0.84716400  0.59012000  1
  H  1774  1  0.60383000  0.81510500  0.62097300  1
  H  1775  1  0.57759000  0.80518800  0.61722400  1
  H  1777  1  0.62219100  0.86021300  0.67246600  1
  H  1778  1  0.59792600  0.86144500  0.65854800  1
  H  1785  1  0.15923200  0.62983600  0.34722900  1
  H  1792  1  0.04445800  0.65664600  0.39297600  1
  H  1793  1  0.05413800  0.59054100  0.39451000  1
  H  1794  1  0.16191800  0.63679900  0.41332900  1
  H  1796  1  0.10382900  0.66884700  0.38259600  1
  H  1797  1  0.07759700  0.67875400  0.38641300  1
  H  1799  1  0.12222700  0.62351700  0.33100300  1
  H  1800  1  0.09794800  0.62237600  0.34490500  1
  H  1807  1  0.55323900  0.08534900  0.61478200  1
  H  1814  1  0.66792700  0.13495800  0.58878500  1
  H  1815  1  0.65746900  0.13119900  0.65450200  1
  H  1816  1  0.55043500  0.15135600  0.60541900  1
  H  1818  1  0.60912100  0.12377900  0.57517500  1
  H  1819  1  0.63530900  0.12914200  0.56593300  1
  H  1821  1  0.59023000  0.06942700  0.62197800  1
  H  1822  1  0.61445900  0.08346700  0.62278400  1
  H  1829  1  0.05325700  0.39855700  0.38852600  1
  H  1836  1  0.16790500  0.34884600  0.41459800  1
  H  1837  1  0.15747900  0.35269700  0.34888300  1
  H  1838  1  0.05041700  0.33257500  0.39803800  1
  H  1840  1  0.10911700  0.36010400  0.42820300  1
  H  1841  1  0.13529600  0.35471400  0.43744700  1
  H  1843  1  0.09025500  0.41444500  0.38127600  1
  H  1844  1  0.11447600  0.40039200  0.38050200  1
  H  1851  1  0.30370700  0.12907700  0.34509200  1
  H  1858  1  0.41807800  0.15484200  0.39382700  1
  H  1859  1  0.40758800  0.08882900  0.39259000  1
  H  1860  1  0.30032800  0.13708700  0.41105200  1
  H  1862  1  0.35919900  0.16806900  0.38242100  1
  H  1863  1  0.38541200  0.17754100  0.38730300  1
  H  1865  1  0.34086800  0.12221300  0.32934600  1
  H  1866  1  0.36495700  0.12106700  0.34352400  1
  H  1873  1  0.80368900  0.35473000  0.65831100  1
  H  1880  1  0.91807800  0.32883300  0.60946300  1
  H  1881  1  0.90759300  0.39484200  0.61093100  1
  H  1882  1  0.80034600  0.34654300  0.59236900  1
  H  1884  1  0.85921300  0.31557200  0.62088900  1
  H  1885  1  0.88541700  0.30611400  0.61593900  1
  H  1887  1  0.84083800  0.36163400  0.67405600  1
  H  1888  1  0.86494200  0.36268800  0.65989500  1
  H  1895  1  0.99890800  0.39646000  0.05400600  1
  H  1902  1  0.99207000  0.33428000  0.94710300  1
  H  1903  1  0.96354700  0.39534100  0.94984200  1
  H  1904  1  0.96755000  0.33661000  0.05138700  1
  H  1906  1  0.00484300  0.33077700  0.00198700  1
  H  1907  1  0.00638000  0.31882900  0.97881400  1
  H  1909  1  0.00878400  0.41372100  0.02208400  1
  H  1910  1  0.00485300  0.40278700  0.99866600  1
  H  1917  1  0.49900500  0.08743400  0.94941400  1
  H  1924  1  0.49189000  0.14957300  0.05635700  1
  H  1925  1  0.46371500  0.08837300  0.05359100  1
  H  1926  1  0.46747800  0.14719900  0.95206100  1
  H  1928  1  0.50483700  0.15304600  0.00151100  1
  H  1929  1  0.50629800  0.16500900  0.02468500  1
  H  1931  1  0.50898900  0.07021100  0.98132900  1
  H  1932  1  0.50505600  0.08114100  0.00475000  1
  H  1939  1  0.24968200  0.18969300  0.15689400  1
  H  1946  1  0.24160800  0.29672400  0.09487500  1
  H  1947  1  0.21327900  0.29364200  0.15583700  1
  H  1948  1  0.21769700  0.19190500  0.09745700  1
  H  1950  1  0.25473700  0.24173000  0.09121700  1
  H  1951  1  0.25607300  0.26500600  0.07933700  1
  H  1953  1  0.25961400  0.22185800  0.17384800  1
  H  1954  1  0.25545300  0.24527200  0.16285300  1
  H  1961  1  0.74967800  0.29413300  0.84658700  1
  H  1968  1  0.74162800  0.18712100  0.90862700  1
  H  1969  1  0.71334200  0.19018200  0.84765500  1
  H  1970  1  0.71768000  0.29191100  0.90601500  1
  H  1972  1  0.75473000  0.24211700  0.91228600  1
  H  1973  1  0.75606000  0.21884400  0.92417300  1
  H  1975  1  0.75973000  0.26198600  0.82969300  1
  H  1976  1  0.75559800  0.23857500  0.84071000  1
  H  1983  1  0.96233100  0.58243000  0.94914500  1
  H  1990  1  0.96947200  0.64435900  0.05622800  1
  H  1991  1  0.99734600  0.58306300  0.05352800  1
  H  1992  1  0.99424700  0.64200700  0.95197400  1
  H  1994  1  0.95695800  0.64805400  0.00131900  1
  H  1995  1  0.95546200  0.65997800  0.02450600  1
  H  1997  1  0.95223200  0.56517000  0.98101000  1
  H  1998  1  0.95622600  0.57600700  0.00446500  1
  H  2005  1  0.46222400  0.90130700  0.05430600  1
  H  2012  1  0.46963300  0.83942000  0.94718800  1
  H  2013  1  0.49719100  0.90084200  0.94990800  1
  H  2014  1  0.49432400  0.84182300  0.05145100  1
  H  2016  1  0.45694500  0.83576700  0.00206300  1
  H  2017  1  0.45551800  0.82382900  0.97887700  1
  H  2019  1  0.45207100  0.91855900  0.02244400  1
  H  2020  1  0.45607500  0.90773300  0.99898700  1
  H  2027  1  0.71128900  0.79390200  0.84657200  1
  H  2034  1  0.72101400  0.68688200  0.90888900  1
  H  2035  1  0.74827600  0.69053900  0.84755400  1
  H  2036  1  0.74258300  0.79219800  0.90632900  1
  H  2038  1  0.70691900  0.74164600  0.91285700  1
  H  2039  1  0.70622100  0.71832700  0.92469200  1
  H  2041  1  0.70164800  0.76164000  0.82975400  1
  H  2042  1  0.70580200  0.73830500  0.84090300  1
  H  2049  1  0.21130000  0.68990700  0.15677600  1
  H  2056  1  0.22098500  0.79692900  0.09447100  1
  H  2057  1  0.24821100  0.79327500  0.15581300  1
  H  2058  1  0.24260200  0.69164100  0.09702600  1
  H  2060  1  0.20692700  0.74216200  0.09048300  1
  H  2061  1  0.20623000  0.76548300  0.07865000  1
  H  2063  1  0.20152900  0.72214800  0.17353700  1
  H  2064  1  0.20564900  0.74548100  0.16237100  1
  H  2071  1  0.50027800  0.89966500  0.55363600  1
  H  2078  1  0.49023500  0.83715800  0.44679200  1
  H  2079  1  0.46375300  0.89893700  0.45049700  1
  H  2080  1  0.46909200  0.83970500  0.55197100  1
  H  2082  1  0.50423300  0.83293500  0.50137300  1
  H  2083  1  0.50478100  0.82110600  0.47810500  1
  H  2085  1  0.50997100  0.91649300  0.52150800  1
  H  2086  1  0.50585200  0.90532000  0.49824200  1
  H  2093  1  0.00037600  0.58416800  0.44981200  1
  H  2100  1  0.99008800  0.64664300  0.55668400  1
  H  2101  1  0.96392200  0.58474700  0.55296800  1
  H  2102  1  0.96905000  0.64405900  0.45149900  1
  H  2104  1  0.00426200  0.65082500  0.50214400  1
  H  2105  1  0.00474100  0.66267000  0.52540700  1
  H  2107  1  0.01016200  0.56737200  0.48193700  1
  H  2108  1  0.00604000  0.57855200  0.50520100  1
  H  2115  1  0.75016600  0.68939100  0.66175300  1
  H  2122  1  0.74155700  0.79658800  0.59981100  1
  H  2123  1  0.71381400  0.79343200  0.66097600  1
  H  2124  1  0.71822800  0.69168000  0.60231500  1
  H  2126  1  0.75489100  0.74166300  0.59603900  1
  H  2127  1  0.75600500  0.76494900  0.58416500  1
  H  2129  1  0.76006300  0.72154000  0.67875400  1
  H  2130  1  0.75586100  0.74497300  0.66781100  1
  H  2137  1  0.25014400  0.79441500  0.34168900  1
  H  2144  1  0.24159200  0.68723400  0.40365300  1
  H  2145  1  0.21389600  0.69035800  0.34247800  1
  H  2146  1  0.21819500  0.79210700  0.40111900  1
  H  2148  1  0.25487600  0.74216400  0.40742700  1
  H  2149  1  0.25599300  0.71888200  0.41930800  1
  H  2151  1  0.26016600  0.76228400  0.32474700  1
  H  2152  1  0.25600300  0.73885400  0.33571400  1
  H  2159  1  0.46147400  0.08132500  0.44959100  1
  H  2166  1  0.47106700  0.14377300  0.55659300  1
  H  2167  1  0.49715800  0.08186600  0.55307100  1
  H  2168  1  0.49275000  0.14121700  0.45145500  1
  H  2170  1  0.45754500  0.14810200  0.50193300  1
  H  2171  1  0.45688200  0.15990900  0.52520500  1
  H  2173  1  0.45157000  0.06449100  0.48164500  1
  H  2174  1  0.45556600  0.07563000  0.50494200  1
  H  2181  1  0.96138700  0.40244500  0.55383400  1
  H  2188  1  0.97122200  0.34002800  0.44680600  1
  H  2189  1  0.99699900  0.40204900  0.45034100  1
  H  2190  1  0.99280300  0.34262200  0.55195200  1
  H  2192  1  0.95752500  0.33574100  0.50142800  1
  H  2193  1  0.95693400  0.32391500  0.47815900  1
  H  2195  1  0.95138100  0.41923300  0.52178600  1
  H  2196  1  0.95537400  0.40809600  0.49848700  1
  H  2203  1  0.21131200  0.29410300  0.34089300  1
  H  2210  1  0.22106400  0.18690100  0.40306600  1
  H  2211  1  0.24812900  0.19058600  0.34167800  1
  H  2212  1  0.24234800  0.29226800  0.40074000  1
  H  2214  1  0.20695300  0.24163600  0.40711700  1
  H  2215  1  0.20631100  0.21830400  0.41892000  1
  H  2217  1  0.20179400  0.26187700  0.32395800  1
  H  2218  1  0.20594300  0.23851300  0.33504200  1
  H  2225  1  0.71132200  0.18969800  0.66252600  1
  H  2232  1  0.72103600  0.29688400  0.60033300  1
  H  2233  1  0.74804400  0.29322300  0.66173500  1
  H  2234  1  0.74237500  0.19154500  0.60268900  1
  H  2236  1  0.70696900  0.24214300  0.59627400  1
  H  2237  1  0.70632800  0.26547100  0.58446500  1
  H  2239  1  0.70166500  0.22190700  0.67939100  1
  H  2240  1  0.70577800  0.24526600  0.66828200  1
  C  1  1  0.98809000  0.37763300  0.86664300  1
  C  2  1  0.99294000  0.39936600  0.86888200  1
  C  3  1  0.99826100  0.41232500  0.85152700  1
  C  4  1  0.99821600  0.40370300  0.83074100  1
  C  5  1  0.99515000  0.38132100  0.82811000  1
  C  6  1  0.98971800  0.36833600  0.84604900  1
  C  9  1  0.97668500  0.36799000  0.88450900  1
  C  10  1  0.98568500  0.36756700  0.90560000  1
  C  11  1  0.97060800  0.36300800  0.92303000  1
  C  12  1  0.94667700  0.35844800  0.91946700  1
  C  13  1  0.93808700  0.35928500  0.89845700  1
  C  14  1  0.95290600  0.36406700  0.88154500  1
  C  27  1  0.48819100  0.10618600  0.13677600  1
  C  28  1  0.49304900  0.08444900  0.13454600  1
  C  29  1  0.49834100  0.07149800  0.15191600  1
  C  30  1  0.49828400  0.08013300  0.17269800  1
  C  31  1  0.49517800  0.10251200  0.17531900  1
  C  32  1  0.48972000  0.11547800  0.15737400  1
  C  35  1  0.47664800  0.11570900  0.11891100  1
  C  36  1  0.48568400  0.11622000  0.09783400  1
  C  37  1  0.47058400  0.12074300  0.08040700  1
  C  38  1  0.44663900  0.12524100  0.08397300  1
  C  39  1  0.43806300  0.12439600  0.10499000  1
  C  40  1  0.45288400  0.11964600  0.12190600  1
  C  53  1  0.23810600  0.37672600  0.13933300  1
  C  54  1  0.24354700  0.37409500  0.16084900  1
  C  55  1  0.24973400  0.39124900  0.17376300  1
  C  56  1  0.24953000  0.41222200  0.16550500  1
  C  57  1  0.24561000  0.41522500  0.14334900  1
  C  58  1  0.23969900  0.39746200  0.13027800  1
  C  61  1  0.22639600  0.35904000  0.12965200  1
  C  62  1  0.23542500  0.33793500  0.12863700  1
  C  63  1  0.22026400  0.32062900  0.12374500  1
  C  64  1  0.19636200  0.32432800  0.11919700  1
  C  65  1  0.18784600  0.34541300  0.12037100  1
  C  66  1  0.20266000  0.36220900  0.12570800  1
  C  79  1  0.73796200  0.10707100  0.86411200  1
  C  80  1  0.74341300  0.10971800  0.84260700  1
  C  81  1  0.74962800  0.09257100  0.82969600  1
  C  82  1  0.74946700  0.07160000  0.83795800  1
  C  83  1  0.74556400  0.06859600  0.86011900  1
  C  84  1  0.73963900  0.08635200  0.87319600  1
  C  87  1  0.72637500  0.12477200  0.87389400  1
  C  88  1  0.73543000  0.14586500  0.87484700  1
  C  89  1  0.72030700  0.16319500  0.87974000  1
  C  90  1  0.69639600  0.15953700  0.88428600  1
  C  91  1  0.68783400  0.13846700  0.88311700  1
  C  92  1  0.70261800  0.12164600  0.87778800  1
  C  105  1  0.47124700  0.10538000  0.86874000  1
  C  106  1  0.46698200  0.08351600  0.87073500  1
  C  107  1  0.46193900  0.07064300  0.85324600  1
  C  108  1  0.46201700  0.07941400  0.83251900  1
  C  109  1  0.46470800  0.10185300  0.83008300  1
  C  110  1  0.46947600  0.11480900  0.84819900  1
  C  113  1  0.48239800  0.11518500  0.88668800  1
  C  114  1  0.47383700  0.11484900  0.90795300  1
  C  115  1  0.48888500  0.12021500  0.92518100  1
  C  116  1  0.51227800  0.12647300  0.92123300  1
  C  117  1  0.52052000  0.12613600  0.90012600  1
  C  118  1  0.50581500  0.12048000  0.88341800  1
  C  131  1  0.97114900  0.37844000  0.13469100  1
  C  132  1  0.96688100  0.40030900  0.13271000  1
  C  133  1  0.96186400  0.41317000  0.15021600  1
  C  134  1  0.96195100  0.40438200  0.17093500  1
  C  135  1  0.96467800  0.38194400  0.17335700  1
  C  136  1  0.96947200  0.36901100  0.15523300  1
  C  139  1  0.98243400  0.36875400  0.11674300  1
  C  140  1  0.97382100  0.36900000  0.09549300  1
  C  141  1  0.98887700  0.36366400  0.07826100  1
  C  142  1  0.01229400  0.35745900  0.08220700  1
  C  143  1  0.02054700  0.35784300  0.10331300  1
  C  144  1  0.00584000  0.36345600  0.12002900  1
  C  157  1  0.22113900  0.10908700  0.14020300  1
  C  158  1  0.21628800  0.11145600  0.16186800  1
  C  159  1  0.21040500  0.09415400  0.17471000  1
  C  160  1  0.21062200  0.07324700  0.16628600  1
  C  161  1  0.21414300  0.07046000  0.14405200  1
  C  162  1  0.21938500  0.08841100  0.13100200  1
  C  165  1  0.23265000  0.12683500  0.13038100  1
  C  166  1  0.22408100  0.14814300  0.13011700  1
  C  167  1  0.23924600  0.16521400  0.12446000  1
  C  168  1  0.26259700  0.16106200  0.11822500  1
  C  169  1  0.27075300  0.13986800  0.11895600  1
  C  170  1  0.25603300  0.12331900  0.12514100  1
  C  183  1  0.72125800  0.37476000  0.86323300  1
  C  184  1  0.71640300  0.37236900  0.84157700  1
  C  185  1  0.71049000  0.38966100  0.82873300  1
  C  186  1  0.71066300  0.41057000  0.83715800  1
  C  187  1  0.71416500  0.41336200  0.85939500  1
  C  188  1  0.71941900  0.39542000  0.87245600  1
  C  191  1  0.73265400  0.35700300  0.87315800  1
  C  192  1  0.72408500  0.33569800  0.87336000  1
  C  193  1  0.73922100  0.31861700  0.87904600  1
  C  194  1  0.76258000  0.32274600  0.88527900  1
  C  195  1  0.77075800  0.34393300  0.88454300  1
  C  196  1  0.75605500  0.36049800  0.87836200  1
  C  209  1  0.97274400  0.60234900  0.13712100  1
  C  210  1  0.96814500  0.58048100  0.13579700  1
  C  211  1  0.96153000  0.56846200  0.15346100  1
  C  212  1  0.95901600  0.57836500  0.17354200  1
  C  213  1  0.96401400  0.60051300  0.17554100  1
  C  214  1  0.97088600  0.61249200  0.15731500  1
  C  217  1  0.98441200  0.61122000  0.11898200  1
  C  218  1  0.97549500  0.61116100  0.09785000  1
  C  219  1  0.99059600  0.61549500  0.08036300  1
  C  220  1  0.01450400  0.62018700  0.08392000  1
  C  221  1  0.02300900  0.61980200  0.10498000  1
  C  222  1  0.00816400  0.61524300  0.12193200  1
  C  235  1  0.47264400  0.88147000  0.86633800  1
  C  236  1  0.46803900  0.90333900  0.86765900  1
  C  237  1  0.46146200  0.91536500  0.84998200  1
  C  238  1  0.45894700  0.90544500  0.82990900  1
  C  239  1  0.46398000  0.88330300  0.82791000  1
  C  240  1  0.47088500  0.87133900  0.84613400  1
  C  243  1  0.48443800  0.87270900  0.88446900  1
  C  244  1  0.47548900  0.87267500  0.90559100  1
  C  245  1  0.49061100  0.86837500  0.92307100  1
  C  246  1  0.51453500  0.86374600  0.91950800  1
  C  247  1  0.52302800  0.86414700  0.89844500  1
  C  248  1  0.50817600  0.86867700  0.88149200  1
  C  261  1  0.72352000  0.60711100  0.86477900  1
  C  262  1  0.71660900  0.60981700  0.84361700  1
  C  263  1  0.70831500  0.59298300  0.83124500  1
  C  264  1  0.70715100  0.57220000  0.83989900  1
  C  265  1  0.71536700  0.56870500  0.86096700  1
  C  266  1  0.72313200  0.58619600  0.87356700  1
  C  269  1  0.73588700  0.62485200  0.87370700  1
  C  270  1  0.72679000  0.64590700  0.87529200  1
  C  271  1  0.74209300  0.66328300  0.87954100  1
  C  272  1  0.76620100  0.65968000  0.88314900  1
  C  273  1  0.77478700  0.63866100  0.88142200  1
  C  274  1  0.75985900  0.62185400  0.87640100  1
  C  287  1  0.22366500  0.87673200  0.13868500  1
  C  288  1  0.21676000  0.87400800  0.15983900  1
  C  289  1  0.20850000  0.89084700  0.17221600  1
  C  290  1  0.20726900  0.91162400  0.16354900  1
  C  291  1  0.21543700  0.91511600  0.14246200  1
  C  292  1  0.22319500  0.89762800  0.12985200  1
  C  295  1  0.23591300  0.85898000  0.12963700  1
  C  296  1  0.22678400  0.83793500  0.12810800  1
  C  297  1  0.24204500  0.82053600  0.12383800  1
  C  298  1  0.26616000  0.82410100  0.12022300  1
  C  299  1  0.27479300  0.84510400  0.12194900  1
  C  300  1  0.25989800  0.86193700  0.12697400  1
  C  313  1  0.49098200  0.88208400  0.13520200  1
  C  314  1  0.49470200  0.90410900  0.13412400  1
  C  315  1  0.50090900  0.91613700  0.15191000  1
  C  316  1  0.50366100  0.90614700  0.17192300  1
  C  317  1  0.49932500  0.88387400  0.17372200  1
  C  318  1  0.49318900  0.87182900  0.15532600  1
  C  321  1  0.47953600  0.87294600  0.11704800  1
  C  322  1  0.48787300  0.87383900  0.09571900  1
  C  323  1  0.47276500  0.86854700  0.07849500  1
  C  324  1  0.44949600  0.86192700  0.08252300  1
  C  325  1  0.44146100  0.86177900  0.10370700  1
  C  326  1  0.45621800  0.86737900  0.12038900  1
  C  339  1  0.99107400  0.60172500  0.86823800  1
  C  340  1  0.99479400  0.57969600  0.86930300  1
  C  341  1  0.00096900  0.56767400  0.85149900  1
  C  342  1  0.00373800  0.57769500  0.83150300  1
  C  343  1  0.99937000  0.59996400  0.82971300  1
  C  344  1  0.99319200  0.61198100  0.84811400  1
  C  347  1  0.97950200  0.61074600  0.88639000  1
  C  348  1  0.98789000  0.60994700  0.90770700  1
  C  349  1  0.97277300  0.61520900  0.92493400  1
  C  350  1  0.94948200  0.62177300  0.92090700  1
  C  351  1  0.94143500  0.62187300  0.89972500  1
  C  352  1  0.95619400  0.61631200  0.88303500  1
  C  365  1  0.74058400  0.87471300  0.86387300  1
  C  366  1  0.74674900  0.87225100  0.84248700  1
  C  367  1  0.75479900  0.88920100  0.83013000  1
  C  368  1  0.75615500  0.90991000  0.83893700  1
  C  369  1  0.74851300  0.91319300  0.86020800  1
  C  370  1  0.74137600  0.89553900  0.87288100  1
  C  373  1  0.72826700  0.85700600  0.87298000  1
  C  374  1  0.73676300  0.83568000  0.87378900  1
  C  375  1  0.72127500  0.81867500  0.87889100  1
  C  376  1  0.69770000  0.82293100  0.88430500  1
  C  377  1  0.68963400  0.84412600  0.88303600  1
  C  378  1  0.70461200  0.86054900  0.87704300  1
  C  391  1  0.24047900  0.60909900  0.13955800  1
  C  392  1  0.24666300  0.61159600  0.16092900  1
  C  393  1  0.25470300  0.59465900  0.17330000  1
  C  394  1  0.25608800  0.57394400  0.16450600  1
  C  395  1  0.24847700  0.57064200  0.14322600  1
  C  396  1  0.24134700  0.58828200  0.13052900  1
  C  399  1  0.22826900  0.62680500  0.13032800  1
  C  400  1  0.23676900  0.64812800  0.12956700  1
  C  401  1  0.22130700  0.66514100  0.12442800  1
  C  402  1  0.19772600  0.66090400  0.11901500  1
  C  403  1  0.18964000  0.63971500  0.12029200  1
  C  404  1  0.20460200  0.62328100  0.12629100  1
  C  417  1  0.48848400  0.88088600  0.36696200  1
  C  418  1  0.49617900  0.90190400  0.36954800  1
  C  419  1  0.50549600  0.91376000  0.35283200  1
  C  420  1  0.50689600  0.90478900  0.33226200  1
  C  421  1  0.49744900  0.88410700  0.32868100  1
  C  422  1  0.48878800  0.87193500  0.34613200  1
  C  425  1  0.47593300  0.87229200  0.38476600  1
  C  426  1  0.48492800  0.87075700  0.40581800  1
  C  427  1  0.46955500  0.86685300  0.42319200  1
  C  428  1  0.44539600  0.86352900  0.41956700  1
  C  429  1  0.43686100  0.86519500  0.39858000  1
  C  430  1  0.45190300  0.86995600  0.38181700  1
  C  443  1  0.98858200  0.60291700  0.63648900  1
  C  444  1  0.99626000  0.58188900  0.63391900  1
  C  445  1  0.00557600  0.57004100  0.65064500  1
  C  446  1  0.00698700  0.57903900  0.67120300  1
  C  447  1  0.99752300  0.59971800  0.67477400  1
  C  448  1  0.98881700  0.61185600  0.65732000  1
  C  451  1  0.97592900  0.61139200  0.61868300  1
  C  452  1  0.98494100  0.61299700  0.59764200  1
  C  453  1  0.96955300  0.61686400  0.58027000  1
  C  454  1  0.94538500  0.62013300  0.58389800  1
  C  455  1  0.93685900  0.61846600  0.60489000  1
  C  456  1  0.95190800  0.61373700  0.62165500  1
  C  469  1  0.73933500  0.87710900  0.64176300  1
  C  470  1  0.74448500  0.87589500  0.66347100  1
  C  471  1  0.75222900  0.89351300  0.67505800  1
  C  472  1  0.75521800  0.91341300  0.66479000  1
  C  473  1  0.74933300  0.91533500  0.64288600  1
  C  474  1  0.74145000  0.89715800  0.63134800  1
  C  477  1  0.72706200  0.85908300  0.63334900  1
  C  478  1  0.73585200  0.83786600  0.63303700  1
  C  479  1  0.72048500  0.82051900  0.62880100  1
  C  480  1  0.69654600  0.82428600  0.62443000  1
  C  481  1  0.68823800  0.84547500  0.62504600  1
  C  482  1  0.70330000  0.86231100  0.62964100  1
  C  495  1  0.23922300  0.60665100  0.36163800  1
  C  496  1  0.24439700  0.60789600  0.33994000  1
  C  497  1  0.25214000  0.59028300  0.32835300  1
  C  498  1  0.25516800  0.57038400  0.33861300  1
  C  499  1  0.24929200  0.56844800  0.36052200  1
  C  500  1  0.24140700  0.58662000  0.37207300  1
  C  503  1  0.22706500  0.62470100  0.37015400  1
  C  504  1  0.23588000  0.64590600  0.37041000  1
  C  505  1  0.22054900  0.66327700  0.37465000  1
  C  506  1  0.19660400  0.65954600  0.37902500  1
  C  507  1  0.18825600  0.63837100  0.37841800  1
  C  508  1  0.20328600  0.62151000  0.37382400  1
  C  521  1  0.97071900  0.60208800  0.36892000  1
  C  522  1  0.96379100  0.58081200  0.37123300  1
  C  523  1  0.95468400  0.56897200  0.35440400  1
  C  524  1  0.95308200  0.57811000  0.33392000  1
  C  525  1  0.96197300  0.59902700  0.33055800  1
  C  526  1  0.96999900  0.61128900  0.34819000  1
  C  529  1  0.98320500  0.61087100  0.38669300  1
  C  530  1  0.97481000  0.61161500  0.40801000  1
  C  531  1  0.99036500  0.61649700  0.42500100  1
  C  532  1  0.01397400  0.62179400  0.42071900  1
  C  533  1  0.02199000  0.62054900  0.39956400  1
  C  534  1  0.00693000  0.61466400  0.38319900  1
  C  547  1  0.47064000  0.88173300  0.63452600  1
  C  548  1  0.46374100  0.90301800  0.63219200  1
  C  549  1  0.45468400  0.91489600  0.64901800  1
  C  550  1  0.45307100  0.90577400  0.66951000  1
  C  551  1  0.46194600  0.88485300  0.67288500  1
  C  552  1  0.46999300  0.87257600  0.65527300  1
  C  555  1  0.48321200  0.87302700  0.61676100  1
  C  556  1  0.47478000  0.87219400  0.59545800  1
  C  557  1  0.49033900  0.86732500  0.57846500  1
  C  558  1  0.51395900  0.86206700  0.58274900  1
  C  559  1  0.52198500  0.86335700  0.60389900  1
  C  560  1  0.50692700  0.86922800  0.62026700  1
  C  573  1  0.71989700  0.60844800  0.64258600  1
  C  574  1  0.71554600  0.60942800  0.66445700  1
  C  575  1  0.70809000  0.59171400  0.67606300  1
  C  576  1  0.70479400  0.57189900  0.66571000  1
  C  577  1  0.71009800  0.57015600  0.64367800  1
  C  578  1  0.71737200  0.58848600  0.63206000  1
  C  581  1  0.73214900  0.62640800  0.63395200  1
  C  582  1  0.72406400  0.64787000  0.63442200  1
  C  583  1  0.73959800  0.66484800  0.62928900  1
  C  584  1  0.76292000  0.66045400  0.62307600  1
  C  585  1  0.77062000  0.63909100  0.62319600  1
  C  586  1  0.75549400  0.62263900  0.62880300  1
  C  599  1  0.21999600  0.87539200  0.36085500  1
  C  600  1  0.21564800  0.87441800  0.33899000  1
  C  601  1  0.20821000  0.89214700  0.32740300  1
  C  602  1  0.20486200  0.91194600  0.33777800  1
  C  603  1  0.21012400  0.91366000  0.35982300  1
  C  604  1  0.21738400  0.89532000  0.37143400  1
  C  607  1  0.23213900  0.85740700  0.36957300  1
  C  608  1  0.22405500  0.83594900  0.36902400  1
  C  609  1  0.23955900  0.81895500  0.37417900  1
  C  610  1  0.26288300  0.82332400  0.38040600  1
  C  611  1  0.27060300  0.84468200  0.38030400  1
  C  612  1  0.25549700  0.86115300  0.37470600  1
  C  625  1  0.47240500  0.10214800  0.63715000  1
  C  626  1  0.46479600  0.08094200  0.63598900  1
  C  627  1  0.45467000  0.07043200  0.65326500  1
  C  628  1  0.45157000  0.08155300  0.67258700  1
  C  629  1  0.46224700  0.10178100  0.67528100  1
  C  630  1  0.47199700  0.11243600  0.65737100  1
  C  633  1  0.48511800  0.10960300  0.61892900  1
  C  634  1  0.47615100  0.11046900  0.59782100  1
  C  635  1  0.49150600  0.11406100  0.58034500  1
  C  636  1  0.51565700  0.11752600  0.58392300  1
  C  637  1  0.52417800  0.11632400  0.60494800  1
  C  638  1  0.50913900  0.11197800  0.62182000  1
  C  651  1  0.97232000  0.38168000  0.36628500  1
  C  652  1  0.96473300  0.40289700  0.36744600  1
  C  653  1  0.95463000  0.41341400  0.35015900  1
  C  654  1  0.95150500  0.40228600  0.33084300  1
  C  655  1  0.96216900  0.38205200  0.32816400  1
  C  656  1  0.97197100  0.37141500  0.34605700  1
  C  659  1  0.98512300  0.37432600  0.38449600  1
  C  660  1  0.97614200  0.37338600  0.40559900  1
  C  661  1  0.99151300  0.36982300  0.42307000  1
  C  662  1  0.01567300  0.36641000  0.41948300  1
  C  663  1  0.02418500  0.36761800  0.39845300  1
  C  664  1  0.00913700  0.37194200  0.38158500  1
  C  677  1  0.22237400  0.10667500  0.36125400  1
  C  678  1  0.21516700  0.10825800  0.34002400  1
  C  679  1  0.20489100  0.09122600  0.32922400  1
  C  680  1  0.20124000  0.07177800  0.33999900  1
  C  681  1  0.21156800  0.06864100  0.36025500  1
  C  682  1  0.22153300  0.08628200  0.37123500  1
  C  685  1  0.23529200  0.12466700  0.36896900  1
  C  686  1  0.22644500  0.14585800  0.36998700  1
  C  687  1  0.24195700  0.16322600  0.37367400  1
  C  688  1  0.26605800  0.15947300  0.37720600  1
  C  689  1  0.27440600  0.13832800  0.37597000  1
  C  690  1  0.25926000  0.12153400  0.37146200  1
  C  703  1  0.72248700  0.37715800  0.64223600  1
  C  704  1  0.71524600  0.37555000  0.66344700  1
  C  705  1  0.70498800  0.39258900  0.67424100  1
  C  706  1  0.70130700  0.41203500  0.66346800  1
  C  707  1  0.71162000  0.41516600  0.64320000  1
  C  708  1  0.72158300  0.39752800  0.63221300  1
  C  711  1  0.73530200  0.35914600  0.63441700  1
  C  712  1  0.72642300  0.33796800  0.63344000  1
  C  713  1  0.74189800  0.32057900  0.62974000  1
  C  714  1  0.76600600  0.32429000  0.62620400  1
  C  715  1  0.77439700  0.34542200  0.62743600  1
  C  716  1  0.75928200  0.36224200  0.63194900  1
  C  729  1  0.99157300  0.38235900  0.63518300  1
  C  730  1  0.99834400  0.40382200  0.63429400  1
  C  731  1  0.00821100  0.41437800  0.65167600  1
  C  732  1  0.01168600  0.40314100  0.67087500  1
  C  733  1  0.00167000  0.38261900  0.67334900  1
  C  734  1  0.99249700  0.37182500  0.65527800  1
  C  737  1  0.97881900  0.37470400  0.61705200  1
  C  738  1  0.98709400  0.37464600  0.59567600  1
  C  739  1  0.97150200  0.37006500  0.57860400  1
  C  740  1  0.94792400  0.36460700  0.58287100  1
  C  741  1  0.93998700  0.36540900  0.60407400  1
  C  742  1  0.95510900  0.37088500  0.62052500  1
  C  755  1  0.49165900  0.10145400  0.36824000  1
  C  756  1  0.49842400  0.07998600  0.36913800  1
  C  757  1  0.50826600  0.06940500  0.35175600  1
  C  758  1  0.51174900  0.08064800  0.33255800  1
  C  759  1  0.50174100  0.10117400  0.33008700  1
  C  760  1  0.49251300  0.11195800  0.34813200  1
  C  763  1  0.47881600  0.10901500  0.38636500  1
  C  764  1  0.48712100  0.10915900  0.40773000  1
  C  765  1  0.47152000  0.11371800  0.42480300  1
  C  766  1  0.44792900  0.11912800  0.42053100  1
  C  767  1  0.43998600  0.11828200  0.39933100  1
  C  768  1  0.45511300  0.11282600  0.38287900  1
  C  781  1  0.24153500  0.37527600  0.36065000  1
  C  782  1  0.24789900  0.37398200  0.33917300  1
  C  783  1  0.25779700  0.39115400  0.32829000  1
  C  784  1  0.26172200  0.41050800  0.33915100  1
  C  785  1  0.25207600  0.41340000  0.35971200  1
  C  786  1  0.24279400  0.39555700  0.37085300  1
  C  789  1  0.22865100  0.35732600  0.36855500  1
  C  790  1  0.23689200  0.33589300  0.36875400  1
  C  791  1  0.22119600  0.31887500  0.37331900  1
  C  792  1  0.19762400  0.32322400  0.37871600  1
  C  793  1  0.18980100  0.34453400  0.37799200  1
  C  794  1  0.20499700  0.36096300  0.37247700  1
  C  807  1  0.74144000  0.10850800  0.64285000  1
  C  808  1  0.74782500  0.10983100  0.66431100  1
  C  809  1  0.75770800  0.09265800  0.67519100  1
  C  810  1  0.76167000  0.07330600  0.66433100  1
  C  811  1  0.75203700  0.07039700  0.64376200  1
  C  812  1  0.74277500  0.08824700  0.63261200  1
  C  815  1  0.72865100  0.12647100  0.63483500  1
  C  816  1  0.73690000  0.14789800  0.63468200  1
  C  817  1  0.72123000  0.16492400  0.63007800  1
  C  818  1  0.69765800  0.16059600  0.62467000  1
  C  819  1  0.68981200  0.13929200  0.62539400  1
  C  820  1  0.70498900  0.12285000  0.63092400  1
  C  833  1  0.99682000  0.37588400  0.69465800  1
  C  834  1  0.01080700  0.36129400  0.70565100  1
  C  836  1  0.99540600  0.37184700  0.73956900  1
  C  837  1  0.98051600  0.38668800  0.72934700  1
  C  838  1  0.98125800  0.38797400  0.70699000  1
  C  840  1  0.99756900  0.37005100  0.76210000  1
  C  841  1  0.01875100  0.37242300  0.77345800  1
  C  842  1  0.01777000  0.37334900  0.79586200  1
  C  843  1  0.99660800  0.37277300  0.80705200  1
  C  844  1  0.97643100  0.36939800  0.79500700  1
  C  855  1  0.49687100  0.10785800  0.30875900  1
  C  856  1  0.51080600  0.12249400  0.29777500  1
  C  858  1  0.49541300  0.11191600  0.26386400  1
  C  859  1  0.48056800  0.09703700  0.27408900  1
  C  860  1  0.48129600  0.09576200  0.29644600  1
  C  862  1  0.49754900  0.11372900  0.24133400  1
  C  863  1  0.51873700  0.11144500  0.22996300  1
  C  864  1  0.51776600  0.11057500  0.20755500  1
  C  865  1  0.49659400  0.11106800  0.19637500  1
  C  866  1  0.47640500  0.11434900  0.20842600  1
  C  877  1  0.24435200  0.54915600  0.13655000  1
  C  878  1  0.26018000  0.53804200  0.12376600  1
  C  880  1  0.24392000  0.50408700  0.13332500  1
  C  881  1  0.22705200  0.51449000  0.14614700  1
  C  882  1  0.22723700  0.53695500  0.14686900  1
  C  884  1  0.24671700  0.48150100  0.13215200  1
  C  885  1  0.26809000  0.47052800  0.13513100  1
  C  886  1  0.26763900  0.44804000  0.13591300  1
  C  887  1  0.24673200  0.43643700  0.13506600  1
  C  888  1  0.22640100  0.44807600  0.13106600  1
  C  899  1  0.74438000  0.93467300  0.86689800  1
  C  900  1  0.76020400  0.94577500  0.87969400  1
  C  902  1  0.74397100  0.97973600  0.87012500  1
  C  903  1  0.72711700  0.96934300  0.85727900  1
  C  904  1  0.72726000  0.94687500  0.85658300  1
  C  906  1  0.74676300  0.00232400  0.87132600  1
  C  907  1  0.76812900  0.01330600  0.86835800  1
  C  908  1  0.76765900  0.03579100  0.86756800  1
  C  909  1  0.74675400  0.04739300  0.86841200  1
  C  910  1  0.72642900  0.03574100  0.87241000  1
  C  921  1  0.46677800  0.10840100  0.69667800  1
  C  922  1  0.45269200  0.12307400  0.70745400  1
  C  924  1  0.46697700  0.11207200  0.74163000  1
  C  925  1  0.48198300  0.09717000  0.73164000  1
  C  926  1  0.48183200  0.09603900  0.70926400  1
  C  928  1  0.46414200  0.11365400  0.76410900  1
  C  929  1  0.44264400  0.11107900  0.77491300  1
  C  930  1  0.44295700  0.10992300  0.79732500  1
  C  931  1  0.46377600  0.11050600  0.80903900  1
  C  932  1  0.48428500  0.11407200  0.79752600  1
  C  943  1  0.96672600  0.37547500  0.30675100  1
  C  944  1  0.95268300  0.36076400  0.29598200  1
  C  946  1  0.96696800  0.37178100  0.26181600  1
  C  947  1  0.98193700  0.38671400  0.27180900  1
  C  948  1  0.98179900  0.38783600  0.29418500  1
  C  950  1  0.96415900  0.37018700  0.23933300  1
  C  951  1  0.94265200  0.37268800  0.22852000  1
  C  952  1  0.94295500  0.37378800  0.20610500  1
  C  953  1  0.96377900  0.37328100  0.19439800  1
  C  954  1  0.98430300  0.36979400  0.20591600  1
  C  965  1  0.21920400  0.93668300  0.13589800  1
  C  966  1  0.20319100  0.94753900  0.12308700  1
  C  968  1  0.21838900  0.98176100  0.13310500  1
  C  969  1  0.23546700  0.97164000  0.14592000  1
  C  970  1  0.23589200  0.94917100  0.14645400  1
  C  972  1  0.21490600  0.00427400  0.13220800  1
  C  973  1  0.19323300  0.01465400  0.13548500  1
  C  974  1  0.19300300  0.03713400  0.13654400  1
  C  975  1  0.21353800  0.04927400  0.13565200  1
  C  976  1  0.23417700  0.03820600  0.13135900  1
  C  987  1  0.71914100  0.54713800  0.86752600  1
  C  988  1  0.70313500  0.53628700  0.88035100  1
  C  990  1  0.71830700  0.50206400  0.87030800  1
  C  991  1  0.73536600  0.51218400  0.85747000  1
  C  992  1  0.73583000  0.53465500  0.85696800  1
  C  994  1  0.71483500  0.47955100  0.87123200  1
  C  995  1  0.69316900  0.46915900  0.86797500  1
  C  996  1  0.69295800  0.44668000  0.86691100  1
  C  997  1  0.71349300  0.43454100  0.86779900  1
  C  998  1  0.73413000  0.44562800  0.87207900  1
  C  1009  1  0.96613900  0.60555000  0.30902800  1
  C  1010  1  0.95174900  0.62001100  0.29831800  1
  C  1012  1  0.96634900  0.60961800  0.26400100  1
  C  1013  1  0.98158100  0.59484000  0.27398400  1
  C  1014  1  0.98167800  0.59377800  0.29637800  1
  C  1016  1  0.96385800  0.61187800  0.24145700  1
  C  1017  1  0.94239100  0.61260600  0.23023900  1
  C  1018  1  0.94295300  0.61208100  0.20778100  1
  C  1019  1  0.96382700  0.60962300  0.19640800  1
  C  1020  1  0.98445000  0.61039200  0.20823700  1
  C  1031  1  0.46611900  0.87837100  0.69443000  1
  C  1032  1  0.45176000  0.86387400  0.70512800  1
  C  1034  1  0.46634700  0.87428500  0.73944300  1
  C  1035  1  0.48154700  0.88909200  0.72945800  1
  C  1036  1  0.48167700  0.89013600  0.70706400  1
  C  1038  1  0.46387600  0.87201500  0.76198900  1
  C  1039  1  0.44241400  0.87121100  0.77321000  1
  C  1040  1  0.44297100  0.87166700  0.79567300  1
  C  1041  1  0.46383800  0.87420600  0.80703900  1
  C  1042  1  0.48446400  0.87352500  0.79520900  1
  C  1053  1  0.49358900  0.87773900  0.30706900  1
  C  1054  1  0.50812600  0.86322700  0.29658700  1
  C  1056  1  0.49458000  0.87402600  0.26204800  1
  C  1057  1  0.47916000  0.88879600  0.27179700  1
  C  1058  1  0.47845800  0.88969300  0.29418800  1
  C  1060  1  0.49773100  0.87201400  0.23956000  1
  C  1061  1  0.51952100  0.87163900  0.22886400  1
  C  1062  1  0.51962100  0.87234900  0.20640200  1
  C  1063  1  0.49904000  0.87470600  0.19455900  1
  C  1064  1  0.47809500  0.87356700  0.20588400  1
  C  1075  1  0.99365700  0.60606900  0.69639400  1
  C  1076  1  0.00812300  0.62065100  0.70685900  1
  C  1078  1  0.99464500  0.60979400  0.74140500  1
  C  1079  1  0.97930000  0.59495200  0.73166100  1
  C  1080  1  0.97855500  0.59407700  0.70926600  1
  C  1082  1  0.99778000  0.61184000  0.76389200  1
  C  1083  1  0.01956800  0.61231000  0.77459100  1
  C  1084  1  0.01966900  0.61159500  0.79705200  1
  C  1085  1  0.99909600  0.60914100  0.80887800  1
  C  1086  1  0.97813600  0.61020000  0.79757000  1
  C  1097  1  0.74761900  0.04886300  0.63731300  1
  C  1098  1  0.76090000  0.03824300  0.62195300  1
  C  1100  1  0.74726900  0.00378200  0.63315500  1
  C  1101  1  0.73327300  0.01364200  0.64894900  1
  C  1102  1  0.73318500  0.03607400  0.65007700  1
  C  1104  1  0.74950900  0.98121800  0.63072600  1
  C  1105  1  0.77086200  0.96988400  0.62931400  1
  C  1106  1  0.77018700  0.94738000  0.63018000  1
  C  1107  1  0.74936500  0.93614700  0.63362000  1
  C  1108  1  0.72878700  0.94810100  0.63340300  1
  C  1119  1  0.24763000  0.43493400  0.36615700  1
  C  1120  1  0.26093200  0.44557500  0.38148500  1
  C  1122  1  0.24727000  0.48001500  0.37027100  1
  C  1123  1  0.23326700  0.47013300  0.35449600  1
  C  1124  1  0.23315500  0.44770000  0.35340700  1
  C  1126  1  0.24949000  0.50258400  0.37267200  1
  C  1127  1  0.27084000  0.51392800  0.37408300  1
  C  1128  1  0.27016400  0.53643900  0.37325800  1
  C  1129  1  0.24932800  0.54762700  0.36976900  1
  C  1130  1  0.22874300  0.53569200  0.36999900  1
  C  1141  1  0.71574400  0.43679000  0.63692900  1
  C  1142  1  0.70238500  0.44720100  0.62147900  1
  C  1144  1  0.71482800  0.48186300  0.63315500  1
  C  1145  1  0.72896000  0.47221600  0.64897400  1
  C  1146  1  0.72968300  0.44978800  0.64993000  1
  C  1148  1  0.71186900  0.50437200  0.63099500  1
  C  1149  1  0.69014400  0.51513400  0.62990900  1
  C  1150  1  0.69008700  0.53764000  0.63098200  1
  C  1151  1  0.71059800  0.54935000  0.63440800  1
  C  1152  1  0.73155600  0.53798000  0.63381900  1
  C  1163  1  0.21568400  0.04701600  0.36652500  1
  C  1164  1  0.20233200  0.03662000  0.38199000  1
  C  1166  1  0.21474000  0.00194700  0.37031500  1
  C  1167  1  0.22884200  0.01158200  0.35446600  1
  C  1168  1  0.22961600  0.03401300  0.35352700  1
  C  1170  1  0.21179800  0.97943900  0.37251800  1
  C  1171  1  0.19008800  0.96866200  0.37363800  1
  C  1172  1  0.19005100  0.94615500  0.37256700  1
  C  1173  1  0.21055800  0.93444500  0.36913500  1
  C  1174  1  0.23151200  0.94583900  0.36968100  1
  C  1185  1  0.00022000  0.54526300  0.85376000  1
  C  1186  1  0.01580000  0.53432900  0.86692700  1
  C  1188  1  0.00098300  0.50083800  0.85558100  1
  C  1189  1  0.98442900  0.51087000  0.84228200  1
  C  1190  1  0.98401900  0.53322500  0.84217100  1
  C  1192  1  0.00320600  0.47865000  0.85711000  1
  C  1193  1  0.02346600  0.46721100  0.85137000  1
  C  1194  1  0.02194200  0.44484400  0.85099600  1
  C  1195  1  0.00101100  0.43429900  0.85559400  1
  C  1196  1  0.98195300  0.44656500  0.86208900  1
  C  1207  1  0.50014000  0.93854600  0.14963300  1
  C  1208  1  0.51577500  0.94948900  0.13652900  1
  C  1210  1  0.50092500  0.98297200  0.14786300  1
  C  1211  1  0.48432600  0.97292800  0.16110600  1
  C  1212  1  0.48388900  0.95057300  0.16117200  1
  C  1214  1  0.50316300  0.00516400  0.14638000  1
  C  1215  1  0.52345000  0.01658200  0.15209400  1
  C  1216  1  0.52197300  0.03895300  0.15243100  1
  C  1217  1  0.50104600  0.04951700  0.14786800  1
  C  1218  1  0.48196500  0.03727700  0.14138100  1
  C  1229  1  0.25838100  0.39005700  0.30581600  1
  C  1230  1  0.27024000  0.37397600  0.29480800  1
  C  1232  1  0.25803400  0.38783300  0.26149700  1
  C  1233  1  0.24554900  0.40443600  0.27149700  1
  C  1234  1  0.24567700  0.40488400  0.29376800  1
  C  1236  1  0.25854400  0.38534600  0.23941300  1
  C  1237  1  0.27853700  0.38893500  0.22684100  1
  C  1238  1  0.27550700  0.38950800  0.20467700  1
  C  1239  1  0.25346600  0.38686100  0.19545700  1
  C  1240  1  0.23459500  0.38244800  0.20879600  1
  C  1251  1  0.75836000  0.09374400  0.69766400  1
  C  1252  1  0.77021000  0.10984700  0.70864900  1
  C  1254  1  0.75805700  0.09600700  0.74198200  1
  C  1255  1  0.74559900  0.07937300  0.73200900  1
  C  1256  1  0.74569000  0.07891300  0.70973800  1
  C  1258  1  0.75856800  0.09854000  0.76406100  1
  C  1259  1  0.77853000  0.09489700  0.77665400  1
  C  1260  1  0.77546400  0.09430200  0.79881200  1
  C  1261  1  0.75341600  0.09697100  0.80801300  1
  C  1262  1  0.73457100  0.10142400  0.79465000  1
  C  1273  1  0.46159500  0.93776400  0.85248000  1
  C  1274  1  0.44604300  0.94817800  0.86609200  1
  C  1276  1  0.46017900  0.98212000  0.85539700  1
  C  1277  1  0.47665100  0.97263900  0.84162400  1
  C  1278  1  0.47740200  0.95030100  0.84096400  1
  C  1280  1  0.45771400  0.00423100  0.85756300  1
  C  1281  1  0.43727600  0.01560700  0.85225000  1
  C  1282  1  0.43855800  0.03798800  0.85237600  1
  C  1283  1  0.45941100  0.04861200  0.85708300  1
  C  1284  1  0.47865900  0.03638700  0.86316500  1
  C  1295  1  0.96167600  0.54606100  0.15096000  1
  C  1296  1  0.94608000  0.53563900  0.13739900  1
  C  1298  1  0.96023300  0.50170400  0.14809800  1
  C  1299  1  0.97673900  0.51119800  0.16182900  1
  C  1300  1  0.97752000  0.53353600  0.16244600  1
  C  1302  1  0.95776000  0.47959000  0.14596600  1
  C  1303  1  0.93729100  0.46823200  0.15122800  1
  C  1304  1  0.93852800  0.44584900  0.15105800  1
  C  1305  1  0.95938400  0.43520900  0.14640000  1
  C  1306  1  0.97866000  0.44741200  0.14035300  1
  C  1317  1  0.20359800  0.09260100  0.30678400  1
  C  1318  1  0.19177400  0.10904500  0.29628100  1
  C  1320  1  0.20315800  0.09574200  0.26251500  1
  C  1321  1  0.21551000  0.07874300  0.27197500  1
  C  1322  1  0.21578500  0.07783000  0.29423100  1
  C  1324  1  0.20242900  0.09879200  0.24050800  1
  C  1325  1  0.18224000  0.09575400  0.22805700  1
  C  1326  1  0.18500700  0.09567100  0.20585700  1
  C  1327  1  0.20697300  0.09830200  0.19648700  1
  C  1328  1  0.22606400  0.10216500  0.20973100  1
  C  1339  1  0.70362100  0.39122300  0.69668100  1
  C  1340  1  0.69179900  0.37476300  0.70715800  1
  C  1342  1  0.70313000  0.38804500  0.74094700  1
  C  1343  1  0.71546400  0.40506900  0.73151500  1
  C  1344  1  0.71577900  0.40599300  0.70925900  1
  C  1346  1  0.70239700  0.38494900  0.76294700  1
  C  1347  1  0.68223600  0.38804200  0.77541600  1
  C  1348  1  0.68503600  0.38814900  0.79761200  1
  C  1349  1  0.70700800  0.38549600  0.80696800  1
  C  1350  1  0.72607400  0.38159300  0.79370200  1
  C  1361  1  0.70818200  0.59370300  0.69848300  1
  C  1362  1  0.69371000  0.60814700  0.70910600  1
  C  1364  1  0.70627300  0.59547600  0.74284400  1
  C  1365  1  0.72159300  0.58073500  0.73312600  1
  C  1366  1  0.72276100  0.58075000  0.71086000  1
  C  1368  1  0.70414200  0.59765000  0.76497000  1
  C  1369  1  0.68306100  0.59575300  0.77646100  1
  C  1370  1  0.68443200  0.59584800  0.79879700  1
  C  1371  1  0.70593700  0.59695800  0.80927800  1
  C  1372  1  0.72595600  0.59992700  0.79696400  1
  C  1383  1  0.20827400  0.89019300  0.30498200  1
  C  1384  1  0.19378500  0.87577000  0.29434800  1
  C  1386  1  0.20635400  0.88846500  0.26062100  1
  C  1387  1  0.22167000  0.90320300  0.27035300  1
  C  1388  1  0.22286000  0.90315100  0.29261700  1
  C  1390  1  0.20425300  0.88629800  0.23849000  1
  C  1391  1  0.18317900  0.88812900  0.22697700  1
  C  1392  1  0.18456600  0.88797100  0.20464200  1
  C  1393  1  0.20608600  0.88689100  0.19418200  1
  C  1394  1  0.22609900  0.88398500  0.20651900  1
  C  1405  1  0.75277800  0.89127800  0.69745100  1
  C  1406  1  0.76734900  0.87654400  0.70756200  1
  C  1408  1  0.75546500  0.88855700  0.74173400  1
  C  1409  1  0.74010100  0.90360400  0.73255700  1
  C  1410  1  0.73853100  0.90406300  0.71031500  1
  C  1412  1  0.75790200  0.88584200  0.76377200  1
  C  1413  1  0.77917100  0.88733600  0.77502800  1
  C  1414  1  0.77815100  0.88669200  0.79736900  1
  C  1415  1  0.75679300  0.88547500  0.80809200  1
  C  1416  1  0.73657000  0.88285300  0.79598200  1
  C  1427  1  0.25274700  0.59252100  0.30596000  1
  C  1428  1  0.26732200  0.60727000  0.29587800  1
  C  1430  1  0.25548100  0.59528800  0.26168500  1
  C  1431  1  0.24013600  0.58020600  0.27083200  1
  C  1432  1  0.23851900  0.57974200  0.29307100  1
  C  1434  1  0.25790700  0.59805500  0.23965200  1
  C  1435  1  0.27916200  0.59655300  0.22837700  1
  C  1436  1  0.27811400  0.59718900  0.20603600  1
  C  1437  1  0.25674500  0.59841200  0.19533100  1
  C  1438  1  0.23653600  0.60103700  0.20746100  1
  C  1449  1  0.50980900  0.04684800  0.35264000  1
  C  1450  1  0.52154100  0.03601500  0.36889600  1
  C  1452  1  0.51166600  0.00227400  0.35419700  1
  C  1453  1  0.49947000  0.01211200  0.33732600  1
  C  1454  1  0.49831200  0.03443500  0.33731500  1
  C  1456  1  0.51243700  0.98008000  0.35688000  1
  C  1457  1  0.53302200  0.96772100  0.35724600  1
  C  1458  1  0.53056600  0.94538800  0.35726700  1
  C  1459  1  0.50854800  0.93576700  0.35645700  1
  C  1460  1  0.48891600  0.94894300  0.35713100  1
  C  1471  1  0.00974400  0.43693800  0.65080600  1
  C  1472  1  0.02150300  0.44778500  0.63457500  1
  C  1474  1  0.01161900  0.48151200  0.64930200  1
  C  1475  1  0.99939400  0.47165900  0.66614700  1
  C  1476  1  0.99821800  0.44933600  0.66612500  1
  C  1478  1  0.01241500  0.50371100  0.64666200  1
  C  1479  1  0.03301600  0.51604900  0.64624400  1
  C  1480  1  0.03059000  0.53838600  0.64618600  1
  C  1481  1  0.00858600  0.54802700  0.64704600  1
  C  1482  1  0.98893300  0.53487500  0.64640000  1
  C  1493  1  0.95239600  0.43591800  0.35133200  1
  C  1494  1  0.94059100  0.44624800  0.36787500  1
  C  1496  1  0.94977200  0.48042600  0.35383000  1
  C  1497  1  0.96194700  0.47112000  0.33665000  1
  C  1498  1  0.96348800  0.44882000  0.33615900  1
  C  1500  1  0.94875200  0.50253800  0.35705800  1
  C  1501  1  0.92801000  0.51464400  0.35797000  1
  C  1502  1  0.93016600  0.53699400  0.35856400  1
  C  1503  1  0.95204500  0.54688100  0.35776500  1
  C  1504  1  0.97186400  0.53392800  0.35795500  1
  C  1515  1  0.45240700  0.04793200  0.65207800  1
  C  1516  1  0.44057200  0.03762800  0.63553800  1
  C  1518  1  0.44974900  0.00342900  0.64953600  1
  C  1519  1  0.46193000  0.01270900  0.66666667  1
  C  1520  1  0.46350400  0.03500700  0.66723000  1
  C  1522  1  0.44872100  0.98132100  0.64627600  1
  C  1523  1  0.42797900  0.96921200  0.64541900  1
  C  1524  1  0.43013600  0.94686100  0.64484900  1
  C  1525  1  0.45201800  0.93697800  0.64562100  1
  C  1526  1  0.47183600  0.94993000  0.64539100  1
  C  1537  1  0.91414200  0.35873900  0.89396200  1
  C  1538  1  0.90202400  0.33943400  0.89303100  1
  C  1540  1  0.86607300  0.35771200  0.89024600  1
  C  1541  1  0.87719300  0.37774700  0.89044500  1
  C  1542  1  0.90153400  0.37781800  0.89242400  1
  C  1544  1  0.84201400  0.35526600  0.89027900  1
  C  1545  1  0.82826500  0.35668000  0.90882700  1
  C  1546  1  0.80419200  0.35345100  0.90656400  1
  C  1547  1  0.79445400  0.34890800  0.88668000  1
  C  1548  1  0.80914700  0.34770600  0.86898600  1
  C  1559  1  0.41411600  0.12496200  0.10948900  1
  C  1560  1  0.40201100  0.14427700  0.11035800  1
  C  1562  1  0.36605500  0.12602900  0.11324100  1
  C  1563  1  0.37716100  0.10598600  0.11308600  1
  C  1564  1  0.40150000  0.10589400  0.11110400  1
  C  1566  1  0.34199900  0.12848800  0.11321000  1
  C  1567  1  0.32825200  0.12711900  0.09465800  1
  C  1568  1  0.30418100  0.13035200  0.09692400  1
  C  1569  1  0.29444200  0.13487000  0.11681400  1
  C  1570  1  0.30913400  0.13602200  0.13451400  1
  C  1581  1  0.16393800  0.35002400  0.11950100  1
  C  1582  1  0.15219700  0.35110600  0.10006700  1
  C  1584  1  0.11586800  0.35347300  0.11771100  1
  C  1585  1  0.12659800  0.35314400  0.13786100  1
  C  1586  1  0.15094800  0.35131900  0.13832100  1
  C  1588  1  0.09186100  0.35307200  0.11487900  1
  C  1589  1  0.07835800  0.33433100  0.11651100  1
  C  1590  1  0.05427800  0.33625900  0.11311000  1
  C  1591  1  0.04431200  0.35599800  0.10812900  1
  C  1592  1  0.05877000  0.37389100  0.10668200  1
  C  1603  1  0.66391600  0.13389400  0.88397700  1
  C  1604  1  0.65216300  0.13286000  0.90340800  1
  C  1606  1  0.61584300  0.13050900  0.88574900  1
  C  1607  1  0.62658700  0.13076500  0.86560400  1
  C  1608  1  0.65094100  0.13255500  0.86515300  1
  C  1610  1  0.59183400  0.13090500  0.88855900  1
  C  1611  1  0.57834600  0.14966200  0.88700700  1
  C  1612  1  0.55426600  0.14773500  0.89040100  1
  C  1613  1  0.54428100  0.12798200  0.89529100  1
  C  1614  1  0.55872600  0.11007300  0.89666200  1
  C  1625  1  0.04686300  0.62124300  0.10967900  1
  C  1626  1  0.05835100  0.64089300  0.10948100  1
  C  1628  1  0.09477400  0.62384800  0.11408400  1
  C  1629  1  0.08431000  0.60354400  0.11506700  1
  C  1630  1  0.06002400  0.60266700  0.11273800  1
  C  1632  1  0.11872700  0.62693500  0.11418200  1
  C  1633  1  0.13235300  0.62722100  0.09551700  1
  C  1634  1  0.15630600  0.63101400  0.09789400  1
  C  1635  1  0.16604300  0.63444700  0.11800300  1
  C  1636  1  0.15148800  0.63387400  0.13581900  1
  C  1647  1  0.54688200  0.86268900  0.89374000  1
  C  1648  1  0.55836300  0.84303600  0.89400000  1
  C  1650  1  0.59478400  0.86005000  0.88929500  1
  C  1651  1  0.58433000  0.88035600  0.88826700  1
  C  1652  1  0.56004600  0.88124800  0.89060100  1
  C  1654  1  0.61873400  0.85695100  0.88918600  1
  C  1655  1  0.63236400  0.85661200  0.90784900  1
  C  1656  1  0.65631400  0.85281200  0.90546000  1
  C  1657  1  0.66604300  0.84941600  0.88534200  1
  C  1658  1  0.65148900  0.85004900  0.86752800  1
  C  1669  1  0.79867000  0.63396900  0.88234400  1
  C  1670  1  0.81038000  0.63338400  0.90181800  1
  C  1672  1  0.84661400  0.62954000  0.88432600  1
  C  1673  1  0.83593200  0.62940900  0.86415600  1
  C  1674  1  0.81162700  0.63172100  0.86359400  1
  C  1676  1  0.87058900  0.62914800  0.88724200  1
  C  1677  1  0.88452400  0.64767900  0.88759400  1
  C  1678  1  0.90845500  0.64495000  0.89129200  1
  C  1679  1  0.91785000  0.62463200  0.89463300  1
  C  1680  1  0.90299100  0.60697000  0.89403300  1
  C  1691  1  0.29868800  0.84975300  0.12104200  1
  C  1692  1  0.31041900  0.85029000  0.10157700  1
  C  1694  1  0.34664100  0.85410800  0.11909500  1
  C  1695  1  0.33593400  0.85431400  0.13925300  1
  C  1696  1  0.31162400  0.85204100  0.13979900  1
  C  1698  1  0.37061900  0.85450400  0.11620300  1
  C  1699  1  0.38454200  0.83596500  0.11578500  1
  C  1700  1  0.40847300  0.83869400  0.11208800  1
  C  1701  1  0.41788100  0.85901800  0.10881300  1
  C  1702  1  0.40303300  0.87668500  0.10947300  1
  C  1713  1  0.41300400  0.86394600  0.39376500  1
  C  1714  1  0.40138300  0.84435600  0.39412700  1
  C  1716  1  0.36509000  0.86147600  0.38900300  1
  C  1717  1  0.37568900  0.88171200  0.38779300  1
  C  1718  1  0.39996600  0.88252600  0.39031700  1
  C  1720  1  0.34113300  0.85837500  0.38838000  1
  C  1721  1  0.32725600  0.85630800  0.40677700  1
  C  1722  1  0.30342700  0.85226100  0.40380000  1
  C  1723  1  0.29404000  0.85023000  0.38336200  1
  C  1724  1  0.30882200  0.85258000  0.36584400  1
  C  1735  1  0.91300200  0.61973400  0.60971100  1
  C  1736  1  0.90138900  0.63932700  0.60928300  1
  C  1738  1  0.86509500  0.62224000  0.61449400  1
  C  1739  1  0.87568400  0.60200200  0.61575400  1
  C  1740  1  0.89996200  0.60117100  0.61323600  1
  C  1742  1  0.84113900  0.62535700  0.61511500  1
  C  1743  1  0.82726800  0.62745400  0.59671800  1
  C  1744  1  0.80344000  0.63150900  0.59969500  1
  C  1745  1  0.79404900  0.63352000  0.62013500  1
  C  1746  1  0.80882200  0.63112300  0.63765200  1
  C  1757  1  0.66444900  0.85044400  0.62343800  1
  C  1758  1  0.65309200  0.85011100  0.60378200  1
  C  1760  1  0.61661700  0.85553300  0.62045200  1
  C  1761  1  0.62694900  0.85663600  0.64074500  1
  C  1762  1  0.65119100  0.85398000  0.64181500  1
  C  1764  1  0.59268600  0.85601200  0.61718700  1
  C  1765  1  0.57885300  0.83746100  0.61591100  1
  C  1766  1  0.55498400  0.84024800  0.61196400  1
  C  1767  1  0.54550500  0.86064400  0.60930400  1
  C  1768  1  0.56023900  0.87832800  0.61090500  1
  C  1779  1  0.16445500  0.63343700  0.38001900  1
  C  1780  1  0.15308700  0.63383000  0.39966900  1
  C  1782  1  0.11661300  0.62842000  0.38299100  1
  C  1783  1  0.12696000  0.62722800  0.36271100  1
  C  1784  1  0.15120900  0.62984700  0.36164500  1
  C  1786  1  0.09268100  0.62792900  0.38624600  1
  C  1787  1  0.07885500  0.64647900  0.38760800  1
  C  1788  1  0.05498800  0.64368000  0.39156100  1
  C  1789  1  0.04550500  0.62327700  0.39415000  1
  C  1790  1  0.06023200  0.60559600  0.39246300  1
  C  1801  1  0.54797500  0.11805500  0.60984300  1
  C  1802  1  0.55927800  0.13777900  0.60888900  1
  C  1804  1  0.59572800  0.12139100  0.61529200  1
  C  1805  1  0.58543300  0.10107300  0.61715400  1
  C  1806  1  0.56122700  0.09981800  0.61427300  1
  C  1808  1  0.61960800  0.12487600  0.61627000  1
  C  1809  1  0.63359000  0.12802000  0.59809500  1
  C  1810  1  0.65728600  0.13236100  0.60145200  1
  C  1811  1  0.66645500  0.13365500  0.62203600  1
  C  1812  1  0.65160300  0.13019200  0.63931200  1
  C  1823  1  0.04797800  0.36586700  0.39354900  1
  C  1824  1  0.05927400  0.34614200  0.39455900  1
  C  1826  1  0.09572600  0.36249400  0.38808500  1
  C  1827  1  0.08544200  0.38281300  0.38618300  1
  C  1828  1  0.06123600  0.38408600  0.38905700  1
  C  1830  1  0.11960300  0.35899100  0.38710800  1
  C  1831  1  0.13357800  0.35582500  0.40528500  1
  C  1832  1  0.15727200  0.35147200  0.40193100  1
  C  1833  1  0.16644800  0.35019000  0.38134800  1
  C  1834  1  0.15160700  0.35369000  0.36407100  1
  C  1845  1  0.29815400  0.13327700  0.37776100  1
  C  1846  1  0.30928600  0.13385300  0.39751900  1
  C  1848  1  0.34587100  0.12778100  0.38132000  1
  C  1849  1  0.33576600  0.12638000  0.36094800  1
  C  1850  1  0.31156500  0.12925100  0.35958300  1
  C  1852  1  0.36972500  0.12692300  0.38492100  1
  C  1853  1  0.38371700  0.14526000  0.38733300  1
  C  1854  1  0.40742400  0.14205400  0.39174200  1
  C  1855  1  0.41657900  0.12146400  0.39379200  1
  C  1856  1  0.40171300  0.10401800  0.39104600  1
  C  1867  1  0.79815500  0.35043400  0.62565000  1
  C  1868  1  0.80929900  0.34979700  0.60590000  1
  C  1870  1  0.84588300  0.35585700  0.62210900  1
  C  1871  1  0.83576100  0.35734500  0.64246700  1
  C  1872  1  0.81155400  0.35451300  0.64382500  1
  C  1874  1  0.86974000  0.35672600  0.61851800  1
  C  1875  1  0.88372300  0.33839600  0.61602000  1
  C  1876  1  0.90742700  0.34161500  0.61160300  1
  C  1877  1  0.91658400  0.36221000  0.60961600  1
  C  1878  1  0.90172300  0.37964800  0.61244100  1
  C  1889  1  0.98226200  0.36693700  0.05664900  1
  C  1890  1  0.97308300  0.35029600  0.04442500  1
  C  1892  1  0.98284900  0.36774700  0.01172600  1
  C  1893  1  0.99172900  0.38541400  0.02316800  1
  C  1894  1  0.99107500  0.38462700  0.04556000  1
  C  1896  1  0.98300300  0.36592600  0.98919400  1
  C  1897  1  0.99069100  0.34777000  0.97774500  1
  C  1898  1  0.98774600  0.34757200  0.95547900  1
  C  1899  1  0.97825200  0.36497300  0.94450100  1
  C  1900  1  0.97157800  0.38265800  0.95668100  1
  C  1911  1  0.48228500  0.11691600  0.94679500  1
  C  1912  1  0.47309200  0.13354300  0.95902900  1
  C  1914  1  0.48287900  0.11609100  0.99171900  1
  C  1915  1  0.49181400  0.09845500  0.98026600  1
  C  1916  1  0.49112600  0.09923100  0.95787400  1
  C  1918  1  0.48301000  0.11789800  0.01425200  1
  C  1919  1  0.49061100  0.13608100  0.02571100  1
  C  1920  1  0.48765300  0.13626100  0.04797800  1
  C  1921  1  0.47823300  0.11881400  0.05893400  1
  C  1922  1  0.47167600  0.10109300  0.04675700  1
  C  1933  1  0.23279100  0.18691100  0.12759700  1
  C  1934  1  0.22336300  0.19899400  0.11100100  1
  C  1936  1  0.23309800  0.23186000  0.12820400  1
  C  1937  1  0.24225600  0.22054600  0.14579300  1
  C  1938  1  0.24169300  0.19809700  0.14513700  1
  C  1940  1  0.23298200  0.25441300  0.12636600  1
  C  1941  1  0.24050500  0.26594500  0.10824600  1
  C  1942  1  0.23738100  0.28824900  0.10810500  1
  C  1943  1  0.22782600  0.29909700  0.12552000  1
  C  1944  1  0.22131000  0.28684700  0.14316000  1
  C  1955  1  0.73277000  0.29692700  0.87587600  1
  C  1956  1  0.72335000  0.28482700  0.89246800  1
  C  1958  1  0.73311400  0.25196600  0.87527600  1
  C  1959  1  0.74227700  0.26328900  0.85769200  1
  C  1960  1  0.74166600  0.28573700  0.85833500  1
  C  1962  1  0.73303000  0.22941500  0.87711600  1
  C  1963  1  0.74053500  0.21789300  0.89524500  1
  C  1964  1  0.73742400  0.19558600  0.89538600  1
  C  1965  1  0.72791800  0.18471000  0.87796300  1
  C  1966  1  0.72140800  0.19696700  0.86032000  1
  C  1977  1  0.97926500  0.61181300  0.94658200  1
  C  1978  1  0.98856300  0.62834800  0.95888500  1
  C  1980  1  0.97857000  0.61090300  0.99155300  1
  C  1981  1  0.96955100  0.59334400  0.98003000  1
  C  1982  1  0.97025700  0.59418000  0.95763200  1
  C  1984  1  0.97835700  0.61268400  0.01411300  1
  C  1985  1  0.97082200  0.63088900  0.02557700  1
  C  1986  1  0.97367300  0.63103000  0.04786200  1
  C  1987  1  0.98292800  0.61353900  0.05887600  1
  C  1988  1  0.98945800  0.59581500  0.04668100  1
  C  1999  1  0.47924200  0.87196800  0.05684600  1
  C  2000  1  0.48855400  0.85544900  0.04453200  1
  C  2002  1  0.47854100  0.87289500  0.01187500  1
  C  2003  1  0.46946500  0.89042100  0.02340900  1
  C  2004  1  0.47020000  0.88959500  0.04580700  1
  C  2006  1  0.47834600  0.87112600  0.98931400  1
  C  2007  1  0.47089000  0.85289700  0.97784200  1
  C  2008  1  0.47375400  0.85277000  0.95555700  1
  C  2009  1  0.48294300  0.87029900  0.94456200  1
  C  2010  1  0.48936700  0.88805600  0.95675200  1
  C  2021  1  0.72776900  0.79694500  0.87603700  1
  C  2022  1  0.73708900  0.78500300  0.89278200  1
  C  2024  1  0.72793000  0.75197600  0.87560300  1
  C  2025  1  0.71880500  0.76315600  0.85790600  1
  C  2026  1  0.71918600  0.78560900  0.85845900  1
  C  2028  1  0.72845900  0.72941800  0.87742800  1
  C  2029  1  0.72141700  0.71772200  0.89561000  1
  C  2030  1  0.72492900  0.69546200  0.89564800  1
  C  2031  1  0.73435100  0.68479000  0.87806300  1
  C  2032  1  0.74038500  0.69718500  0.86038100  1
  C  2043  1  0.22779500  0.68686500  0.12731900  1
  C  2044  1  0.23710300  0.69882700  0.11057800  1
  C  2046  1  0.22791300  0.73184300  0.12775900  1
  C  2047  1  0.21878700  0.72065200  0.14544700  1
  C  2048  1  0.21921700  0.69819700  0.14490000  1
  C  2050  1  0.22840900  0.75440300  0.12593700  1
  C  2051  1  0.22138300  0.76609200  0.10775000  1
  C  2052  1  0.22488000  0.78835400  0.10772200  1
  C  2053  1  0.23425500  0.79904800  0.12531500  1
  C  2054  1  0.24028300  0.78664300  0.14299600  1
  C  2065  1  0.48383100  0.87010200  0.55675200  1
  C  2066  1  0.47458100  0.85329700  0.54480000  1
  C  2068  1  0.48367200  0.87052300  0.51181400  1
  C  2069  1  0.49279300  0.88826400  0.52299300  1
  C  2070  1  0.49242700  0.88770000  0.54539100  1
  C  2072  1  0.48311400  0.86871000  0.48927900  1
  C  2073  1  0.48993100  0.85042900  0.47756400  1
  C  2074  1  0.48645100  0.85046600  0.45535600  1
  C  2075  1  0.47731700  0.86821300  0.44467600  1
  C  2076  1  0.47144900  0.88595900  0.45710100  1
  C  2087  1  0.98386700  0.61370000  0.44671500  1
  C  2088  1  0.97460800  0.63049300  0.45867400  1
  C  2090  1  0.98371000  0.61326300  0.49165400  1
  C  2091  1  0.99287900  0.59555100  0.48046600  1
  C  2092  1  0.99248300  0.59610100  0.45806800  1
  C  2094  1  0.98313400  0.61506600  0.51419100  1
  C  2095  1  0.98987500  0.63336800  0.52591200  1
  C  2096  1  0.98638200  0.63331900  0.54811900  1
  C  2097  1  0.97731600  0.61553300  0.55878500  1
  C  2098  1  0.97155400  0.59775700  0.54636600  1
  C  2109  1  0.73333200  0.68661800  0.63243700  1
  C  2110  1  0.72391700  0.69874600  0.61586200  1
  C  2112  1  0.73353100  0.73163100  0.63313800  1
  C  2113  1  0.74271200  0.72026700  0.65069400  1
  C  2114  1  0.74219700  0.69780600  0.64999500  1
  C  2116  1  0.73333600  0.75421700  0.63133900  1
  C  2117  1  0.74065600  0.76580100  0.61317600  1
  C  2118  1  0.73745500  0.78810400  0.61306900  1
  C  2119  1  0.72803500  0.79895200  0.63055000  1
  C  2120  1  0.72173700  0.78666100  0.64823100  1
  C  2131  1  0.23328800  0.79719500  0.37099500  1
  C  2132  1  0.22389000  0.78504900  0.38756900  1
  C  2134  1  0.23354200  0.75217100  0.37030200  1
  C  2135  1  0.24272000  0.76354400  0.35275000  1
  C  2136  1  0.24215300  0.78600500  0.35343700  1
  C  2138  1  0.23338500  0.72958400  0.37210600  1
  C  2139  1  0.24069000  0.71801200  0.39027800  1
  C  2140  1  0.23751100  0.69570700  0.39038500  1
  C  2141  1  0.22814500  0.68482800  0.37289600  1
  C  2142  1  0.22185000  0.69712200  0.35521000  1
  C  2153  1  0.47800900  0.11084600  0.44653900  1
  C  2154  1  0.48721800  0.12761500  0.45857800  1
  C  2156  1  0.47791700  0.11039000  0.49155000  1
  C  2157  1  0.46883400  0.09268300  0.48028300  1
  C  2158  1  0.46932500  0.09326200  0.45787600  1
  C  2160  1  0.47831000  0.11219300  0.51412300  1
  C  2161  1  0.47151800  0.13049700  0.52582400  1
  C  2162  1  0.47480100  0.13042900  0.54806700  1
  C  2163  1  0.48371700  0.11263900  0.55884000  1
  C  2164  1  0.48956600  0.09487400  0.54642700  1
  C  2175  1  0.97798400  0.37295700  0.55686900  1
  C  2176  1  0.98720200  0.35619700  0.54482300  1
  C  2178  1  0.97789100  0.37342500  0.51185700  1
  C  2179  1  0.96875800  0.39110500  0.52313300  1
  C  2180  1  0.96928200  0.39054000  0.54553900  1
  C  2182  1  0.97830000  0.37163200  0.48928200  1
  C  2183  1  0.97158300  0.35330700  0.47757700  1
  C  2184  1  0.97488000  0.35338700  0.45533500  1
  C  2185  1  0.98372900  0.37121400  0.44457600  1
  C  2186  1  0.98947200  0.38900900  0.45698400  1
  C  2197  1  0.22764300  0.29711000  0.37041900  1
  C  2198  1  0.23690400  0.28511100  0.38715700  1
  C  2200  1  0.22790900  0.25208200  0.36985400  1
  C  2201  1  0.21883900  0.26332500  0.35216800  1
  C  2202  1  0.21916600  0.28579000  0.35278800  1
  C  2204  1  0.22845800  0.22949100  0.37164200  1
  C  2205  1  0.22146400  0.21775500  0.38981700  1
  C  2206  1  0.22496900  0.19548700  0.38982500  1
  C  2207  1  0.23432000  0.18479600  0.37221600  1
  C  2208  1  0.24029900  0.19722600  0.35453800  1
  C  2219  1  0.72767900  0.18668300  0.63301000  1
  C  2220  1  0.73692600  0.19869800  0.61627500  1
  C  2222  1  0.72789300  0.23171900  0.63356500  1
  C  2223  1  0.71881800  0.22047000  0.65124500  1
  C  2224  1  0.71919800  0.19800500  0.65064100  1
  C  2226  1  0.72840700  0.25431200  0.63177600  1
  C  2227  1  0.72143100  0.26603700  0.61358800  1
  C  2228  1  0.72491700  0.28830800  0.61358500  1
  C  2229  1  0.73421300  0.29902600  0.63120300  1
  C  2230  1  0.74018400  0.28659200  0.64888600  1
  N  8  1  0.99990200  0.41705000  0.81371300  1
  N  15  1  0.93193700  0.35366600  0.93575200  1
  N  17  1  0.98614000  0.34710000  0.84380900  1
  N  18  1  0.00860000  0.37162100  0.90886000  1
  N  34  1  0.50000000  0.06679800  0.18973500  1
  N  41  1  0.43188100  0.12996000  0.06768400  1
  N  43  1  0.48607100  0.13670300  0.15960200  1
  N  44  1  0.50861500  0.11224800  0.09457100  1
  N  60  1  0.25193800  0.42902800  0.17905500  1
  N  67  1  0.18161500  0.30809100  0.11412900  1
  N  69  1  0.23576300  0.39996900  0.10918200  1
  N  70  1  0.25836900  0.33452700  0.13245700  1
  N  86  1  0.75192100  0.05479600  0.82441100  1
  N  93  1  0.68168100  0.17580000  0.88934700  1
  N  95  1  0.73574100  0.08384600  0.89429900  1
  N  96  1  0.75837700  0.14922900  0.87101500  1
  N  112  1  0.46069900  0.06616400  0.81538500  1
  N  119  1  0.52691600  0.13252500  0.93716800  1
  N  121  1  0.47231400  0.13616200  0.84615600  1
  N  122  1  0.45134000  0.10946200  0.91163000  1
  N  138  1  0.96060200  0.41761700  0.18808000  1
  N  145  1  0.02693300  0.35142300  0.06626700  1
  N  147  1  0.97237700  0.34766500  0.15726200  1
  N  148  1  0.95129900  0.37431200  0.09182500  1
  N  164  1  0.20858700  0.05631900  0.17973900  1
  N  171  1  0.27724400  0.17691300  0.11187400  1
  N  173  1  0.22256900  0.08611400  0.10977300  1
  N  174  1  0.20154300  0.15202200  0.13523600  1
  N  190  1  0.70858100  0.42749100  0.82370300  1
  N  197  1  0.77720900  0.30688500  0.89163600  1
  N  199  1  0.72256200  0.39772100  0.89369100  1
  N  200  1  0.70155300  0.33183800  0.86821600  1
  N  216  1  0.95208800  0.56629100  0.19040100  1
  N  223  1  0.02930900  0.62464400  0.06759000  1
  N  225  1  0.97542800  0.63363500  0.15894600  1
  N  226  1  0.95262600  0.60690500  0.09459000  1
  N  242  1  0.45198600  0.91750600  0.81305100  1
  N  249  1  0.52935800  0.85934600  0.93584100  1
  N  251  1  0.47549600  0.85021100  0.84450500  1
  N  252  1  0.45260200  0.87685100  0.90885500  1
  N  268  1  0.69883100  0.55580900  0.82790500  1
  N  275  1  0.78104400  0.67595900  0.88782900  1
  N  277  1  0.73033500  0.58311200  0.89385700  1
  N  278  1  0.70363300  0.64922800  0.87260000  1
  N  294  1  0.19894700  0.92801700  0.17554300  1
  N  301  1  0.28096900  0.80779500  0.11554100  1
  N  303  1  0.23034600  0.90070700  0.10954500  1
  N  304  1  0.20362500  0.83465900  0.13082400  1
  N  320  1  0.51017200  0.91823800  0.18891000  1
  N  327  1  0.43477400  0.85603700  0.06659200  1
  N  329  1  0.48966500  0.85050500  0.15676000  1
  N  330  1  0.51022200  0.87967300  0.09197000  1
  N  346  1  0.01029900  0.56563200  0.81451300  1
  N  353  1  0.93475600  0.62764400  0.93684300  1
  N  355  1  0.98960900  0.63329500  0.84669600  1
  N  356  1  0.01026500  0.60418500  0.91145000  1
  N  372  1  0.76408800  0.92645400  0.82693400  1
  N  379  1  0.68279600  0.80715000  0.89031400  1
  N  381  1  0.73511400  0.89840500  0.89346400  1
  N  382  1  0.75953400  0.83169900  0.86969500  1
  N  398  1  0.26401000  0.55740700  0.17652900  1
  N  405  1  0.18283800  0.67669200  0.11299600  1
  N  407  1  0.23512800  0.58540400  0.10993600  1
  N  408  1  0.25953500  0.65209500  0.13368400  1
  N  424  1  0.51674500  0.91615600  0.31616500  1
  N  431  1  0.43044700  0.85919500  0.43581900  1
  N  433  1  0.48065300  0.85188100  0.34306600  1
  N  434  1  0.50812600  0.87308100  0.40914300  1
  N  450  1  0.01687900  0.56769800  0.68729400  1
  N  457  1  0.93042000  0.62440800  0.56764200  1
  N  459  1  0.98063300  0.63189200  0.66037800  1
  N  460  1  0.00814900  0.61073700  0.59431600  1
  N  476  1  0.76348400  0.93018700  0.67629400  1
  N  483  1  0.68156300  0.80802700  0.62005400  1
  N  485  1  0.73628100  0.89867800  0.61037700  1
  N  486  1  0.75877900  0.83439000  0.63687700  1
  N  502  1  0.26346700  0.55362100  0.32711000  1
  N  509  1  0.18165200  0.67583100  0.38339500  1
  N  511  1  0.23626900  0.58509100  0.39305000  1
  N  512  1  0.25881000  0.64934100  0.36655300  1
  N  528  1  0.94357800  0.56671600  0.31767200  1
  N  535  1  0.02895900  0.62766100  0.43644800  1
  N  537  1  0.97716100  0.63169500  0.34537000  1
  N  538  1  0.95199300  0.60777200  0.41200800  1
  N  554  1  0.44357600  0.91718800  0.68574900  1
  N  561  1  0.52894400  0.85620400  0.56701800  1
  N  563  1  0.47718500  0.85218800  0.65811700  1
  N  564  1  0.45195000  0.87598200  0.59146900  1
  N  580  1  0.69679700  0.55503000  0.67723300  1
  N  587  1  0.77796600  0.67624100  0.61737800  1
  N  589  1  0.72159100  0.58715500  0.61089600  1
  N  590  1  0.70163300  0.65197800  0.63974800  1
  N  606  1  0.19685600  0.92882600  0.32627300  1
  N  613  1  0.27791100  0.80752500  0.38610600  1
  N  615  1  0.22154400  0.89661800  0.39261200  1
  N  616  1  0.20163100  0.83186700  0.36365600  1
  N  632  1  0.43856500  0.07265900  0.68833400  1
  N  639  1  0.53063600  0.12156800  0.56762000  1
  N  641  1  0.48072500  0.13238900  0.65952600  1
  N  642  1  0.45298400  0.10788500  0.59452700  1
  N  658  1  0.93848800  0.41117700  0.31510400  1
  N  665  1  0.03066900  0.36242100  0.43578700  1
  N  667  1  0.98073400  0.35147800  0.34389200  1
  N  668  1  0.95296800  0.37590700  0.40889800  1
  N  684  1  0.18811600  0.05634400  0.33068100  1
  N  691  1  0.28112800  0.17571900  0.38137000  1
  N  693  1  0.23011600  0.08374500  0.39113500  1
  N  694  1  0.20330700  0.14932800  0.36735000  1
  N  710  1  0.68818500  0.42747000  0.67279200  1
  N  717  1  0.78104300  0.30801800  0.62204300  1
  N  719  1  0.73013500  0.40005800  0.61230000  1
  N  720  1  0.70328100  0.33454000  0.63608700  1
  N  736  1  0.02435600  0.41217900  0.68676200  1
  N  743  1  0.93287100  0.35899400  0.56710400  1
  N  745  1  0.98480100  0.35148900  0.65719900  1
  N  746  1  0.00984200  0.37880900  0.59169200  1
  N  762  1  0.52443400  0.07161100  0.31667900  1
  N  769  1  0.43287000  0.12473000  0.43629800  1
  N  771  1  0.48477200  0.13227400  0.34619500  1
  N  772  1  0.50988500  0.10506100  0.41171200  1
  N  788  1  0.27440400  0.42613400  0.32964700  1
  N  795  1  0.18249000  0.30741700  0.38415500  1
  N  797  1  0.23524500  0.39781600  0.39113600  1
  N  798  1  0.25963700  0.33181100  0.36462900  1
  N  814  1  0.77436700  0.05769100  0.67384500  1
  N  821  1  0.68254400  0.17641300  0.61921500  1
  N  823  1  0.73526400  0.08599500  0.61231400  1
  N  824  1  0.75964000  0.15196200  0.63883700  1
  N  835  1  0.00958700  0.35996000  0.72707000  1
  N  845  1  0.97771400  0.36844200  0.77361300  1
  N  849  1  0.03960700  0.37558300  0.76400400  1
  N  852  1  0.96693000  0.40083200  0.73982200  1
  N  857  1  0.50955600  0.12384700  0.27636000  1
  N  867  1  0.47768700  0.11528500  0.22982200  1
  N  871  1  0.53961100  0.10837900  0.23941800  1
  N  874  1  0.46700100  0.08287800  0.26361600  1
  N  879  1  0.25929800  0.51655800  0.12273100  1
  N  889  1  0.22724200  0.46953000  0.12995300  1
  N  893  1  0.28862800  0.48032300  0.13903700  1
  N  896  1  0.21197300  0.50419800  0.15909900  1
  N  901  1  0.75932800  0.96725800  0.88073400  1
  N  911  1  0.72727600  0.01428500  0.87349600  1
  N  915  1  0.78867600  0.00352000  0.86446800  1
  N  918  1  0.71204000  0.97966000  0.84434400  1
  N  923  1  0.45329600  0.12420700  0.72890700  1
  N  933  1  0.48364500  0.11521700  0.77611500  1
  N  937  1  0.42210300  0.10795400  0.76489300  1
  N  940  1  0.49512400  0.08284400  0.74233400  1
  N  945  1  0.95331800  0.35961000  0.27453100  1
  N  955  1  0.98366500  0.36866700  0.22732600  1
  N  959  1  0.92209700  0.37573000  0.23854200  1
  N  962  1  0.99506300  0.40105300  0.26111800  1
  N  967  1  0.20344700  0.96904700  0.12228700  1
  N  977  1  0.23399300  0.01675400  0.13001200  1
  N  981  1  0.17305000  0.00426800  0.13940200  1
  N  984  1  0.25017200  0.98217400  0.15902900  1
  N  989  1  0.70338800  0.51478000  0.88114900  1
  N  999  1  0.73393800  0.46708200  0.87339500  1
  N  1003  1  0.67297300  0.47953200  0.86407700  1
  N  1006  1  0.75006800  0.50162800  0.84437100  1
  N  1011  1  0.95255300  0.62145300  0.27690100  1
  N  1021  1  0.98355300  0.61129700  0.22962700  1
  N  1025  1  0.92128200  0.61185400  0.23973200  1
  N  1028  1  0.99470000  0.58040900  0.26338600  1
  N  1033  1  0.45258500  0.86241500  0.72654500  1
  N  1043  1  0.48356900  0.87264200  0.77381800  1
  N  1047  1  0.42130500  0.87187300  0.76370500  1
  N  1050  1  0.49465100  0.90353600  0.74005700  1
  N  1055  1  0.50793400  0.86198600  0.27514500  1
  N  1065  1  0.47837700  0.87249500  0.22727900  1
  N  1069  1  0.54031500  0.87253000  0.23890700  1
  N  1072  1  0.46641500  0.90335200  0.26099800  1
  N  1077  1  0.00792800  0.62189200  0.72830100  1
  N  1087  1  0.97842500  0.61124700  0.77617100  1
  N  1091  1  0.04036800  0.61151700  0.76455200  1
  N  1094  1  0.96660500  0.58037400  0.74248500  1
  N  1099  1  0.76007900  0.01675800  0.62049900  1
  N  1109  1  0.72976300  0.96952400  0.63220200  1
  N  1113  1  0.79200900  0.97935500  0.62908200  1
  N  1116  1  0.72142400  0.00290600  0.66415600  1
  N  1121  1  0.26009200  0.46705900  0.38293400  1
  N  1131  1  0.22973400  0.51427000  0.37120500  1
  N  1135  1  0.29198500  0.50445300  0.37435300  1
  N  1138  1  0.22138300  0.48084900  0.33929600  1
  N  1143  1  0.70254900  0.46871100  0.62024700  1
  N  1153  1  0.73125700  0.51655800  0.63241800  1
  N  1157  1  0.66932900  0.50506600  0.62976500  1
  N  1160  1  0.74036200  0.48312500  0.66434100  1
  N  1165  1  0.20249100  0.01511000  0.38323500  1
  N  1175  1  0.23119000  0.96726600  0.37104100  1
  N  1179  1  0.16926600  0.97871500  0.37381300  1
  N  1182  1  0.24023800  0.00064000  0.33911500  1
  N  1187  1  0.01563900  0.51289500  0.86729900  1
  N  1197  1  0.98367700  0.46788500  0.86232100  1
  N  1201  1  0.04350500  0.47659100  0.84512400  1
  N  1204  1  0.96990200  0.50027600  0.82907300  1
  N  1209  1  0.51561400  0.97092300  0.13617200  1
  N  1219  1  0.48365700  0.01595600  0.14115600  1
  N  1223  1  0.54348700  0.00717700  0.15831000  1
  N  1226  1  0.46975800  0.98350900  0.17428800  1
  N  1231  1  0.26965200  0.37344700  0.27342800  1
  N  1241  1  0.23773400  0.38227100  0.22992500  1
  N  1245  1  0.29980700  0.39290000  0.23509600  1
  N  1248  1  0.23412800  0.41997200  0.26085600  1
  N  1253  1  0.76964100  0.11039700  0.73002900  1
  N  1263  1  0.73773900  0.10159400  0.77352400  1
  N  1267  1  0.79980300  0.09091300  0.76841500  1
  N  1270  1  0.73419700  0.06384600  0.74268000  1
  N  1275  1  0.44588900  0.96959600  0.86699800  1
  N  1285  1  0.47717300  0.01505000  0.86288600  1
  N  1289  1  0.41729000  0.00618300  0.84593000  1
  N  1292  1  0.49082000  0.98375100  0.82851600  1
  N  1297  1  0.94592300  0.51422100  0.13650900  1
  N  1307  1  0.97720600  0.46874900  0.14064700  1
  N  1311  1  0.91729800  0.47767700  0.15750100  1
  N  1314  1  0.99094400  0.50009900  0.17491800  1
  N  1319  1  0.19200000  0.11003000  0.27491300  1
  N  1329  1  0.22317100  0.10185100  0.23089100  1
  N  1333  1  0.16101500  0.09184100  0.23643100  1
  N  1336  1  0.22648300  0.06329300  0.26083300  1
  N  1341  1  0.69200200  0.37375800  0.72852500  1
  N  1351  1  0.72315500  0.38191300  0.77254400  1
  N  1355  1  0.66100700  0.39197400  0.76705800  1
  N  1358  1  0.72642300  0.42050700  0.74268900  1
  N  1363  1  0.69336300  0.60852200  0.73047900  1
  N  1373  1  0.72431000  0.59995900  0.77572400  1
  N  1377  1  0.66212600  0.59258400  0.76719800  1
  N  1380  1  0.73423000  0.56609000  0.74388700  1
  N  1385  1  0.19344400  0.87540700  0.27297400  1
  N  1395  1  0.22443300  0.88399000  0.22775500  1
  N  1399  1  0.16222700  0.89125100  0.23622600  1
  N  1402  1  0.23432000  0.91784700  0.25960200  1
  N  1407  1  0.76806400  0.87570300  0.72891200  1
  N  1417  1  0.73788900  0.88335000  0.77472800  1
  N  1421  1  0.79997400  0.89065100  0.76557100  1
  N  1424  1  0.72774600  0.91807000  0.74381900  1
  N  1429  1  0.26805400  0.60813600  0.27453000  1
  N  1439  1  0.23787800  0.60051600  0.22871300  1
  N  1443  1  0.29997500  0.59324300  0.23781600  1
  N  1446  1  0.22779000  0.56576000  0.25953300  1
  N  1451  1  0.52189900  0.01455400  0.36915300  1
  N  1461  1  0.49158600  0.97016500  0.35708000  1
  N  1465  1  0.55458400  0.97626000  0.35639500  1
  N  1468  1  0.48954900  0.00132900  0.32106600  1
  N  1473  1  0.02187100  0.46924600  0.63434500  1
  N  1483  1  0.99157700  0.51365100  0.64646400  1
  N  1487  1  0.05456900  0.50748600  0.64704700  1
  N  1490  1  0.98944800  0.48242200  0.68240700  1
  N  1495  1  0.93988500  0.46768900  0.36859600  1
  N  1505  1  0.96947000  0.51268400  0.35735000  1
  N  1509  1  0.90655500  0.50588600  0.35708200  1
  N  1512  1  0.97154700  0.48239500  0.32056400  1
  N  1517  1  0.43985300  0.01618800  0.63479100  1
  N  1527  1  0.46943900  0.97117300  0.64599800  1
  N  1531  1  0.40652400  0.97797200  0.64633100  1
  N  1534  1  0.47155300  0.00140200  0.68278100  1
  N  1539  1  0.87868900  0.33962600  0.89152400  1
  N  1549  1  0.83211800  0.35083100  0.87138500  1
  N  1553  1  0.83723900  0.36056900  0.92827600  1
  N  1556  1  0.86553200  0.39638800  0.88914200  1
  N  1561  1  0.37867900  0.14410400  0.11189800  1
  N  1571  1  0.33210200  0.13288600  0.13211200  1
  N  1575  1  0.33722600  0.12324900  0.07520400  1
  N  1578  1  0.36548600  0.08735500  0.11444500  1
  N  1583  1  0.12885000  0.35244900  0.09988300  1
  N  1593  1  0.08174000  0.37182000  0.11003300  1
  N  1597  1  0.08756300  0.31499600  0.12078500  1
  N  1600  1  0.11456400  0.35418000  0.15626500  1
  N  1605  1  0.62881500  0.13154600  0.90358200  1
  N  1615  1  0.58169900  0.11214300  0.89332800  1
  N  1619  1  0.58756700  0.16900800  0.88280600  1
  N  1622  1  0.61456100  0.12970200  0.84719700  1
  N  1627  1  0.08164100  0.64144700  0.11133400  1
  N  1637  1  0.12861600  0.63024500  0.13331000  1
  N  1641  1  0.12339700  0.62422300  0.07590300  1
  N  1644  1  0.09655100  0.58535400  0.11765500  1
  N  1649  1  0.58164900  0.84246300  0.89211100  1
  N  1659  1  0.62861900  0.85368800  0.87004800  1
  N  1663  1  0.62341400  0.85957500  0.92746900  1
  N  1666  1  0.59657700  0.89853400  0.88562000  1
  N  1671  1  0.83367100  0.63151300  0.90208900  1
  N  1681  1  0.88015900  0.60981900  0.89047700  1
  N  1685  1  0.87586200  0.66748900  0.88479100  1
  N  1688  1  0.84798200  0.62754900  0.84582900  1
  N  1693  1  0.33371300  0.85212800  0.10132400  1
  N  1703  1  0.38019900  0.87383700  0.11302000  1
  N  1707  1  0.37586700  0.81615200  0.11853100  1
  N  1710  1  0.34796700  0.85620200  0.15758800  1
  N  1715  1  0.37811700  0.84386800  0.39207700  1
  N  1725  1  0.33156900  0.85642100  0.36893100  1
  N  1729  1  0.33586100  0.85795600  0.42667700  1
  N  1732  1  0.36356300  0.89991600  0.38488400  1
  N  1737  1  0.87812700  0.63983400  0.61135800  1
  N  1747  1  0.83156700  0.62727500  0.63456600  1
  N  1751  1  0.83587600  0.62583000  0.57681800  1
  N  1754  1  0.86354800  0.58381300  0.61872300  1
  N  1759  1  0.62984400  0.85230800  0.60304400  1
  N  1769  1  0.58303400  0.87542300  0.61466600  1
  N  1773  1  0.58752900  0.81758600  0.61819100  1
  N  1776  1  0.61460800  0.85959700  0.65876700  1
  N  1781  1  0.12983500  0.63166100  0.40039900  1
  N  1791  1  0.08302600  0.60851000  0.38870300  1
  N  1795  1  0.08753300  0.66636000  0.38539400  1
  N  1798  1  0.11463000  0.62422300  0.34469000  1
  N  1803  1  0.58248100  0.13867700  0.61130300  1
  N  1813  1  0.62897200  0.12608700  0.63586700  1
  N  1817  1  0.62524500  0.12699400  0.57805800  1
  N  1820  1  0.59778300  0.08315600  0.62092600  1
  N  1825  1  0.08247300  0.34522400  0.39212300  1
  N  1835  1  0.12897700  0.35780400  0.36751400  1
  N  1839  1  0.12522900  0.35683500  0.42532000  1
  N  1842  1  0.09780000  0.40071500  0.38236300  1
  N  1847  1  0.33248400  0.13143400  0.39853400  1
  N  1857  1  0.37907500  0.10732100  0.38686000  1
  N  1861  1  0.37535500  0.16530400  0.38561000  1
  N  1864  1  0.34828900  0.12299000  0.34311000  1
  N  1869  1  0.83250200  0.35218600  0.60489300  1
  N  1879  1  0.87908900  0.37633300  0.61663000  1
  N  1883  1  0.87536400  0.31834700  0.61768300  1
  N  1886  1  0.84827400  0.36077900  0.66030400  1
  N  1891  1  0.97382600  0.35133100  0.02301900  1
  N  1901  1  0.97379500  0.38227500  0.97799200  1
  N  1905  1  0.00092100  0.33080400  0.98710300  1
  N  1908  1  0.00226700  0.40221400  0.01377400  1
  N  1913  1  0.47381300  0.13249200  0.98043300  1
  N  1923  1  0.47389800  0.10149800  0.02544600  1
  N  1927  1  0.50073800  0.15310200  0.01635600  1
  N  1930  1  0.50239000  0.08167000  0.98965300  1
  N  1935  1  0.22396500  0.22046300  0.11194500  1
  N  1945  1  0.22371700  0.26550600  0.14272500  1
  N  1949  1  0.25073700  0.25664400  0.09128800  1
  N  1952  1  0.25292000  0.23010500  0.16239800  1
  N  1957  1  0.72396800  0.26336000  0.89152900  1
  N  1967  1  0.72378100  0.21831200  0.86075700  1
  N  1971  1  0.75073700  0.22720200  0.91221500  1
  N  1974  1  0.75293000  0.25372500  0.84108100  1
  N  1979  1  0.98776000  0.62726900  0.98029400  1
  N  1989  1  0.98733300  0.59624500  0.02535200  1
  N  1993  1  0.96082300  0.64796700  0.01621500  1
  N  1996  1  0.95883800  0.57660300  0.98936300  1
  N  2001  1  0.48777600  0.85654600  0.02312500  1
  N  2011  1  0.48723700  0.88760800  0.97808000  1
  N  2015  1  0.46098600  0.83577200  0.98720500  1
  N  2018  1  0.45870700  0.90714300  0.01408700  1
  N  2023  1  0.73676900  0.76352500  0.89189200  1
  N  2033  1  0.73765200  0.71848700  0.86092900  1
  N  2037  1  0.71124300  0.72680900  0.91271200  1
  N  2040  1  0.70833900  0.75347200  0.84126400  1
  N  2045  1  0.23676600  0.72030200  0.11146900  1
  N  2055  1  0.23758900  0.76533700  0.14243900  1
  N  2059  1  0.21124200  0.75700200  0.09063500  1
  N  2062  1  0.20833400  0.73033300  0.16209700  1
  N  2067  1  0.47487800  0.85418900  0.52337800  1
  N  2077  1  0.47414000  0.88535000  0.47835200  1
  N  2081  1  0.49989600  0.83315200  0.48658700  1
  N  2084  1  0.50327000  0.90496000  0.51335600  1
  N  2089  1  0.97488300  0.62958800  0.48009700  1
  N  2099  1  0.97424700  0.59838400  0.52511500  1
  N  2103  1  0.99974300  0.65069100  0.51688400  1
  N  2106  1  0.00338900  0.57886500  0.49009600  1
  N  2111  1  0.72445200  0.72022000  0.61685900  1
  N  2121  1  0.72419900  0.76531200  0.64776400  1
  N  2125  1  0.75079600  0.75655500  0.59614000  1
  N  2128  1  0.75334800  0.72980400  0.66732600  1
  N  2133  1  0.22444500  0.76357600  0.38657600  1
  N  2143  1  0.22426900  0.71847400  0.35567900  1
  N  2147  1  0.25079300  0.72727000  0.40732500  1
  N  2150  1  0.25334900  0.75400500  0.33611500  1
  N  2155  1  0.48679400  0.12671000  0.48001000  1
  N  2165  1  0.48706500  0.09550900  0.52514500  1
  N  2169  1  0.46175900  0.14784500  0.51674500  1
  N  2172  1  0.45825200  0.07599900  0.48984600  1
  N  2177  1  0.98680000  0.35711500  0.52339200  1
  N  2187  1  0.98697000  0.38835700  0.47826500  1
  N  2191  1  0.96192100  0.33591400  0.48665800  1
  N  2194  1  0.95814800  0.40777600  0.51357200  1
  N  2199  1  0.23664100  0.26362700  0.38619900  1
  N  2209  1  0.23758700  0.21854000  0.35511600  1
  N  2213  1  0.21131200  0.22680900  0.40694900  1
  N  2216  1  0.20845700  0.25368200  0.33546000  1
  N  2221  1  0.73664200  0.22017800  0.61722500  1
  N  2231  1  0.73751200  0.26527400  0.64830200  1
  N  2235  1  0.71131700  0.25697100  0.59644300  1
  N  2238  1  0.70844500  0.23011700  0.66795600  1
