# generated using pymatgen
data_H15(C13N2)2
_symmetry_space_group_name_H-M   'P 1'
_cell_length_a   43.99790000
_cell_length_b   51.07630000
_cell_length_c   51.08520000
_cell_angle_alpha   89.99240000
_cell_angle_beta   89.98650000
_cell_angle_gamma   89.99320000
_symmetry_Int_Tables_number   1
_chemical_formula_structural   H15(C13N2)2
_chemical_formula_sum   'H720 C1248 N192'
_cell_volume   114801.20761842
_cell_formula_units_Z   48
loop_
 _symmetry_equiv_pos_site_id
 _symmetry_equiv_pos_as_xyz
  1  'x, y, z'
loop_
 _atom_site_type_symbol
 _atom_site_label
 _atom_site_symmetry_multiplicity
 _atom_site_fract_x
 _atom_site_fract_y
 _atom_site_fract_z
 _atom_site_occupancy
  H  49  1  0.95480300  0.11563900  0.87185200  1
  H  50  1  0.98077100  0.08939900  0.90335000  1
  H  51  1  0.87402700  0.07302500  0.88575500  1
  H  52  1  0.90027500  0.04664000  0.91720500  1
  H  53  1  0.92055800  0.08866900  0.95671300  1
  H  54  1  0.92065700  0.08857900  0.00617300  1
  H  55  1  0.97721700  0.03021800  0.98125800  1
  H  56  1  0.01907200  0.00150000  0.98120500  1
  H  57  1  0.97744200  0.03335000  0.88133000  1
  H  58  1  0.01853600  0.99845600  0.88128900  1
  H  59  1  0.09577600  0.98501700  0.91701200  1
  H  60  1  0.12195400  0.95858900  0.88555500  1
  H  61  1  0.01518800  0.94237000  0.90324300  1
  H  62  1  0.04108700  0.91608500  0.87174000  1
  H  63  1  0.07543800  0.94291600  0.95647400  1
  H  64  1  0.07545900  0.94293600  0.00593000  1
  H  65  1  0.97809200  0.03366300  0.08124500  1
  H  66  1  0.01837000  0.99788100  0.08118900  1
  H  67  1  0.01925900  0.93507400  0.04940100  1
  H  68  1  0.04499800  0.90782100  0.08000100  1
  H  69  1  0.08983900  0.99075400  0.05455900  1
  H  70  1  0.11551800  0.96379700  0.08580500  1
  H  71  1  0.97717200  0.09642500  0.04961200  1
  H  72  1  0.95151000  0.12363900  0.08029700  1
  H  73  1  0.88085700  0.06777300  0.08600400  1
  H  74  1  0.90646400  0.04085400  0.05468000  1
  H  123  1  0.45488600  0.91577100  0.59033500  1
  H  124  1  0.48085300  0.94202100  0.55884200  1
  H  125  1  0.37408000  0.95834900  0.57641800  1
  H  126  1  0.40033100  0.98474600  0.54497400  1
  H  127  1  0.42078200  0.94261200  0.50550600  1
  H  128  1  0.42088600  0.94266000  0.45604900  1
  H  129  1  0.47718500  0.00121800  0.48090200  1
  H  130  1  0.51916400  0.02983000  0.48095200  1
  H  131  1  0.47749600  0.99806500  0.58083600  1
  H  132  1  0.51860000  0.03295700  0.58087500  1
  H  133  1  0.59586500  0.04639700  0.54509400  1
  H  134  1  0.62203900  0.07284500  0.57652300  1
  H  135  1  0.51525200  0.08901000  0.55891900  1
  H  136  1  0.54114400  0.11531500  0.59039300  1
  H  137  1  0.57548000  0.08845800  0.50562300  1
  H  138  1  0.57553700  0.08837800  0.45616800  1
  H  139  1  0.47818000  0.99763400  0.38092200  1
  H  140  1  0.51847100  0.03339900  0.38096000  1
  H  141  1  0.51928000  0.09618400  0.41273800  1
  H  142  1  0.54497400  0.12346400  0.38212900  1
  H  143  1  0.58995400  0.04057700  0.40755700  1
  H  144  1  0.61558700  0.06756000  0.37630000  1
  H  145  1  0.47726000  0.93490800  0.41251700  1
  H  146  1  0.45159700  0.90770200  0.38184200  1
  H  147  1  0.38088700  0.96353400  0.37624700  1
  H  148  1  0.40649500  0.99044500  0.40756200  1
  H  197  1  0.69295400  0.15714300  0.63283300  1
  H  198  1  0.72376000  0.18710900  0.65663000  1
  H  199  1  0.61899600  0.17470100  0.68289300  1
  H  200  1  0.65011500  0.20382300  0.70671200  1
  H  201  1  0.66927100  0.24145100  0.65932700  1
  H  202  1  0.66995500  0.29093000  0.65877600  1
  H  203  1  0.72728000  0.26620200  0.71663800  1
  H  204  1  0.76857300  0.26620000  0.74549100  1
  H  205  1  0.72690300  0.16614400  0.71396900  1
  H  206  1  0.76895700  0.16613600  0.74812500  1
  H  207  1  0.84577000  0.20382400  0.75538900  1
  H  208  1  0.87692100  0.17476100  0.77926000  1
  H  209  1  0.77210700  0.18706700  0.80543700  1
  H  210  1  0.80294100  0.15714600  0.82927900  1
  H  211  1  0.82659100  0.24139800  0.80278300  1
  H  212  1  0.82591400  0.29087500  0.80335600  1
  H  213  1  0.72776900  0.36620700  0.71320700  1
  H  214  1  0.76808900  0.36619900  0.74895400  1
  H  215  1  0.76727300  0.33791000  0.80959000  1
  H  216  1  0.79341200  0.36843300  0.83670100  1
  H  217  1  0.84208100  0.33595900  0.75792800  1
  H  218  1  0.86829200  0.36694300  0.78479800  1
  H  219  1  0.72856500  0.33793800  0.65254700  1
  H  220  1  0.70241300  0.36850100  0.62547600  1
  H  221  1  0.62759400  0.36702000  0.67744900  1
  H  222  1  0.65382000  0.33599500  0.70427600  1
  H  271  1  0.19287800  0.87425400  0.82929800  1
  H  272  1  0.22369500  0.84427900  0.80550700  1
  H  273  1  0.11897200  0.85676900  0.77918300  1
  H  274  1  0.15010600  0.82763800  0.75537100  1
  H  275  1  0.16914700  0.78999100  0.80275700  1
  H  276  1  0.16982500  0.74051200  0.80332600  1
  H  277  1  0.22730700  0.76521100  0.74554600  1
  H  278  1  0.26861600  0.76520500  0.71670200  1
  H  279  1  0.22689600  0.86526800  0.74816200  1
  H  280  1  0.26898600  0.86526500  0.71402600  1
  H  281  1  0.34583800  0.82747600  0.70670600  1
  H  282  1  0.37699800  0.85653400  0.68283000  1
  H  283  1  0.27214300  0.84437300  0.65676300  1
  H  284  1  0.30298300  0.87430100  0.63293000  1
  H  285  1  0.32660300  0.78997500  0.65935100  1
  H  286  1  0.32591600  0.74049600  0.65879200  1
  H  287  1  0.22776800  0.66520700  0.74899500  1
  H  288  1  0.26812500  0.66520300  0.71326000  1
  H  289  1  0.26731100  0.69353000  0.65258300  1
  H  290  1  0.29344400  0.66298800  0.62547800  1
  H  291  1  0.34206200  0.69539600  0.70427800  1
  H  292  1  0.36827000  0.66438600  0.67741700  1
  H  293  1  0.22849600  0.69351400  0.80962700  1
  H  294  1  0.20234900  0.66294100  0.83669500  1
  H  295  1  0.12757500  0.66437600  0.78470100  1
  H  296  1  0.15379400  0.69541100  0.75787600  1
  H  345  1  0.30616500  0.86876600  0.33360100  1
  H  346  1  0.27484600  0.83964400  0.30891100  1
  H  347  1  0.37448700  0.86294500  0.27561600  1
  H  348  1  0.34334400  0.83348700  0.25142700  1
  H  349  1  0.32939400  0.79055600  0.30065700  1
  H  350  1  0.32852500  0.74105200  0.30135100  1
  H  351  1  0.26753400  0.76586100  0.24641700  1
  H  352  1  0.22913000  0.76587800  0.21518800  1
  H  353  1  0.26930700  0.86589900  0.24805500  1
  H  354  1  0.22740000  0.86592500  0.21365400  1
  H  355  1  0.15336500  0.83342800  0.21024400  1
  H  356  1  0.12217000  0.86292300  0.18613800  1
  H  357  1  0.22186600  0.83985800  0.15278800  1
  H  358  1  0.19049400  0.86902100  0.12818100  1
  H  359  1  0.16733800  0.79068300  0.16093100  1
  H  360  1  0.16812700  0.74117600  0.16022300  1
  H  361  1  0.26825400  0.66584300  0.24881200  1
  H  362  1  0.22823400  0.66586700  0.21280800  1
  H  363  1  0.22663000  0.69826000  0.14968800  1
  H  364  1  0.20074400  0.66775900  0.12242900  1
  H  365  1  0.15698100  0.69202700  0.20612800  1
  H  366  1  0.13113000  0.66092400  0.17912400  1
  H  367  1  0.26978400  0.69815800  0.31182200  1
  H  368  1  0.29559000  0.66765200  0.33914200  1
  H  369  1  0.36544500  0.66090400  0.28265200  1
  H  370  1  0.33966700  0.69201100  0.25558500  1
  H  419  1  0.80614500  0.16261400  0.12855100  1
  H  420  1  0.77482000  0.19176100  0.15321800  1
  H  421  1  0.87440600  0.16839400  0.18656900  1
  H  422  1  0.84325400  0.19788300  0.21073500  1
  H  423  1  0.82930900  0.24081200  0.16142000  1
  H  424  1  0.82844900  0.29031600  0.16070900  1
  H  425  1  0.76750300  0.26554400  0.21571900  1
  H  426  1  0.72899900  0.26553200  0.24687300  1
  H  427  1  0.76925500  0.16550300  0.21409400  1
  H  428  1  0.72731700  0.16549000  0.24848200  1
  H  429  1  0.65327700  0.19795900  0.25186900  1
  H  430  1  0.62211000  0.16844100  0.27598400  1
  H  431  1  0.72175500  0.19160200  0.30932500  1
  H  432  1  0.69041300  0.16242200  0.33394300  1
  H  433  1  0.66724100  0.24075800  0.30119400  1
  H  434  1  0.66802100  0.29026600  0.30187400  1
  H  435  1  0.76820500  0.36555700  0.21327200  1
  H  436  1  0.72815300  0.36554600  0.24926600  1
  H  437  1  0.72653300  0.33314900  0.31235500  1
  H  438  1  0.70066800  0.36367300  0.33961900  1
  H  439  1  0.65688400  0.33941300  0.25594100  1
  H  440  1  0.63105300  0.37054200  0.28294800  1
  H  441  1  0.76976600  0.33325000  0.15027000  1
  H  442  1  0.79558100  0.36377900  0.12297300  1
  H  443  1  0.86539400  0.37048900  0.17947500  1
  H  444  1  0.83961100  0.33936000  0.20651800  1
  H  493  1  0.44066000  0.61916800  0.37798700  1
  H  494  1  0.47199100  0.59446100  0.40711800  1
  H  495  1  0.37255500  0.56098200  0.38347400  1
  H  496  1  0.40372700  0.53673800  0.41289200  1
  H  497  1  0.41625000  0.58498100  0.45598800  1
  H  498  1  0.41633600  0.58509600  0.50546200  1
  H  499  1  0.48014400  0.53251300  0.48075400  1
  H  500  1  0.51584800  0.49898900  0.48078300  1
  H  501  1  0.47749800  0.53327300  0.38071400  1
  H  502  1  0.51871400  0.49823300  0.38074400  1
  H  503  1  0.59245100  0.49470700  0.41308100  1
  H  504  1  0.62371000  0.47042500  0.38375800  1
  H  505  1  0.52410500  0.43708100  0.40711000  1
  H  506  1  0.55551300  0.41233600  0.37807700  1
  H  507  1  0.57976900  0.44649800  0.45610200  1
  H  508  1  0.57958500  0.44638500  0.50557500  1
  H  509  1  0.47759800  0.53353200  0.58079400  1
  H  510  1  0.51818200  0.49796700  0.58082300  1
  H  511  1  0.52639600  0.43383700  0.54978600  1
  H  512  1  0.55750400  0.40928400  0.57921600  1
  H  513  1  0.58832200  0.49680100  0.55346900  1
  H  514  1  0.61912800  0.47271000  0.58331400  1
  H  515  1  0.46948900  0.59764400  0.54974400  1
  H  516  1  0.43836200  0.62218900  0.57917300  1
  H  517  1  0.37668000  0.55879400  0.58319100  1
  H  518  1  0.40750600  0.53471400  0.55334800  1
  H  567  1  0.94065400  0.41226000  0.08416000  1
  H  568  1  0.97199000  0.43697600  0.05503900  1
  H  569  1  0.87256100  0.47047800  0.07874200  1
  H  570  1  0.90374000  0.49473200  0.04933100  1
  H  571  1  0.91624300  0.44646400  0.00624000  1
  H  572  1  0.91633300  0.44630700  0.95676600  1
  H  573  1  0.98014200  0.49889500  0.98141200  1
  H  574  1  0.01588300  0.53238100  0.98137200  1
  H  575  1  0.97751500  0.49817500  0.08145800  1
  H  576  1  0.01875200  0.53318700  0.08140500  1
  H  577  1  0.09254600  0.53676200  0.04896100  1
  H  578  1  0.12380000  0.56105000  0.07826200  1
  H  579  1  0.02411300  0.59431100  0.05507300  1
  H  580  1  0.05551900  0.61906300  0.08408800  1
  H  581  1  0.07975200  0.58492500  0.00598800  1
  H  582  1  0.07953400  0.58502900  0.95651800  1
  H  583  1  0.97761300  0.49780800  0.88137900  1
  H  584  1  0.01818400  0.53337500  0.88132500  1
  H  585  1  0.02635000  0.59753100  0.91234500  1
  H  586  1  0.05745600  0.62208700  0.88291300  1
  H  587  1  0.08831400  0.53458400  0.90866800  1
  H  588  1  0.11912200  0.55867600  0.87881800  1
  H  589  1  0.96948100  0.43371700  0.91244400  1
  H  590  1  0.93836200  0.40917200  0.88302400  1
  H  591  1  0.87667600  0.47257200  0.87901500  1
  H  592  1  0.90749500  0.49665300  0.90884600  1
  H  598  1  0.90628600  0.16144000  0.15070700  1
  H  599  1  0.93567700  0.13382600  0.12291600  1
  H  606  1  0.40633800  0.86989300  0.31147000  1
  H  607  1  0.43572400  0.89748800  0.33926700  1
  H  614  1  0.65415000  0.43859900  0.58945200  1
  H  615  1  0.68375600  0.41109600  0.61727400  1
  H  622  1  0.15412400  0.59280200  0.87268600  1
  H  623  1  0.18372800  0.62032800  0.84487900  1
  H  630  1  0.59025600  0.16145700  0.31185500  1
  H  631  1  0.56083900  0.13380000  0.33958200  1
  H  638  1  0.09031600  0.86989000  0.15027800  1
  H  639  1  0.06086500  0.89751400  0.12255000  1
  H  646  1  0.84167300  0.43847400  0.87281700  1
  H  647  1  0.81208500  0.41100000  0.84496800  1
  H  654  1  0.34167600  0.59291200  0.58937400  1
  H  655  1  0.31207900  0.62039500  0.61722700  1
  H  662  1  0.09268000  0.88722200  0.79969300  1
  H  663  1  0.06456100  0.91446900  0.82847600  1
  H  670  1  0.59272400  0.14423400  0.66239900  1
  H  671  1  0.56461600  0.11698300  0.63362900  1
  H  678  1  0.34065800  0.59711900  0.37702600  1
  H  679  1  0.31116500  0.62486300  0.34941300  1
  H  686  1  0.84065900  0.43433500  0.08514700  1
  H  687  1  0.81115400  0.40657000  0.11273800  1
  H  694  1  0.40318600  0.88718200  0.66247200  1
  H  695  1  0.43136000  0.91433400  0.63362900  1
  H  702  1  0.90316800  0.14423700  0.79972300  1
  H  703  1  0.93132600  0.11708900  0.82856700  1
  H  710  1  0.15560800  0.59723800  0.08462400  1
  H  711  1  0.18516900  0.62501100  0.11213700  1
  H  718  1  0.65555400  0.43422900  0.37741400  1
  H  719  1  0.68511300  0.40645000  0.34988300  1
  H  769  1  0.70479100  0.11563900  0.87185200  1
  H  770  1  0.73075900  0.08939900  0.90335000  1
  H  771  1  0.62401500  0.07302500  0.88575500  1
  H  772  1  0.65026300  0.04664000  0.91720500  1
  H  773  1  0.67054600  0.08866900  0.95671300  1
  H  774  1  0.67064500  0.08857900  0.00617300  1
  H  775  1  0.72720500  0.03021800  0.98125800  1
  H  776  1  0.76906000  0.00150000  0.98120500  1
  H  777  1  0.72743000  0.03335000  0.88133000  1
  H  778  1  0.76852400  0.99845600  0.88128900  1
  H  779  1  0.84576400  0.98501700  0.91701200  1
  H  780  1  0.87194200  0.95858900  0.88555500  1
  H  781  1  0.76517600  0.94237000  0.90324300  1
  H  782  1  0.79107500  0.91608500  0.87174000  1
  H  783  1  0.82542600  0.94291600  0.95647400  1
  H  784  1  0.82544700  0.94293600  0.00593000  1
  H  785  1  0.72808000  0.03366300  0.08124500  1
  H  786  1  0.76835800  0.99788100  0.08118900  1
  H  787  1  0.76924700  0.93507400  0.04940100  1
  H  788  1  0.79498600  0.90782100  0.08000100  1
  H  789  1  0.83982700  0.99075400  0.05455900  1
  H  790  1  0.86550600  0.96379700  0.08580500  1
  H  791  1  0.72716000  0.09642500  0.04961200  1
  H  792  1  0.70149800  0.12363900  0.08029700  1
  H  793  1  0.63084500  0.06777300  0.08600400  1
  H  794  1  0.65645200  0.04085400  0.05468000  1
  H  843  1  0.20487400  0.91577100  0.59033500  1
  H  844  1  0.23084100  0.94202100  0.55884200  1
  H  845  1  0.12406800  0.95834900  0.57641800  1
  H  846  1  0.15031900  0.98474600  0.54497400  1
  H  847  1  0.17077000  0.94261200  0.50550600  1
  H  848  1  0.17087400  0.94266000  0.45604900  1
  H  849  1  0.22717300  0.00121800  0.48090200  1
  H  850  1  0.26915200  0.02983000  0.48095200  1
  H  851  1  0.22748400  0.99806500  0.58083600  1
  H  852  1  0.26858800  0.03295700  0.58087500  1
  H  853  1  0.34585300  0.04639700  0.54509400  1
  H  854  1  0.37202700  0.07284500  0.57652300  1
  H  855  1  0.26524000  0.08901000  0.55891900  1
  H  856  1  0.29113200  0.11531500  0.59039300  1
  H  857  1  0.32546800  0.08845800  0.50562300  1
  H  858  1  0.32552500  0.08837800  0.45616800  1
  H  859  1  0.22816800  0.99763400  0.38092200  1
  H  860  1  0.26845900  0.03339900  0.38096000  1
  H  861  1  0.26926800  0.09618400  0.41273800  1
  H  862  1  0.29496200  0.12346400  0.38212900  1
  H  863  1  0.33994200  0.04057700  0.40755700  1
  H  864  1  0.36557500  0.06756000  0.37630000  1
  H  865  1  0.22724800  0.93490800  0.41251700  1
  H  866  1  0.20158500  0.90770200  0.38184200  1
  H  867  1  0.13087500  0.96353400  0.37624700  1
  H  868  1  0.15648300  0.99044500  0.40756200  1
  H  917  1  0.44294200  0.15714300  0.63283300  1
  H  918  1  0.47374800  0.18710900  0.65663000  1
  H  919  1  0.36898400  0.17470100  0.68289300  1
  H  920  1  0.40010300  0.20382300  0.70671200  1
  H  921  1  0.41925900  0.24145100  0.65932700  1
  H  922  1  0.41994300  0.29093000  0.65877600  1
  H  923  1  0.47726800  0.26620200  0.71663800  1
  H  924  1  0.51856100  0.26620000  0.74549100  1
  H  925  1  0.47689100  0.16614400  0.71396900  1
  H  926  1  0.51894500  0.16613600  0.74812500  1
  H  927  1  0.59575800  0.20382400  0.75538900  1
  H  928  1  0.62690900  0.17476100  0.77926000  1
  H  929  1  0.52209500  0.18706700  0.80543700  1
  H  930  1  0.55292900  0.15714600  0.82927900  1
  H  931  1  0.57657900  0.24139800  0.80278300  1
  H  932  1  0.57590200  0.29087500  0.80335600  1
  H  933  1  0.47775700  0.36620700  0.71320700  1
  H  934  1  0.51807700  0.36619900  0.74895400  1
  H  935  1  0.51726100  0.33791000  0.80959000  1
  H  936  1  0.54340000  0.36843300  0.83670100  1
  H  937  1  0.59206900  0.33595900  0.75792800  1
  H  938  1  0.61828000  0.36694300  0.78479800  1
  H  939  1  0.47855300  0.33793800  0.65254700  1
  H  940  1  0.45240100  0.36850100  0.62547600  1
  H  941  1  0.37758200  0.36702000  0.67744900  1
  H  942  1  0.40380800  0.33599500  0.70427600  1
  H  991  1  0.94286610  0.87425400  0.82929800  1
  H  992  1  0.97368310  0.84427900  0.80550700  1
  H  993  1  0.86896000  0.85676900  0.77918300  1
  H  994  1  0.90009410  0.82763800  0.75537100  1
  H  995  1  0.91913510  0.78999100  0.80275700  1
  H  996  1  0.91981310  0.74051200  0.80332600  1
  H  997  1  0.97729510  0.76521100  0.74554600  1
  H  998  1  0.01860400  0.76520500  0.71670200  1
  H  999  1  0.97688410  0.86526800  0.74816200  1
  H  1000  1  0.01897400  0.86526500  0.71402600  1
  H  1001  1  0.09582600  0.82747600  0.70670600  1
  H  1002  1  0.12698600  0.85653400  0.68283000  1
  H  1003  1  0.02213100  0.84437300  0.65676300  1
  H  1004  1  0.05297100  0.87430100  0.63293000  1
  H  1005  1  0.07659100  0.78997500  0.65935100  1
  H  1006  1  0.07590400  0.74049600  0.65879200  1
  H  1007  1  0.97775610  0.66520700  0.74899500  1
  H  1008  1  0.01811300  0.66520300  0.71326000  1
  H  1009  1  0.01729900  0.69353000  0.65258300  1
  H  1010  1  0.04343200  0.66298800  0.62547800  1
  H  1011  1  0.09205000  0.69539600  0.70427800  1
  H  1012  1  0.11825800  0.66438600  0.67741700  1
  H  1013  1  0.97848410  0.69351400  0.80962700  1
  H  1014  1  0.95233710  0.66294100  0.83669500  1
  H  1015  1  0.87756300  0.66437600  0.78470100  1
  H  1016  1  0.90378210  0.69541100  0.75787600  1
  H  1065  1  0.05615300  0.86876600  0.33360100  1
  H  1066  1  0.02483400  0.83964400  0.30891100  1
  H  1067  1  0.12447500  0.86294500  0.27561600  1
  H  1068  1  0.09333200  0.83348700  0.25142700  1
  H  1069  1  0.07938200  0.79055600  0.30065700  1
  H  1070  1  0.07851300  0.74105200  0.30135100  1
  H  1071  1  0.01752200  0.76586100  0.24641700  1
  H  1072  1  0.97911810  0.76587800  0.21518800  1
  H  1073  1  0.01929500  0.86589900  0.24805500  1
  H  1074  1  0.97738810  0.86592500  0.21365400  1
  H  1075  1  0.90335310  0.83342800  0.21024400  1
  H  1076  1  0.87215800  0.86292300  0.18613800  1
  H  1077  1  0.97185410  0.83985800  0.15278800  1
  H  1078  1  0.94048210  0.86902100  0.12818100  1
  H  1079  1  0.91732610  0.79068300  0.16093100  1
  H  1080  1  0.91811510  0.74117600  0.16022300  1
  H  1081  1  0.01824200  0.66584300  0.24881200  1
  H  1082  1  0.97822210  0.66586700  0.21280800  1
  H  1083  1  0.97661810  0.69826000  0.14968800  1
  H  1084  1  0.95073210  0.66775900  0.12242900  1
  H  1085  1  0.90696910  0.69202700  0.20612800  1
  H  1086  1  0.88111800  0.66092400  0.17912400  1
  H  1087  1  0.01977200  0.69815800  0.31182200  1
  H  1088  1  0.04557800  0.66765200  0.33914200  1
  H  1089  1  0.11543300  0.66090400  0.28265200  1
  H  1090  1  0.08965500  0.69201100  0.25558500  1
  H  1139  1  0.55613300  0.16261400  0.12855100  1
  H  1140  1  0.52480800  0.19176100  0.15321800  1
  H  1141  1  0.62439400  0.16839400  0.18656900  1
  H  1142  1  0.59324200  0.19788300  0.21073500  1
  H  1143  1  0.57929700  0.24081200  0.16142000  1
  H  1144  1  0.57843700  0.29031600  0.16070900  1
  H  1145  1  0.51749100  0.26554400  0.21571900  1
  H  1146  1  0.47898700  0.26553200  0.24687300  1
  H  1147  1  0.51924300  0.16550300  0.21409400  1
  H  1148  1  0.47730500  0.16549000  0.24848200  1
  H  1149  1  0.40326500  0.19795900  0.25186900  1
  H  1150  1  0.37209800  0.16844100  0.27598400  1
  H  1151  1  0.47174300  0.19160200  0.30932500  1
  H  1152  1  0.44040100  0.16242200  0.33394300  1
  H  1153  1  0.41722900  0.24075800  0.30119400  1
  H  1154  1  0.41800900  0.29026600  0.30187400  1
  H  1155  1  0.51819300  0.36555700  0.21327200  1
  H  1156  1  0.47814100  0.36554600  0.24926600  1
  H  1157  1  0.47652100  0.33314900  0.31235500  1
  H  1158  1  0.45065600  0.36367300  0.33961900  1
  H  1159  1  0.40687200  0.33941300  0.25594100  1
  H  1160  1  0.38104100  0.37054200  0.28294800  1
  H  1161  1  0.51975400  0.33325000  0.15027000  1
  H  1162  1  0.54556900  0.36377900  0.12297300  1
  H  1163  1  0.61538200  0.37048900  0.17947500  1
  H  1164  1  0.58959900  0.33936000  0.20651800  1
  H  1213  1  0.19064800  0.61916800  0.37798700  1
  H  1214  1  0.22197900  0.59446100  0.40711800  1
  H  1215  1  0.12254300  0.56098200  0.38347400  1
  H  1216  1  0.15371500  0.53673800  0.41289200  1
  H  1217  1  0.16623800  0.58498100  0.45598800  1
  H  1218  1  0.16632400  0.58509600  0.50546200  1
  H  1219  1  0.23013200  0.53251300  0.48075400  1
  H  1220  1  0.26583600  0.49898900  0.48078300  1
  H  1221  1  0.22748600  0.53327300  0.38071400  1
  H  1222  1  0.26870200  0.49823300  0.38074400  1
  H  1223  1  0.34243900  0.49470700  0.41308100  1
  H  1224  1  0.37369800  0.47042500  0.38375800  1
  H  1225  1  0.27409300  0.43708100  0.40711000  1
  H  1226  1  0.30550100  0.41233600  0.37807700  1
  H  1227  1  0.32975700  0.44649800  0.45610200  1
  H  1228  1  0.32957300  0.44638500  0.50557500  1
  H  1229  1  0.22758600  0.53353200  0.58079400  1
  H  1230  1  0.26817000  0.49796700  0.58082300  1
  H  1231  1  0.27638400  0.43383700  0.54978600  1
  H  1232  1  0.30749200  0.40928400  0.57921600  1
  H  1233  1  0.33831000  0.49680100  0.55346900  1
  H  1234  1  0.36911600  0.47271000  0.58331400  1
  H  1235  1  0.21947700  0.59764400  0.54974400  1
  H  1236  1  0.18835000  0.62218900  0.57917300  1
  H  1237  1  0.12666800  0.55879400  0.58319100  1
  H  1238  1  0.15749400  0.53471400  0.55334800  1
  H  1287  1  0.69064200  0.41226000  0.08416000  1
  H  1288  1  0.72197800  0.43697600  0.05503900  1
  H  1289  1  0.62254900  0.47047800  0.07874200  1
  H  1290  1  0.65372800  0.49473200  0.04933100  1
  H  1291  1  0.66623100  0.44646400  0.00624000  1
  H  1292  1  0.66632100  0.44630700  0.95676600  1
  H  1293  1  0.73013000  0.49889500  0.98141200  1
  H  1294  1  0.76587100  0.53238100  0.98137200  1
  H  1295  1  0.72750300  0.49817500  0.08145800  1
  H  1296  1  0.76874000  0.53318700  0.08140500  1
  H  1297  1  0.84253400  0.53676200  0.04896100  1
  H  1298  1  0.87378800  0.56105000  0.07826200  1
  H  1299  1  0.77410100  0.59431100  0.05507300  1
  H  1300  1  0.80550700  0.61906300  0.08408800  1
  H  1301  1  0.82974000  0.58492500  0.00598800  1
  H  1302  1  0.82952200  0.58502900  0.95651800  1
  H  1303  1  0.72760100  0.49780800  0.88137900  1
  H  1304  1  0.76817200  0.53337500  0.88132500  1
  H  1305  1  0.77633800  0.59753100  0.91234500  1
  H  1306  1  0.80744400  0.62208700  0.88291300  1
  H  1307  1  0.83830200  0.53458400  0.90866800  1
  H  1308  1  0.86911000  0.55867600  0.87881800  1
  H  1309  1  0.71946900  0.43371700  0.91244400  1
  H  1310  1  0.68835000  0.40917200  0.88302400  1
  H  1311  1  0.62666400  0.47257200  0.87901500  1
  H  1312  1  0.65748300  0.49665300  0.90884600  1
  H  1318  1  0.65627400  0.16144000  0.15070700  1
  H  1319  1  0.68566500  0.13382600  0.12291600  1
  H  1326  1  0.15632600  0.86989300  0.31147000  1
  H  1327  1  0.18571200  0.89748800  0.33926700  1
  H  1334  1  0.40413800  0.43859900  0.58945200  1
  H  1335  1  0.43374400  0.41109600  0.61727400  1
  H  1342  1  0.90411210  0.59280200  0.87268600  1
  H  1343  1  0.93371610  0.62032800  0.84487900  1
  H  1350  1  0.34024400  0.16145700  0.31185500  1
  H  1351  1  0.31082700  0.13380000  0.33958200  1
  H  1358  1  0.84030400  0.86989000  0.15027800  1
  H  1359  1  0.81085300  0.89751400  0.12255000  1
  H  1366  1  0.59166100  0.43847400  0.87281700  1
  H  1367  1  0.56207300  0.41100000  0.84496800  1
  H  1374  1  0.09166400  0.59291200  0.58937400  1
  H  1375  1  0.06206700  0.62039500  0.61722700  1
  H  1382  1  0.84266800  0.88722200  0.79969300  1
  H  1383  1  0.81454900  0.91446900  0.82847600  1
  H  1390  1  0.34271200  0.14423400  0.66239900  1
  H  1391  1  0.31460400  0.11698300  0.63362900  1
  H  1398  1  0.09064600  0.59711900  0.37702600  1
  H  1399  1  0.06115300  0.62486300  0.34941300  1
  H  1406  1  0.59064700  0.43433500  0.08514700  1
  H  1407  1  0.56114200  0.40657000  0.11273800  1
  H  1414  1  0.15317400  0.88718200  0.66247200  1
  H  1415  1  0.18134800  0.91433400  0.63362900  1
  H  1422  1  0.65315600  0.14423700  0.79972300  1
  H  1423  1  0.68131400  0.11708900  0.82856700  1
  H  1430  1  0.90559610  0.59723800  0.08462400  1
  H  1431  1  0.93515710  0.62501100  0.11213700  1
  H  1438  1  0.40554200  0.43422900  0.37741400  1
  H  1439  1  0.43510100  0.40645000  0.34988300  1
  H  1489  1  0.45477900  0.11563900  0.87185200  1
  H  1490  1  0.48074700  0.08939900  0.90335000  1
  H  1491  1  0.37400300  0.07302500  0.88575500  1
  H  1492  1  0.40025100  0.04664000  0.91720500  1
  H  1493  1  0.42053400  0.08866900  0.95671300  1
  H  1494  1  0.42063300  0.08857900  0.00617300  1
  H  1495  1  0.47719300  0.03021800  0.98125800  1
  H  1496  1  0.51904800  0.00150000  0.98120500  1
  H  1497  1  0.47741800  0.03335000  0.88133000  1
  H  1498  1  0.51851200  0.99845600  0.88128900  1
  H  1499  1  0.59575200  0.98501700  0.91701200  1
  H  1500  1  0.62193000  0.95858900  0.88555500  1
  H  1501  1  0.51516400  0.94237000  0.90324300  1
  H  1502  1  0.54106300  0.91608500  0.87174000  1
  H  1503  1  0.57541400  0.94291600  0.95647400  1
  H  1504  1  0.57543500  0.94293600  0.00593000  1
  H  1505  1  0.47806800  0.03366300  0.08124500  1
  H  1506  1  0.51834600  0.99788100  0.08118900  1
  H  1507  1  0.51923500  0.93507400  0.04940100  1
  H  1508  1  0.54497400  0.90782100  0.08000100  1
  H  1509  1  0.58981500  0.99075400  0.05455900  1
  H  1510  1  0.61549400  0.96379700  0.08580500  1
  H  1511  1  0.47714800  0.09642500  0.04961200  1
  H  1512  1  0.45148600  0.12363900  0.08029700  1
  H  1513  1  0.38083300  0.06777300  0.08600400  1
  H  1514  1  0.40644000  0.04085400  0.05468000  1
  H  1563  1  0.95486210  0.91577100  0.59033500  1
  H  1564  1  0.98082910  0.94202100  0.55884200  1
  H  1565  1  0.87405600  0.95834900  0.57641800  1
  H  1566  1  0.90030710  0.98474600  0.54497400  1
  H  1567  1  0.92075810  0.94261200  0.50550600  1
  H  1568  1  0.92086210  0.94266000  0.45604900  1
  H  1569  1  0.97716110  0.00121800  0.48090200  1
  H  1570  1  0.01914000  0.02983000  0.48095200  1
  H  1571  1  0.97747210  0.99806500  0.58083600  1
  H  1572  1  0.01857600  0.03295700  0.58087500  1
  H  1573  1  0.09584100  0.04639700  0.54509400  1
  H  1574  1  0.12201500  0.07284500  0.57652300  1
  H  1575  1  0.01522800  0.08901000  0.55891900  1
  H  1576  1  0.04112000  0.11531500  0.59039300  1
  H  1577  1  0.07545600  0.08845800  0.50562300  1
  H  1578  1  0.07551300  0.08837800  0.45616800  1
  H  1579  1  0.97815610  0.99763400  0.38092200  1
  H  1580  1  0.01844700  0.03339900  0.38096000  1
  H  1581  1  0.01925600  0.09618400  0.41273800  1
  H  1582  1  0.04495000  0.12346400  0.38212900  1
  H  1583  1  0.08993000  0.04057700  0.40755700  1
  H  1584  1  0.11556300  0.06756000  0.37630000  1
  H  1585  1  0.97723610  0.93490800  0.41251700  1
  H  1586  1  0.95157310  0.90770200  0.38184200  1
  H  1587  1  0.88086300  0.96353400  0.37624700  1
  H  1588  1  0.90647110  0.99044500  0.40756200  1
  H  1637  1  0.19293000  0.15714300  0.63283300  1
  H  1638  1  0.22373600  0.18710900  0.65663000  1
  H  1639  1  0.11897200  0.17470100  0.68289300  1
  H  1640  1  0.15009100  0.20382300  0.70671200  1
  H  1641  1  0.16924700  0.24145100  0.65932700  1
  H  1642  1  0.16993100  0.29093000  0.65877600  1
  H  1643  1  0.22725600  0.26620200  0.71663800  1
  H  1644  1  0.26854900  0.26620000  0.74549100  1
  H  1645  1  0.22687900  0.16614400  0.71396900  1
  H  1646  1  0.26893300  0.16613600  0.74812500  1
  H  1647  1  0.34574600  0.20382400  0.75538900  1
  H  1648  1  0.37689700  0.17476100  0.77926000  1
  H  1649  1  0.27208300  0.18706700  0.80543700  1
  H  1650  1  0.30291700  0.15714600  0.82927900  1
  H  1651  1  0.32656700  0.24139800  0.80278300  1
  H  1652  1  0.32589000  0.29087500  0.80335600  1
  H  1653  1  0.22774500  0.36620700  0.71320700  1
  H  1654  1  0.26806500  0.36619900  0.74895400  1
  H  1655  1  0.26724900  0.33791000  0.80959000  1
  H  1656  1  0.29338800  0.36843300  0.83670100  1
  H  1657  1  0.34205700  0.33595900  0.75792800  1
  H  1658  1  0.36826800  0.36694300  0.78479800  1
  H  1659  1  0.22854100  0.33793800  0.65254700  1
  H  1660  1  0.20238900  0.36850100  0.62547600  1
  H  1661  1  0.12757000  0.36702000  0.67744900  1
  H  1662  1  0.15379600  0.33599500  0.70427600  1
  H  1711  1  0.69285400  0.87425400  0.82929800  1
  H  1712  1  0.72367100  0.84427900  0.80550700  1
  H  1713  1  0.61894800  0.85676900  0.77918300  1
  H  1714  1  0.65008200  0.82763800  0.75537100  1
  H  1715  1  0.66912300  0.78999100  0.80275700  1
  H  1716  1  0.66980100  0.74051200  0.80332600  1
  H  1717  1  0.72728300  0.76521100  0.74554600  1
  H  1718  1  0.76859200  0.76520500  0.71670200  1
  H  1719  1  0.72687200  0.86526800  0.74816200  1
  H  1720  1  0.76896200  0.86526500  0.71402600  1
  H  1721  1  0.84581400  0.82747600  0.70670600  1
  H  1722  1  0.87697400  0.85653400  0.68283000  1
  H  1723  1  0.77211900  0.84437300  0.65676300  1
  H  1724  1  0.80295900  0.87430100  0.63293000  1
  H  1725  1  0.82657900  0.78997500  0.65935100  1
  H  1726  1  0.82589200  0.74049600  0.65879200  1
  H  1727  1  0.72774400  0.66520700  0.74899500  1
  H  1728  1  0.76810100  0.66520300  0.71326000  1
  H  1729  1  0.76728700  0.69353000  0.65258300  1
  H  1730  1  0.79342000  0.66298800  0.62547800  1
  H  1731  1  0.84203800  0.69539600  0.70427800  1
  H  1732  1  0.86824600  0.66438600  0.67741700  1
  H  1733  1  0.72847200  0.69351400  0.80962700  1
  H  1734  1  0.70232500  0.66294100  0.83669500  1
  H  1735  1  0.62755100  0.66437600  0.78470100  1
  H  1736  1  0.65377000  0.69541100  0.75787600  1
  H  1785  1  0.80614100  0.86876600  0.33360100  1
  H  1786  1  0.77482200  0.83964400  0.30891100  1
  H  1787  1  0.87446300  0.86294500  0.27561600  1
  H  1788  1  0.84332000  0.83348700  0.25142700  1
  H  1789  1  0.82937000  0.79055600  0.30065700  1
  H  1790  1  0.82850100  0.74105200  0.30135100  1
  H  1791  1  0.76751000  0.76586100  0.24641700  1
  H  1792  1  0.72910600  0.76587800  0.21518800  1
  H  1793  1  0.76928300  0.86589900  0.24805500  1
  H  1794  1  0.72737600  0.86592500  0.21365400  1
  H  1795  1  0.65334100  0.83342800  0.21024400  1
  H  1796  1  0.62214600  0.86292300  0.18613800  1
  H  1797  1  0.72184200  0.83985800  0.15278800  1
  H  1798  1  0.69047000  0.86902100  0.12818100  1
  H  1799  1  0.66731400  0.79068300  0.16093100  1
  H  1800  1  0.66810300  0.74117600  0.16022300  1
  H  1801  1  0.76823000  0.66584300  0.24881200  1
  H  1802  1  0.72821000  0.66586700  0.21280800  1
  H  1803  1  0.72660600  0.69826000  0.14968800  1
  H  1804  1  0.70072000  0.66775900  0.12242900  1
  H  1805  1  0.65695700  0.69202700  0.20612800  1
  H  1806  1  0.63110600  0.66092400  0.17912400  1
  H  1807  1  0.76976000  0.69815800  0.31182200  1
  H  1808  1  0.79556600  0.66765200  0.33914200  1
  H  1809  1  0.86542100  0.66090400  0.28265200  1
  H  1810  1  0.83964300  0.69201100  0.25558500  1
  H  1859  1  0.30612100  0.16261400  0.12855100  1
  H  1860  1  0.27479600  0.19176100  0.15321800  1
  H  1861  1  0.37438200  0.16839400  0.18656900  1
  H  1862  1  0.34323000  0.19788300  0.21073500  1
  H  1863  1  0.32928500  0.24081200  0.16142000  1
  H  1864  1  0.32842500  0.29031600  0.16070900  1
  H  1865  1  0.26747900  0.26554400  0.21571900  1
  H  1866  1  0.22897500  0.26553200  0.24687300  1
  H  1867  1  0.26923100  0.16550300  0.21409400  1
  H  1868  1  0.22729300  0.16549000  0.24848200  1
  H  1869  1  0.15325300  0.19795900  0.25186900  1
  H  1870  1  0.12208600  0.16844100  0.27598400  1
  H  1871  1  0.22173100  0.19160200  0.30932500  1
  H  1872  1  0.19038900  0.16242200  0.33394300  1
  H  1873  1  0.16721700  0.24075800  0.30119400  1
  H  1874  1  0.16799700  0.29026600  0.30187400  1
  H  1875  1  0.26818100  0.36555700  0.21327200  1
  H  1876  1  0.22812900  0.36554600  0.24926600  1
  H  1877  1  0.22650900  0.33314900  0.31235500  1
  H  1878  1  0.20064400  0.36367300  0.33961900  1
  H  1879  1  0.15686000  0.33941300  0.25594100  1
  H  1880  1  0.13102900  0.37054200  0.28294800  1
  H  1881  1  0.26974200  0.33325000  0.15027000  1
  H  1882  1  0.29555700  0.36377900  0.12297300  1
  H  1883  1  0.36537000  0.37048900  0.17947500  1
  H  1884  1  0.33958700  0.33936000  0.20651800  1
  H  1933  1  0.94063610  0.61916800  0.37798700  1
  H  1934  1  0.97196710  0.59446100  0.40711800  1
  H  1935  1  0.87253100  0.56098200  0.38347400  1
  H  1936  1  0.90370310  0.53673800  0.41289200  1
  H  1937  1  0.91622610  0.58498100  0.45598800  1
  H  1938  1  0.91631210  0.58509600  0.50546200  1
  H  1939  1  0.98012010  0.53251300  0.48075400  1
  H  1940  1  0.01582400  0.49898900  0.48078300  1
  H  1941  1  0.97747410  0.53327300  0.38071400  1
  H  1942  1  0.01869000  0.49823300  0.38074400  1
  H  1943  1  0.09242700  0.49470700  0.41308100  1
  H  1944  1  0.12368600  0.47042500  0.38375800  1
  H  1945  1  0.02408100  0.43708100  0.40711000  1
  H  1946  1  0.05548900  0.41233600  0.37807700  1
  H  1947  1  0.07974500  0.44649800  0.45610200  1
  H  1948  1  0.07956100  0.44638500  0.50557500  1
  H  1949  1  0.97757410  0.53353200  0.58079400  1
  H  1950  1  0.01815800  0.49796700  0.58082300  1
  H  1951  1  0.02637200  0.43383700  0.54978600  1
  H  1952  1  0.05748000  0.40928400  0.57921600  1
  H  1953  1  0.08829800  0.49680100  0.55346900  1
  H  1954  1  0.11910400  0.47271000  0.58331400  1
  H  1955  1  0.96946510  0.59764400  0.54974400  1
  H  1956  1  0.93833810  0.62218900  0.57917300  1
  H  1957  1  0.87665600  0.55879400  0.58319100  1
  H  1958  1  0.90748210  0.53471400  0.55334800  1
  H  2007  1  0.44063000  0.41226000  0.08416000  1
  H  2008  1  0.47196600  0.43697600  0.05503900  1
  H  2009  1  0.37253700  0.47047800  0.07874200  1
  H  2010  1  0.40371600  0.49473200  0.04933100  1
  H  2011  1  0.41621900  0.44646400  0.00624000  1
  H  2012  1  0.41630900  0.44630700  0.95676600  1
  H  2013  1  0.48011800  0.49889500  0.98141200  1
  H  2014  1  0.51585900  0.53238100  0.98137200  1
  H  2015  1  0.47749100  0.49817500  0.08145800  1
  H  2016  1  0.51872800  0.53318700  0.08140500  1
  H  2017  1  0.59252200  0.53676200  0.04896100  1
  H  2018  1  0.62377600  0.56105000  0.07826200  1
  H  2019  1  0.52408900  0.59431100  0.05507300  1
  H  2020  1  0.55549500  0.61906300  0.08408800  1
  H  2021  1  0.57972800  0.58492500  0.00598800  1
  H  2022  1  0.57951000  0.58502900  0.95651800  1
  H  2023  1  0.47758900  0.49780800  0.88137900  1
  H  2024  1  0.51816000  0.53337500  0.88132500  1
  H  2025  1  0.52632600  0.59753100  0.91234500  1
  H  2026  1  0.55743200  0.62208700  0.88291300  1
  H  2027  1  0.58829000  0.53458400  0.90866800  1
  H  2028  1  0.61909800  0.55867600  0.87881800  1
  H  2029  1  0.46945700  0.43371700  0.91244400  1
  H  2030  1  0.43833800  0.40917200  0.88302400  1
  H  2031  1  0.37665200  0.47257200  0.87901500  1
  H  2032  1  0.40747100  0.49665300  0.90884600  1
  H  2038  1  0.40626200  0.16144000  0.15070700  1
  H  2039  1  0.43565300  0.13382600  0.12291600  1
  H  2046  1  0.90631410  0.86989300  0.31147000  1
  H  2047  1  0.93570010  0.89748800  0.33926700  1
  H  2054  1  0.15412600  0.43859900  0.58945200  1
  H  2055  1  0.18373200  0.41109600  0.61727400  1
  H  2062  1  0.65410000  0.59280200  0.87268600  1
  H  2063  1  0.68370400  0.62032800  0.84487900  1
  H  2070  1  0.09023200  0.16145700  0.31185500  1
  H  2071  1  0.06081500  0.13380000  0.33958200  1
  H  2078  1  0.59029200  0.86989000  0.15027800  1
  H  2079  1  0.56084100  0.89751400  0.12255000  1
  H  2086  1  0.34164900  0.43847400  0.87281700  1
  H  2087  1  0.31206100  0.41100000  0.84496800  1
  H  2094  1  0.84165200  0.59291200  0.58937400  1
  H  2095  1  0.81205500  0.62039500  0.61722700  1
  H  2102  1  0.59265600  0.88722200  0.79969300  1
  H  2103  1  0.56453700  0.91446900  0.82847600  1
  H  2110  1  0.09270000  0.14423400  0.66239900  1
  H  2111  1  0.06459200  0.11698300  0.63362900  1
  H  2118  1  0.84063400  0.59711900  0.37702600  1
  H  2119  1  0.81114100  0.62486300  0.34941300  1
  H  2126  1  0.34063500  0.43433500  0.08514700  1
  H  2127  1  0.31113000  0.40657000  0.11273800  1
  H  2134  1  0.90316210  0.88718200  0.66247200  1
  H  2135  1  0.93133610  0.91433400  0.63362900  1
  H  2142  1  0.40314400  0.14423700  0.79972300  1
  H  2143  1  0.43130200  0.11708900  0.82856700  1
  H  2150  1  0.65558400  0.59723800  0.08462400  1
  H  2151  1  0.68514500  0.62501100  0.11213700  1
  H  2158  1  0.15553000  0.43422900  0.37741400  1
  H  2159  1  0.18508900  0.40645000  0.34988300  1
  C  1  1  0.93277800  0.07583200  0.96788900  1
  C  2  1  0.93287700  0.07583200  0.99488600  1
  C  3  1  0.95266400  0.05619900  0.00341100  1
  C  5  1  0.95232300  0.05607200  0.95921300  1
  C  6  1  0.95855300  0.05031500  0.93246400  1
  C  7  1  0.98002800  0.03141400  0.92381500  1
  C  9  1  0.01602200  0.00031000  0.92376400  1
  C  10  1  0.00917200  0.00639600  0.89776500  1
  C  11  1  0.98682900  0.02536500  0.89780000  1
  C  12  1  0.03752100  0.98140100  0.93235000  1
  C  13  1  0.04379600  0.97559500  0.95907900  1
  C  15  1  0.04356700  0.97540800  0.00327600  1
  C  16  1  0.06331300  0.95577000  0.99468600  1
  C  17  1  0.06330200  0.95577600  0.96769100  1
  C  18  1  0.03712100  0.98103300  0.02999800  1
  C  19  1  0.01594900  0.00010000  0.03872800  1
  C  21  1  0.98039900  0.03148000  0.03877900  1
  C  22  1  0.98729800  0.02549200  0.06478600  1
  C  23  1  0.00912200  0.00606900  0.06475400  1
  C  24  1  0.95919700  0.05055000  0.03011100  1
  C  25  1  0.94440900  0.06595800  0.04959100  1
  C  26  1  0.91627500  0.05813300  0.06031700  1
  C  27  1  0.90117500  0.07415000  0.07861500  1
  C  28  1  0.91372700  0.09834800  0.08688400  1
  C  29  1  0.94195900  0.10594900  0.07582900  1
  C  30  1  0.95708000  0.09006200  0.05749400  1
  C  31  1  0.05195300  0.96559600  0.04943000  1
  C  32  1  0.03933900  0.94145000  0.05728700  1
  C  33  1  0.05452600  0.92552400  0.07554600  1
  C  34  1  0.08273200  0.93315300  0.08661600  1
  C  35  1  0.09521400  0.95740200  0.07841100  1
  C  36  1  0.08007300  0.97343900  0.06015800  1
  C  37  1  0.05292800  0.96640500  0.91281200  1
  C  38  1  0.08402300  0.97066500  0.90735200  1
  C  39  1  0.09942100  0.95495100  0.88898100  1
  C  40  1  0.08408400  0.93492000  0.87509200  1
  C  41  1  0.05288500  0.93085600  0.88066400  1
  C  42  1  0.03758900  0.94619300  0.89936200  1
  C  43  1  0.94308000  0.06531800  0.91296800  1
  C  44  1  0.95837300  0.08554700  0.89949300  1
  C  45  1  0.91198800  0.06101600  0.90754000  1
  C  46  1  0.89655100  0.07670300  0.88917100  1
  C  47  1  0.91184500  0.09674300  0.87524900  1
  C  48  1  0.94304300  0.10084500  0.88078600  1
  C  75  1  0.43286000  0.95553800  0.49431700  1
  C  76  1  0.43295800  0.95551900  0.46732000  1
  C  77  1  0.45272200  0.97515800  0.45877300  1
  C  79  1  0.45237000  0.97532900  0.50297200  1
  C  80  1  0.45861600  0.98108800  0.52971500  1
  C  81  1  0.48009400  0.99998600  0.53835100  1
  C  83  1  0.51609300  0.03107900  0.53838800  1
  C  84  1  0.50923400  0.02500300  0.56438400  1
  C  85  1  0.48689900  0.00603400  0.56436200  1
  C  86  1  0.53759000  0.04998600  0.52979200  1
  C  87  1  0.54389500  0.05574500  0.50305600  1
  C  89  1  0.54367200  0.05589400  0.45885700  1
  C  90  1  0.56339100  0.07555100  0.46742600  1
  C  91  1  0.56342700  0.07553300  0.49442200  1
  C  92  1  0.53722800  0.05024700  0.43214100  1
  C  93  1  0.51604300  0.03119300  0.42342300  1
  C  95  1  0.48048700  0.99982200  0.42338800  1
  C  96  1  0.48738300  0.00580600  0.39737800  1
  C  97  1  0.50922500  0.02521600  0.39740000  1
  C  98  1  0.45926800  0.98077200  0.43206700  1
  C  99  1  0.44447200  0.96536000  0.41259600  1
  C  100  1  0.41631800  0.97317300  0.40190500  1
  C  101  1  0.40121500  0.95716000  0.38361100  1
  C  102  1  0.41377700  0.93297100  0.37531600  1
  C  103  1  0.44201900  0.92537400  0.38634800  1
  C  104  1  0.45716300  0.94127200  0.40465100  1
  C  105  1  0.55202700  0.06569600  0.41270000  1
  C  106  1  0.53937400  0.08983200  0.40485100  1
  C  107  1  0.55453100  0.10577100  0.38658300  1
  C  108  1  0.58274900  0.09816800  0.37549800  1
  C  109  1  0.59527600  0.07393700  0.38370700  1
  C  110  1  0.58016200  0.05788400  0.40196400  1
  C  111  1  0.55300400  0.06498800  0.54932200  1
  C  112  1  0.58410800  0.06074800  0.55475900  1
  C  113  1  0.59949700  0.07646400  0.57312500  1
  C  114  1  0.58415800  0.09649600  0.58702200  1
  C  115  1  0.55294300  0.10052700  0.58148800  1
  C  116  1  0.53765600  0.08519000  0.56278900  1
  C  117  1  0.44315100  0.96609000  0.54922100  1
  C  118  1  0.45845000  0.94586500  0.56269600  1
  C  119  1  0.41204700  0.97037100  0.55463600  1
  C  120  1  0.39661300  0.95468300  0.57300800  1
  C  121  1  0.41191300  0.93464800  0.58693000  1
  C  122  1  0.44311700  0.93055500  0.58139600  1
  C  149  1  0.68186700  0.25269400  0.67183000  1
  C  150  1  0.68229900  0.27969000  0.67147500  1
  C  151  1  0.70239500  0.28828900  0.69083200  1
  C  153  1  0.70170200  0.24408700  0.69140000  1
  C  154  1  0.70760000  0.21733600  0.69744100  1
  C  155  1  0.72951900  0.20861700  0.71588900  1
  C  157  1  0.76635000  0.20861200  0.74620000  1
  C  158  1  0.75940000  0.18260000  0.74027000  1
  C  159  1  0.73646300  0.18260500  0.72182300  1
  C  160  1  0.78827200  0.21732000  0.76464600  1
  C  161  1  0.79419200  0.24406400  0.77068600  1
  C  163  1  0.79349000  0.28826600  0.77128700  1
  C  164  1  0.81358300  0.27965000  0.79064200  1
  C  165  1  0.81404100  0.25265300  0.79025200  1
  C  166  1  0.78691700  0.31500100  0.76579600  1
  C  167  1  0.76566400  0.32373400  0.74680100  1
  C  169  1  0.73020800  0.32373900  0.71534700  1
  C  170  1  0.73701300  0.34975800  0.72137200  1
  C  171  1  0.75884800  0.34975400  0.74078800  1
  C  172  1  0.70895900  0.31501700  0.69634900  1
  C  173  1  0.69381700  0.33445600  0.68113000  1
  C  174  1  0.66435700  0.34309000  0.68786900  1
  C  175  1  0.64890600  0.36120300  0.67189800  1
  C  176  1  0.66244100  0.37142000  0.64887200  1
  C  177  1  0.69202200  0.36250700  0.64234800  1
  C  178  1  0.70747300  0.34430100  0.65816000  1
  C  179  1  0.80205000  0.33443000  0.78103200  1
  C  180  1  0.78837600  0.34426500  0.80399700  1
  C  181  1  0.80380900  0.36246400  0.81982200  1
  C  182  1  0.83340900  0.37135500  0.81333900  1
  C  183  1  0.84696600  0.36114400  0.79032100  1
  C  184  1  0.83152200  0.34305500  0.77432400  1
  C  185  1  0.80588200  0.19794700  0.77791300  1
  C  186  1  0.83642500  0.19369300  0.77071300  1
  C  187  1  0.85480200  0.17627500  0.78500200  1
  C  188  1  0.84352100  0.16221400  0.80695800  1
  C  189  1  0.81253800  0.16650100  0.81361900  1
  C  190  1  0.79408000  0.18408700  0.79952800  1
  C  191  1  0.68999200  0.19797300  0.68416400  1
  C  192  1  0.70179700  0.18411200  0.66255400  1
  C  193  1  0.65946600  0.19368400  0.69139600  1
  C  194  1  0.64109700  0.17626100  0.67711200  1
  C  195  1  0.65238100  0.16218700  0.65516800  1
  C  196  1  0.68334900  0.16651300  0.64847800  1
  C  223  1  0.18174300  0.77874000  0.79025600  1
  C  224  1  0.18219300  0.75174500  0.79063700  1
  C  225  1  0.20233100  0.74313600  0.77130600  1
  C  227  1  0.20163500  0.78733700  0.77071500  1
  C  228  1  0.20756500  0.81408200  0.76468100  1
  C  229  1  0.22952500  0.82279400  0.74625900  1
  C  231  1  0.26638200  0.82279000  0.71596300  1
  C  232  1  0.25944900  0.84880300  0.72190400  1
  C  233  1  0.23649100  0.84880500  0.74034000  1
  C  234  1  0.28831200  0.81407300  0.69751600  1
  C  235  1  0.29421700  0.78732600  0.69147300  1
  C  237  1  0.29350600  0.74312700  0.69088400  1
  C  238  1  0.31359100  0.75173200  0.67151100  1
  C  239  1  0.31405400  0.77872700  0.67189300  1
  C  240  1  0.28693200  0.71639700  0.69639200  1
  C  241  1  0.26567200  0.70767100  0.71538900  1
  C  243  1  0.23018700  0.70767500  0.74683000  1
  C  244  1  0.23701200  0.68165200  0.74082400  1
  C  245  1  0.25885800  0.68165000  0.72141100  1
  C  246  1  0.20891100  0.71640700  0.76580900  1
  C  247  1  0.19376700  0.69697500  0.78103400  1
  C  248  1  0.16432400  0.68832200  0.77428600  1
  C  249  1  0.14887800  0.67020200  0.79025300  1
  C  250  1  0.16240200  0.66000000  0.81328700  1
  C  251  1  0.19196700  0.66892900  0.81981900  1
  C  252  1  0.20741300  0.68713900  0.80401000  1
  C  253  1  0.30206000  0.69696400  0.68116000  1
  C  254  1  0.28839400  0.68714100  0.65819200  1
  C  255  1  0.30383100  0.66894300  0.64236100  1
  C  256  1  0.33341200  0.66002000  0.64885900  1
  C  257  1  0.34695600  0.67020900  0.67188500  1
  C  258  1  0.33151900  0.68831700  0.68787300  1
  C  259  1  0.30592900  0.83343800  0.68424300  1
  C  260  1  0.33647800  0.83766100  0.69142700  1
  C  261  1  0.35486500  0.85506100  0.67712300  1
  C  262  1  0.34357600  0.86916400  0.65520100  1
  C  263  1  0.31258600  0.86491000  0.64856200  1
  C  264  1  0.29411500  0.84734100  0.66266400  1
  C  265  1  0.18995500  0.83345300  0.77794800  1
  C  266  1  0.20174900  0.84730400  0.79956200  1
  C  267  1  0.15944200  0.83776100  0.77069900  1
  C  268  1  0.14107100  0.85520600  0.78496300  1
  C  269  1  0.15233300  0.86925100  0.80692800  1
  C  270  1  0.18328700  0.86490200  0.81363800  1
  C  297  1  0.31588200  0.77932000  0.28887900  1
  C  298  1  0.31533400  0.75231900  0.28932900  1
  C  299  1  0.29413500  0.74374200  0.27085000  1
  C  301  1  0.29494000  0.78794600  0.27019200  1
  C  302  1  0.28876700  0.81468400  0.26431500  1
  C  303  1  0.26676600  0.82344100  0.24597500  1
  C  305  1  0.22998200  0.82346400  0.21565200  1
  C  306  1  0.23696600  0.84947700  0.22154200  1
  C  307  1  0.25977200  0.84946300  0.24012200  1
  C  308  1  0.20797200  0.81473500  0.19731000  1
  C  309  1  0.20178100  0.78801100  0.19140300  1
  C  311  1  0.20251900  0.74380400  0.19072600  1
  C  312  1  0.18135000  0.75242100  0.17223800  1
  C  313  1  0.18083900  0.77942200  0.17270100  1
  C  314  1  0.20936500  0.71707700  0.19601300  1
  C  315  1  0.23063900  0.70833100  0.21499000  1
  C  317  1  0.26592900  0.70831000  0.24660500  1
  C  318  1  0.25905400  0.68229600  0.24061600  1
  C  319  1  0.23746200  0.68230800  0.22099600  1
  C  320  1  0.28722600  0.71702800  0.26557200  1
  C  321  1  0.30209200  0.69760200  0.28099600  1
  C  322  1  0.33004800  0.68662800  0.27302700  1
  C  323  1  0.34525800  0.66847300  0.28913300  1
  C  324  1  0.33298000  0.66057000  0.31355600  1
  C  325  1  0.30492700  0.67185800  0.32130200  1
  C  326  1  0.28972600  0.69008500  0.30534500  1
  C  327  1  0.19444000  0.69767200  0.18060300  1
  C  328  1  0.20672000  0.69017600  0.15621700  1
  C  329  1  0.19145100  0.67197700  0.14028100  1
  C  330  1  0.16345400  0.66064400  0.14811200  1
  C  331  1  0.15127600  0.66851400  0.17258200  1
  C  332  1  0.16652900  0.68667200  0.18865000  1
  C  333  1  0.19062300  0.83412300  0.18388800  1
  C  334  1  0.16155400  0.84120000  0.19315800  1
  C  335  1  0.14303700  0.85832300  0.17863100  1
  C  336  1  0.15280800  0.86885400  0.15434900  1
  C  337  1  0.18246800  0.86221900  0.14571500  1
  C  338  1  0.20103800  0.84499100  0.16012300  1
  C  339  1  0.30609000  0.83404900  0.27778700  1
  C  340  1  0.29565300  0.84484100  0.30157900  1
  C  341  1  0.33514600  0.84118800  0.26854000  1
  C  342  1  0.35362900  0.85829700  0.28310800  1
  C  343  1  0.34384000  0.86874400  0.30742100  1
  C  344  1  0.31418400  0.86205800  0.31602900  1
  C  371  1  0.81584500  0.25205700  0.17323900  1
  C  372  1  0.81527300  0.27905800  0.17275600  1
  C  373  1  0.79408800  0.28764700  0.19124800  1
  C  375  1  0.79489600  0.24344500  0.19193300  1
  C  376  1  0.78870600  0.21671300  0.19781400  1
  C  377  1  0.76669100  0.20796200  0.21615200  1
  C  379  1  0.72988500  0.20795000  0.24646300  1
  C  380  1  0.73688300  0.18193500  0.24058900  1
  C  381  1  0.75969600  0.18194200  0.22200600  1
  C  382  1  0.70785900  0.21668800  0.26479700  1
  C  383  1  0.70165200  0.24341500  0.27068300  1
  C  385  1  0.70239100  0.28761800  0.27133800  1
  C  386  1  0.68122100  0.27901500  0.28983800  1
  C  387  1  0.68069400  0.25201400  0.28937400  1
  C  388  1  0.70924500  0.31434000  0.26604000  1
  C  389  1  0.73054400  0.32307900  0.24707600  1
  C  391  1  0.76587100  0.32309100  0.21548300  1
  C  392  1  0.75900700  0.34910800  0.22147700  1
  C  393  1  0.73737200  0.34910100  0.24107000  1
  C  394  1  0.78717700  0.31436300  0.19651900  1
  C  395  1  0.80206000  0.33378200  0.18109400  1
  C  396  1  0.83000500  0.34475100  0.18907800  1
  C  397  1  0.84521900  0.36292000  0.17298700  1
  C  398  1  0.83295500  0.37083500  0.14856500  1
  C  399  1  0.80492000  0.35953900  0.14080200  1
  C  400  1  0.78969500  0.34132400  0.15675800  1
  C  401  1  0.69433600  0.33374900  0.28145600  1
  C  402  1  0.70662300  0.34123900  0.30583600  1
  C  403  1  0.69137000  0.35945400  0.32177000  1
  C  404  1  0.66338400  0.37080500  0.31394500  1
  C  405  1  0.65119000  0.36293200  0.28948500  1
  C  406  1  0.66643200  0.34476100  0.27341700  1
  C  407  1  0.69051500  0.19730500  0.27823000  1
  C  408  1  0.66145900  0.19020700  0.26896400  1
  C  409  1  0.64296700  0.17306200  0.28348700  1
  C  410  1  0.65274700  0.16254100  0.30776900  1
  C  411  1  0.68240300  0.16918100  0.31639100  1
  C  412  1  0.70094500  0.18643800  0.30198700  1
  C  413  1  0.80603400  0.19734200  0.18435300  1
  C  414  1  0.79561700  0.18655500  0.16055700  1
  C  415  1  0.83508200  0.19019700  0.19361100  1
  C  416  1  0.85356200  0.17306200  0.17906100  1
  C  417  1  0.84379100  0.16261800  0.15474800  1
  C  418  1  0.81415700  0.16933000  0.14611700  1
  C  445  1  0.43018500  0.57357500  0.46723100  1
  C  446  1  0.43027300  0.57367800  0.49423100  1
  C  447  1  0.45201500  0.55567800  0.50285000  1
  C  449  1  0.45182000  0.55546600  0.45863100  1
  C  450  1  0.45818400  0.54973900  0.43189900  1
  C  451  1  0.47998000  0.53120000  0.42316600  1
  C  453  1  0.51612500  0.50029700  0.42319500  1
  C  454  1  0.50927500  0.50626500  0.39717600  1
  C  455  1  0.48689400  0.52523700  0.39715800  1
  C  456  1  0.53790100  0.48175800  0.43195800  1
  C  457  1  0.54420600  0.47602700  0.45869900  1
  C  459  1  0.54392600  0.47581900  0.50291800  1
  C  460  1  0.56568000  0.45781400  0.49432600  1
  C  461  1  0.56581100  0.45790600  0.46732800  1
  C  462  1  0.53737100  0.48138400  0.52964800  1
  C  463  1  0.51580900  0.50013300  0.53836500  1
  C  465  1  0.48006000  0.53136200  0.53833900  1
  C  466  1  0.48689600  0.52538600  0.56435700  1
  C  467  1  0.50891800  0.50611300  0.56437500  1
  C  468  1  0.45851600  0.55011100  0.52958900  1
  C  469  1  0.44149700  0.56384500  0.54898100  1
  C  470  1  0.41440000  0.55300700  0.55901700  1
  C  471  1  0.39605600  0.56746400  0.57633900  1
  C  472  1  0.40401300  0.59323400  0.58409100  1
  C  473  1  0.43175500  0.60356900  0.57444000  1
  C  474  1  0.45015400  0.58920200  0.55704300  1
  C  475  1  0.55436100  0.46765600  0.54906300  1
  C  476  1  0.54571300  0.44228500  0.55710400  1
  C  477  1  0.56408000  0.42792400  0.57452800  1
  C  478  1  0.59181300  0.43825900  0.58418300  1
  C  479  1  0.59976100  0.46403900  0.57645400  1
  C  480  1  0.58142400  0.47850700  0.55913800  1
  C  481  1  0.55525600  0.46828800  0.41259900  1
  C  482  1  0.58430100  0.47755300  0.40543700  1
  C  483  1  0.60284700  0.46293800  0.38840900  1
  C  484  1  0.59311500  0.43857800  0.37804300  1
  C  485  1  0.56347000  0.42995200  0.38472300  1
  C  486  1  0.54489900  0.44442700  0.40190000  1
  C  487  1  0.44087200  0.56321100  0.41251300  1
  C  488  1  0.45123300  0.58708800  0.40184600  1
  C  489  1  0.41188400  0.55389800  0.40525800  1
  C  490  1  0.39337800  0.56850000  0.38819200  1
  C  491  1  0.40310400  0.59288200  0.37785700  1
  C  492  1  0.43268900  0.60156200  0.38465100  1
  C  519  1  0.93017900  0.45785900  0.99498200  1
  C  520  1  0.93026100  0.45774000  0.96798300  1
  C  521  1  0.95200500  0.47572600  0.95934100  1
  C  523  1  0.95181600  0.47596900  0.00355900  1
  C  524  1  0.95818400  0.48171500  0.03028700  1
  C  525  1  0.97999700  0.50023800  0.03900200  1
  C  527  1  0.01616300  0.53111600  0.03895700  1
  C  528  1  0.00931500  0.52515100  0.06497900  1
  C  529  1  0.98692500  0.50619500  0.06500800  1
  C  530  1  0.03794400  0.54964900  0.03018100  1
  C  531  1  0.04421900  0.55537700  0.00343100  1
  C  533  1  0.04390500  0.55557600  0.95921300  1
  C  534  1  0.06564900  0.57359200  0.96778100  1
  C  535  1  0.06579900  0.57350600  0.99478000  1
  C  536  1  0.03734400  0.54999300  0.93249000  1
  C  537  1  0.01579500  0.53123500  0.92378500  1
  C  539  1  0.98005600  0.50000300  0.92383100  1
  C  540  1  0.98690200  0.50596400  0.89780800  1
  C  541  1  0.00891700  0.52523900  0.89778000  1
  C  542  1  0.95851400  0.48125900  0.93259400  1
  C  543  1  0.94148600  0.46752000  0.91321400  1
  C  544  1  0.91439500  0.47836200  0.90317200  1
  C  545  1  0.89605000  0.46390100  0.88586300  1
  C  546  1  0.90400800  0.43812700  0.87811200  1
  C  547  1  0.93175100  0.42779400  0.88775800  1
  C  548  1  0.95014500  0.44216100  0.90515100  1
  C  549  1  0.05432600  0.56371400  0.91306200  1
  C  550  1  0.04565800  0.58907500  0.90500600  1
  C  551  1  0.06404500  0.60345000  0.88760400  1
  C  552  1  0.09178700  0.59311900  0.87794600  1
  C  553  1  0.09974600  0.56734100  0.88567700  1
  C  554  1  0.08141400  0.55287700  0.90300300  1
  C  555  1  0.05529700  0.56313100  0.04952700  1
  C  556  1  0.08436200  0.55388700  0.05665400  1
  C  557  1  0.10291700  0.56851800  0.07365100  1
  C  558  1  0.09316700  0.59286500  0.08404600  1
  C  559  1  0.06350400  0.60147000  0.07739800  1
  C  560  1  0.04491000  0.58696700  0.06027100  1
  C  561  1  0.94088300  0.46824700  0.04968300  1
  C  562  1  0.95124700  0.44436600  0.06034100  1
  C  563  1  0.91189300  0.47756300  0.05694800  1
  C  564  1  0.89338600  0.46295900  0.07401800  1
  C  565  1  0.90310500  0.43856500  0.08432700  1
  C  566  1  0.93268900  0.42987900  0.07752000  1
  C  593  1  0.89789900  0.11469600  0.10509500  1
  C  594  1  0.91251400  0.13239500  0.12225400  1
  C  595  1  0.89519800  0.14826100  0.13907400  1
  C  596  1  0.86311000  0.14649100  0.13897300  1
  C  601  1  0.39794700  0.91662800  0.35710300  1
  C  602  1  0.41256100  0.89892600  0.33993500  1
  C  603  1  0.39524700  0.88307000  0.32311200  1
  C  604  1  0.36315900  0.88484600  0.32321800  1
  C  609  1  0.64632000  0.38944600  0.63255900  1
  C  610  1  0.66068200  0.40872100  0.61701100  1
  C  611  1  0.64317600  0.42530800  0.60105400  1
  C  612  1  0.61116400  0.42278400  0.60054800  1
  C  617  1  0.14628500  0.64196600  0.82959500  1
  C  618  1  0.16065400  0.62269200  0.84513700  1
  C  619  1  0.14314800  0.60609100  0.86108500  1
  C  620  1  0.11113300  0.60859800  0.86158000  1
  C  625  1  0.59859500  0.11455000  0.35732500  1
  C  626  1  0.58399900  0.13232900  0.34022700  1
  C  627  1  0.60133100  0.14822300  0.32344500  1
  C  628  1  0.63341500  0.14639900  0.32351700  1
  C  633  1  0.09859900  0.91679100  0.10479300  1
  C  634  1  0.08402500  0.89900300  0.12189900  1
  C  635  1  0.10137600  0.88313000  0.13868300  1
  C  636  1  0.13345700  0.88497900  0.13860200  1
  C  641  1  0.84952700  0.38935200  0.82968300  1
  C  642  1  0.83515700  0.40861900  0.84523700  1
  C  643  1  0.85265400  0.42519300  0.86121200  1
  C  644  1  0.88466800  0.42266800  0.86172600  1
  C  649  1  0.34952600  0.64201200  0.63252300  1
  C  650  1  0.33515500  0.62276000  0.61696200  1
  C  651  1  0.35265400  0.60618300  0.60098500  1
  C  652  1  0.38466900  0.60869100  0.60047900  1
  C  657  1  0.09982800  0.91896500  0.85662000  1
  C  658  1  0.08633400  0.90946600  0.83342200  1
  C  659  1  0.10313100  0.89339700  0.81639600  1
  C  660  1  0.13350900  0.88637500  0.82245500  1
  C  665  1  0.59989700  0.11246100  0.60548500  1
  C  666  1  0.58639400  0.12197700  0.62868000  1
  C  667  1  0.60318400  0.13805000  0.64570000  1
  C  668  1  0.63356700  0.14506000  0.63964300  1
  C  673  1  0.34887900  0.64245800  0.32996500  1
  C  674  1  0.33432300  0.62545200  0.34786000  1
  C  675  1  0.35168800  0.60866900  0.36372700  1
  C  676  1  0.38376000  0.60867000  0.36177400  1
  C  681  1  0.84885900  0.38895900  0.13217300  1
  C  682  1  0.83431000  0.40598000  0.11429100  1
  C  683  1  0.85168100  0.42277500  0.09844000  1
  C  684  1  0.88375300  0.42276600  0.10039300  1
  C  689  1  0.39614000  0.91873600  0.60542000  1
  C  690  1  0.40959700  0.90930800  0.62866800  1
  C  691  1  0.39277600  0.89329000  0.64572300  1
  C  692  1  0.36241800  0.88624100  0.63964100  1
  C  697  1  0.89607500  0.11264800  0.85675200  1
  C  698  1  0.90955100  0.12209300  0.83351600  1
  C  699  1  0.89273400  0.13810800  0.81645600  1
  C  700  1  0.86235600  0.14513200  0.82251800  1
  C  705  1  0.14751700  0.64251800  0.13175100  1
  C  706  1  0.16202000  0.62555800  0.11378200  1
  C  707  1  0.14461700  0.60875500  0.09797500  1
  C  708  1  0.11255400  0.60869600  0.10004900  1
  C  713  1  0.64745200  0.38893600  0.33031000  1
  C  714  1  0.66196400  0.40590200  0.34825700  1
  C  715  1  0.64456300  0.42270800  0.36407300  1
  C  716  1  0.61250000  0.42276200  0.36202100  1
  C  721  1  0.68276600  0.07583200  0.96788900  1
  C  722  1  0.68286500  0.07583200  0.99488600  1
  C  723  1  0.70265200  0.05619900  0.00341100  1
  C  725  1  0.70231100  0.05607200  0.95921300  1
  C  726  1  0.70854100  0.05031500  0.93246400  1
  C  727  1  0.73001600  0.03141400  0.92381500  1
  C  729  1  0.76601000  0.00031000  0.92376400  1
  C  730  1  0.75916000  0.00639600  0.89776500  1
  C  731  1  0.73681700  0.02536500  0.89780000  1
  C  732  1  0.78750900  0.98140100  0.93235000  1
  C  733  1  0.79378400  0.97559500  0.95907900  1
  C  735  1  0.79355500  0.97540800  0.00327600  1
  C  736  1  0.81330100  0.95577000  0.99468600  1
  C  737  1  0.81329000  0.95577600  0.96769100  1
  C  738  1  0.78710900  0.98103300  0.02999800  1
  C  739  1  0.76593700  0.00010000  0.03872800  1
  C  741  1  0.73038700  0.03148000  0.03877900  1
  C  742  1  0.73728600  0.02549200  0.06478600  1
  C  743  1  0.75911000  0.00606900  0.06475400  1
  C  744  1  0.70918500  0.05055000  0.03011100  1
  C  745  1  0.69439700  0.06595800  0.04959100  1
  C  746  1  0.66626300  0.05813300  0.06031700  1
  C  747  1  0.65116300  0.07415000  0.07861500  1
  C  748  1  0.66371500  0.09834800  0.08688400  1
  C  749  1  0.69194700  0.10594900  0.07582900  1
  C  750  1  0.70706800  0.09006200  0.05749400  1
  C  751  1  0.80194100  0.96559600  0.04943000  1
  C  752  1  0.78932700  0.94145000  0.05728700  1
  C  753  1  0.80451400  0.92552400  0.07554600  1
  C  754  1  0.83272000  0.93315300  0.08661600  1
  C  755  1  0.84520200  0.95740200  0.07841100  1
  C  756  1  0.83006100  0.97343900  0.06015800  1
  C  757  1  0.80291600  0.96640500  0.91281200  1
  C  758  1  0.83401100  0.97066500  0.90735200  1
  C  759  1  0.84940900  0.95495100  0.88898100  1
  C  760  1  0.83407200  0.93492000  0.87509200  1
  C  761  1  0.80287300  0.93085600  0.88066400  1
  C  762  1  0.78757700  0.94619300  0.89936200  1
  C  763  1  0.69306800  0.06531800  0.91296800  1
  C  764  1  0.70836100  0.08554700  0.89949300  1
  C  765  1  0.66197600  0.06101600  0.90754000  1
  C  766  1  0.64653900  0.07670300  0.88917100  1
  C  767  1  0.66183300  0.09674300  0.87524900  1
  C  768  1  0.69303100  0.10084500  0.88078600  1
  C  795  1  0.18284800  0.95553800  0.49431700  1
  C  796  1  0.18294600  0.95551900  0.46732000  1
  C  797  1  0.20271000  0.97515800  0.45877300  1
  C  799  1  0.20235800  0.97532900  0.50297200  1
  C  800  1  0.20860400  0.98108800  0.52971500  1
  C  801  1  0.23008200  0.99998600  0.53835100  1
  C  803  1  0.26608100  0.03107900  0.53838800  1
  C  804  1  0.25922200  0.02500300  0.56438400  1
  C  805  1  0.23688700  0.00603400  0.56436200  1
  C  806  1  0.28757800  0.04998600  0.52979200  1
  C  807  1  0.29388300  0.05574500  0.50305600  1
  C  809  1  0.29366000  0.05589400  0.45885700  1
  C  810  1  0.31337900  0.07555100  0.46742600  1
  C  811  1  0.31341500  0.07553300  0.49442200  1
  C  812  1  0.28721600  0.05024700  0.43214100  1
  C  813  1  0.26603100  0.03119300  0.42342300  1
  C  815  1  0.23047500  0.99982200  0.42338800  1
  C  816  1  0.23737100  0.00580600  0.39737800  1
  C  817  1  0.25921300  0.02521600  0.39740000  1
  C  818  1  0.20925600  0.98077200  0.43206700  1
  C  819  1  0.19446000  0.96536000  0.41259600  1
  C  820  1  0.16630600  0.97317300  0.40190500  1
  C  821  1  0.15120300  0.95716000  0.38361100  1
  C  822  1  0.16376500  0.93297100  0.37531600  1
  C  823  1  0.19200700  0.92537400  0.38634800  1
  C  824  1  0.20715100  0.94127200  0.40465100  1
  C  825  1  0.30201500  0.06569600  0.41270000  1
  C  826  1  0.28936200  0.08983200  0.40485100  1
  C  827  1  0.30451900  0.10577100  0.38658300  1
  C  828  1  0.33273700  0.09816800  0.37549800  1
  C  829  1  0.34526400  0.07393700  0.38370700  1
  C  830  1  0.33015000  0.05788400  0.40196400  1
  C  831  1  0.30299200  0.06498800  0.54932200  1
  C  832  1  0.33409600  0.06074800  0.55475900  1
  C  833  1  0.34948500  0.07646400  0.57312500  1
  C  834  1  0.33414600  0.09649600  0.58702200  1
  C  835  1  0.30293100  0.10052700  0.58148800  1
  C  836  1  0.28764400  0.08519000  0.56278900  1
  C  837  1  0.19313900  0.96609000  0.54922100  1
  C  838  1  0.20843800  0.94586500  0.56269600  1
  C  839  1  0.16203500  0.97037100  0.55463600  1
  C  840  1  0.14660100  0.95468300  0.57300800  1
  C  841  1  0.16190100  0.93464800  0.58693000  1
  C  842  1  0.19310500  0.93055500  0.58139600  1
  C  869  1  0.43185500  0.25269400  0.67183000  1
  C  870  1  0.43228700  0.27969000  0.67147500  1
  C  871  1  0.45238300  0.28828900  0.69083200  1
  C  873  1  0.45169000  0.24408700  0.69140000  1
  C  874  1  0.45758800  0.21733600  0.69744100  1
  C  875  1  0.47950700  0.20861700  0.71588900  1
  C  877  1  0.51633800  0.20861200  0.74620000  1
  C  878  1  0.50938800  0.18260000  0.74027000  1
  C  879  1  0.48645100  0.18260500  0.72182300  1
  C  880  1  0.53826000  0.21732000  0.76464600  1
  C  881  1  0.54418000  0.24406400  0.77068600  1
  C  883  1  0.54347800  0.28826600  0.77128700  1
  C  884  1  0.56357100  0.27965000  0.79064200  1
  C  885  1  0.56402900  0.25265300  0.79025200  1
  C  886  1  0.53690500  0.31500100  0.76579600  1
  C  887  1  0.51565200  0.32373400  0.74680100  1
  C  889  1  0.48019600  0.32373900  0.71534700  1
  C  890  1  0.48700100  0.34975800  0.72137200  1
  C  891  1  0.50883600  0.34975400  0.74078800  1
  C  892  1  0.45894700  0.31501700  0.69634900  1
  C  893  1  0.44380500  0.33445600  0.68113000  1
  C  894  1  0.41434500  0.34309000  0.68786900  1
  C  895  1  0.39889400  0.36120300  0.67189800  1
  C  896  1  0.41242900  0.37142000  0.64887200  1
  C  897  1  0.44201000  0.36250700  0.64234800  1
  C  898  1  0.45746100  0.34430100  0.65816000  1
  C  899  1  0.55203800  0.33443000  0.78103200  1
  C  900  1  0.53836400  0.34426500  0.80399700  1
  C  901  1  0.55379700  0.36246400  0.81982200  1
  C  902  1  0.58339700  0.37135500  0.81333900  1
  C  903  1  0.59695400  0.36114400  0.79032100  1
  C  904  1  0.58151000  0.34305500  0.77432400  1
  C  905  1  0.55587000  0.19794700  0.77791300  1
  C  906  1  0.58641300  0.19369300  0.77071300  1
  C  907  1  0.60479000  0.17627500  0.78500200  1
  C  908  1  0.59350900  0.16221400  0.80695800  1
  C  909  1  0.56252600  0.16650100  0.81361900  1
  C  910  1  0.54406800  0.18408700  0.79952800  1
  C  911  1  0.43998000  0.19797300  0.68416400  1
  C  912  1  0.45178500  0.18411200  0.66255400  1
  C  913  1  0.40945400  0.19368400  0.69139600  1
  C  914  1  0.39108500  0.17626100  0.67711200  1
  C  915  1  0.40236900  0.16218700  0.65516800  1
  C  916  1  0.43333700  0.16651300  0.64847800  1
  C  943  1  0.93173110  0.77874000  0.79025600  1
  C  944  1  0.93218110  0.75174500  0.79063700  1
  C  945  1  0.95231910  0.74313600  0.77130600  1
  C  947  1  0.95162310  0.78733700  0.77071500  1
  C  948  1  0.95755310  0.81408200  0.76468100  1
  C  949  1  0.97951310  0.82279400  0.74625900  1
  C  951  1  0.01637000  0.82279000  0.71596300  1
  C  952  1  0.00943700  0.84880300  0.72190400  1
  C  953  1  0.98647910  0.84880500  0.74034000  1
  C  954  1  0.03830000  0.81407300  0.69751600  1
  C  955  1  0.04420500  0.78732600  0.69147300  1
  C  957  1  0.04349400  0.74312700  0.69088400  1
  C  958  1  0.06357900  0.75173200  0.67151100  1
  C  959  1  0.06404200  0.77872700  0.67189300  1
  C  960  1  0.03692000  0.71639700  0.69639200  1
  C  961  1  0.01566000  0.70767100  0.71538900  1
  C  963  1  0.98017510  0.70767500  0.74683000  1
  C  964  1  0.98700010  0.68165200  0.74082400  1
  C  965  1  0.00884600  0.68165000  0.72141100  1
  C  966  1  0.95889910  0.71640700  0.76580900  1
  C  967  1  0.94375510  0.69697500  0.78103400  1
  C  968  1  0.91431210  0.68832200  0.77428600  1
  C  969  1  0.89886600  0.67020200  0.79025300  1
  C  970  1  0.91239010  0.66000000  0.81328700  1
  C  971  1  0.94195510  0.66892900  0.81981900  1
  C  972  1  0.95740110  0.68713900  0.80401000  1
  C  973  1  0.05204800  0.69696400  0.68116000  1
  C  974  1  0.03838200  0.68714100  0.65819200  1
  C  975  1  0.05381900  0.66894300  0.64236100  1
  C  976  1  0.08340000  0.66002000  0.64885900  1
  C  977  1  0.09694400  0.67020900  0.67188500  1
  C  978  1  0.08150700  0.68831700  0.68787300  1
  C  979  1  0.05591700  0.83343800  0.68424300  1
  C  980  1  0.08646600  0.83766100  0.69142700  1
  C  981  1  0.10485300  0.85506100  0.67712300  1
  C  982  1  0.09356400  0.86916400  0.65520100  1
  C  983  1  0.06257400  0.86491000  0.64856200  1
  C  984  1  0.04410300  0.84734100  0.66266400  1
  C  985  1  0.93994310  0.83345300  0.77794800  1
  C  986  1  0.95173710  0.84730400  0.79956200  1
  C  987  1  0.90943010  0.83776100  0.77069900  1
  C  988  1  0.89105900  0.85520600  0.78496300  1
  C  989  1  0.90232110  0.86925100  0.80692800  1
  C  990  1  0.93327510  0.86490200  0.81363800  1
  C  1017  1  0.06587000  0.77932000  0.28887900  1
  C  1018  1  0.06532200  0.75231900  0.28932900  1
  C  1019  1  0.04412300  0.74374200  0.27085000  1
  C  1021  1  0.04492800  0.78794600  0.27019200  1
  C  1022  1  0.03875500  0.81468400  0.26431500  1
  C  1023  1  0.01675400  0.82344100  0.24597500  1
  C  1025  1  0.97997010  0.82346400  0.21565200  1
  C  1026  1  0.98695410  0.84947700  0.22154200  1
  C  1027  1  0.00976000  0.84946300  0.24012200  1
  C  1028  1  0.95796010  0.81473500  0.19731000  1
  C  1029  1  0.95176910  0.78801100  0.19140300  1
  C  1031  1  0.95250710  0.74380400  0.19072600  1
  C  1032  1  0.93133810  0.75242100  0.17223800  1
  C  1033  1  0.93082710  0.77942200  0.17270100  1
  C  1034  1  0.95935310  0.71707700  0.19601300  1
  C  1035  1  0.98062710  0.70833100  0.21499000  1
  C  1037  1  0.01591700  0.70831000  0.24660500  1
  C  1038  1  0.00904200  0.68229600  0.24061600  1
  C  1039  1  0.98745010  0.68230800  0.22099600  1
  C  1040  1  0.03721400  0.71702800  0.26557200  1
  C  1041  1  0.05208000  0.69760200  0.28099600  1
  C  1042  1  0.08003600  0.68662800  0.27302700  1
  C  1043  1  0.09524600  0.66847300  0.28913300  1
  C  1044  1  0.08296800  0.66057000  0.31355600  1
  C  1045  1  0.05491500  0.67185800  0.32130200  1
  C  1046  1  0.03971400  0.69008500  0.30534500  1
  C  1047  1  0.94442810  0.69767200  0.18060300  1
  C  1048  1  0.95670810  0.69017600  0.15621700  1
  C  1049  1  0.94143910  0.67197700  0.14028100  1
  C  1050  1  0.91344210  0.66064400  0.14811200  1
  C  1051  1  0.90126410  0.66851400  0.17258200  1
  C  1052  1  0.91651710  0.68667200  0.18865000  1
  C  1053  1  0.94061110  0.83412300  0.18388800  1
  C  1054  1  0.91154210  0.84120000  0.19315800  1
  C  1055  1  0.89302500  0.85832300  0.17863100  1
  C  1056  1  0.90279610  0.86885400  0.15434900  1
  C  1057  1  0.93245610  0.86221900  0.14571500  1
  C  1058  1  0.95102610  0.84499100  0.16012300  1
  C  1059  1  0.05607800  0.83404900  0.27778700  1
  C  1060  1  0.04564100  0.84484100  0.30157900  1
  C  1061  1  0.08513400  0.84118800  0.26854000  1
  C  1062  1  0.10361700  0.85829700  0.28310800  1
  C  1063  1  0.09382800  0.86874400  0.30742100  1
  C  1064  1  0.06417200  0.86205800  0.31602900  1
  C  1091  1  0.56583300  0.25205700  0.17323900  1
  C  1092  1  0.56526100  0.27905800  0.17275600  1
  C  1093  1  0.54407600  0.28764700  0.19124800  1
  C  1095  1  0.54488400  0.24344500  0.19193300  1
  C  1096  1  0.53869400  0.21671300  0.19781400  1
  C  1097  1  0.51667900  0.20796200  0.21615200  1
  C  1099  1  0.47987300  0.20795000  0.24646300  1
  C  1100  1  0.48687100  0.18193500  0.24058900  1
  C  1101  1  0.50968400  0.18194200  0.22200600  1
  C  1102  1  0.45784700  0.21668800  0.26479700  1
  C  1103  1  0.45164000  0.24341500  0.27068300  1
  C  1105  1  0.45237900  0.28761800  0.27133800  1
  C  1106  1  0.43120900  0.27901500  0.28983800  1
  C  1107  1  0.43068200  0.25201400  0.28937400  1
  C  1108  1  0.45923300  0.31434000  0.26604000  1
  C  1109  1  0.48053200  0.32307900  0.24707600  1
  C  1111  1  0.51585900  0.32309100  0.21548300  1
  C  1112  1  0.50899500  0.34910800  0.22147700  1
  C  1113  1  0.48736000  0.34910100  0.24107000  1
  C  1114  1  0.53716500  0.31436300  0.19651900  1
  C  1115  1  0.55204800  0.33378200  0.18109400  1
  C  1116  1  0.57999300  0.34475100  0.18907800  1
  C  1117  1  0.59520700  0.36292000  0.17298700  1
  C  1118  1  0.58294300  0.37083500  0.14856500  1
  C  1119  1  0.55490800  0.35953900  0.14080200  1
  C  1120  1  0.53968300  0.34132400  0.15675800  1
  C  1121  1  0.44432400  0.33374900  0.28145600  1
  C  1122  1  0.45661100  0.34123900  0.30583600  1
  C  1123  1  0.44135800  0.35945400  0.32177000  1
  C  1124  1  0.41337200  0.37080500  0.31394500  1
  C  1125  1  0.40117800  0.36293200  0.28948500  1
  C  1126  1  0.41642000  0.34476100  0.27341700  1
  C  1127  1  0.44050300  0.19730500  0.27823000  1
  C  1128  1  0.41144700  0.19020700  0.26896400  1
  C  1129  1  0.39295500  0.17306200  0.28348700  1
  C  1130  1  0.40273500  0.16254100  0.30776900  1
  C  1131  1  0.43239100  0.16918100  0.31639100  1
  C  1132  1  0.45093300  0.18643800  0.30198700  1
  C  1133  1  0.55602200  0.19734200  0.18435300  1
  C  1134  1  0.54560500  0.18655500  0.16055700  1
  C  1135  1  0.58507000  0.19019700  0.19361100  1
  C  1136  1  0.60355000  0.17306200  0.17906100  1
  C  1137  1  0.59377900  0.16261800  0.15474800  1
  C  1138  1  0.56414500  0.16933000  0.14611700  1
  C  1165  1  0.18017300  0.57357500  0.46723100  1
  C  1166  1  0.18026100  0.57367800  0.49423100  1
  C  1167  1  0.20200300  0.55567800  0.50285000  1
  C  1169  1  0.20180800  0.55546600  0.45863100  1
  C  1170  1  0.20817200  0.54973900  0.43189900  1
  C  1171  1  0.22996800  0.53120000  0.42316600  1
  C  1173  1  0.26611300  0.50029700  0.42319500  1
  C  1174  1  0.25926300  0.50626500  0.39717600  1
  C  1175  1  0.23688200  0.52523700  0.39715800  1
  C  1176  1  0.28788900  0.48175800  0.43195800  1
  C  1177  1  0.29419400  0.47602700  0.45869900  1
  C  1179  1  0.29391400  0.47581900  0.50291800  1
  C  1180  1  0.31566800  0.45781400  0.49432600  1
  C  1181  1  0.31579900  0.45790600  0.46732800  1
  C  1182  1  0.28735900  0.48138400  0.52964800  1
  C  1183  1  0.26579700  0.50013300  0.53836500  1
  C  1185  1  0.23004800  0.53136200  0.53833900  1
  C  1186  1  0.23688400  0.52538600  0.56435700  1
  C  1187  1  0.25890600  0.50611300  0.56437500  1
  C  1188  1  0.20850400  0.55011100  0.52958900  1
  C  1189  1  0.19148500  0.56384500  0.54898100  1
  C  1190  1  0.16438800  0.55300700  0.55901700  1
  C  1191  1  0.14604400  0.56746400  0.57633900  1
  C  1192  1  0.15400100  0.59323400  0.58409100  1
  C  1193  1  0.18174300  0.60356900  0.57444000  1
  C  1194  1  0.20014200  0.58920200  0.55704300  1
  C  1195  1  0.30434900  0.46765600  0.54906300  1
  C  1196  1  0.29570100  0.44228500  0.55710400  1
  C  1197  1  0.31406800  0.42792400  0.57452800  1
  C  1198  1  0.34180100  0.43825900  0.58418300  1
  C  1199  1  0.34974900  0.46403900  0.57645400  1
  C  1200  1  0.33141200  0.47850700  0.55913800  1
  C  1201  1  0.30524400  0.46828800  0.41259900  1
  C  1202  1  0.33428900  0.47755300  0.40543700  1
  C  1203  1  0.35283500  0.46293800  0.38840900  1
  C  1204  1  0.34310300  0.43857800  0.37804300  1
  C  1205  1  0.31345800  0.42995200  0.38472300  1
  C  1206  1  0.29488700  0.44442700  0.40190000  1
  C  1207  1  0.19086000  0.56321100  0.41251300  1
  C  1208  1  0.20122100  0.58708800  0.40184600  1
  C  1209  1  0.16187200  0.55389800  0.40525800  1
  C  1210  1  0.14336600  0.56850000  0.38819200  1
  C  1211  1  0.15309200  0.59288200  0.37785700  1
  C  1212  1  0.18267700  0.60156200  0.38465100  1
  C  1239  1  0.68016700  0.45785900  0.99498200  1
  C  1240  1  0.68024900  0.45774000  0.96798300  1
  C  1241  1  0.70199300  0.47572600  0.95934100  1
  C  1243  1  0.70180400  0.47596900  0.00355900  1
  C  1244  1  0.70817200  0.48171500  0.03028700  1
  C  1245  1  0.72998500  0.50023800  0.03900200  1
  C  1247  1  0.76615100  0.53111600  0.03895700  1
  C  1248  1  0.75930300  0.52515100  0.06497900  1
  C  1249  1  0.73691300  0.50619500  0.06500800  1
  C  1250  1  0.78793200  0.54964900  0.03018100  1
  C  1251  1  0.79420700  0.55537700  0.00343100  1
  C  1253  1  0.79389300  0.55557600  0.95921300  1
  C  1254  1  0.81563700  0.57359200  0.96778100  1
  C  1255  1  0.81578700  0.57350600  0.99478000  1
  C  1256  1  0.78733200  0.54999300  0.93249000  1
  C  1257  1  0.76578300  0.53123500  0.92378500  1
  C  1259  1  0.73004400  0.50000300  0.92383100  1
  C  1260  1  0.73689000  0.50596400  0.89780800  1
  C  1261  1  0.75890500  0.52523900  0.89778000  1
  C  1262  1  0.70850200  0.48125900  0.93259400  1
  C  1263  1  0.69147400  0.46752000  0.91321400  1
  C  1264  1  0.66438300  0.47836200  0.90317200  1
  C  1265  1  0.64603800  0.46390100  0.88586300  1
  C  1266  1  0.65399600  0.43812700  0.87811200  1
  C  1267  1  0.68173900  0.42779400  0.88775800  1
  C  1268  1  0.70013300  0.44216100  0.90515100  1
  C  1269  1  0.80431400  0.56371400  0.91306200  1
  C  1270  1  0.79564600  0.58907500  0.90500600  1
  C  1271  1  0.81403300  0.60345000  0.88760400  1
  C  1272  1  0.84177500  0.59311900  0.87794600  1
  C  1273  1  0.84973400  0.56734100  0.88567700  1
  C  1274  1  0.83140200  0.55287700  0.90300300  1
  C  1275  1  0.80528500  0.56313100  0.04952700  1
  C  1276  1  0.83435000  0.55388700  0.05665400  1
  C  1277  1  0.85290500  0.56851800  0.07365100  1
  C  1278  1  0.84315500  0.59286500  0.08404600  1
  C  1279  1  0.81349200  0.60147000  0.07739800  1
  C  1280  1  0.79489800  0.58696700  0.06027100  1
  C  1281  1  0.69087100  0.46824700  0.04968300  1
  C  1282  1  0.70123500  0.44436600  0.06034100  1
  C  1283  1  0.66188100  0.47756300  0.05694800  1
  C  1284  1  0.64337400  0.46295900  0.07401800  1
  C  1285  1  0.65309300  0.43856500  0.08432700  1
  C  1286  1  0.68267700  0.42987900  0.07752000  1
  C  1313  1  0.64788700  0.11469600  0.10509500  1
  C  1314  1  0.66250200  0.13239500  0.12225400  1
  C  1315  1  0.64518600  0.14826100  0.13907400  1
  C  1316  1  0.61309800  0.14649100  0.13897300  1
  C  1321  1  0.14793500  0.91662800  0.35710300  1
  C  1322  1  0.16254900  0.89892600  0.33993500  1
  C  1323  1  0.14523500  0.88307000  0.32311200  1
  C  1324  1  0.11314700  0.88484600  0.32321800  1
  C  1329  1  0.39630800  0.38944600  0.63255900  1
  C  1330  1  0.41067000  0.40872100  0.61701100  1
  C  1331  1  0.39316400  0.42530800  0.60105400  1
  C  1332  1  0.36115200  0.42278400  0.60054800  1
  C  1337  1  0.89627300  0.64196600  0.82959500  1
  C  1338  1  0.91064210  0.62269200  0.84513700  1
  C  1339  1  0.89313600  0.60609100  0.86108500  1
  C  1340  1  0.86112100  0.60859800  0.86158000  1
  C  1345  1  0.34858300  0.11455000  0.35732500  1
  C  1346  1  0.33398700  0.13232900  0.34022700  1
  C  1347  1  0.35131900  0.14822300  0.32344500  1
  C  1348  1  0.38340300  0.14639900  0.32351700  1
  C  1353  1  0.84858700  0.91679100  0.10479300  1
  C  1354  1  0.83401300  0.89900300  0.12189900  1
  C  1355  1  0.85136400  0.88313000  0.13868300  1
  C  1356  1  0.88344500  0.88497900  0.13860200  1
  C  1361  1  0.59951500  0.38935200  0.82968300  1
  C  1362  1  0.58514500  0.40861900  0.84523700  1
  C  1363  1  0.60264200  0.42519300  0.86121200  1
  C  1364  1  0.63465600  0.42266800  0.86172600  1
  C  1369  1  0.09951400  0.64201200  0.63252300  1
  C  1370  1  0.08514300  0.62276000  0.61696200  1
  C  1371  1  0.10264200  0.60618300  0.60098500  1
  C  1372  1  0.13465700  0.60869100  0.60047900  1
  C  1377  1  0.84981600  0.91896500  0.85662000  1
  C  1378  1  0.83632200  0.90946600  0.83342200  1
  C  1379  1  0.85311900  0.89339700  0.81639600  1
  C  1380  1  0.88349700  0.88637500  0.82245500  1
  C  1385  1  0.34988500  0.11246100  0.60548500  1
  C  1386  1  0.33638200  0.12197700  0.62868000  1
  C  1387  1  0.35317200  0.13805000  0.64570000  1
  C  1388  1  0.38355500  0.14506000  0.63964300  1
  C  1393  1  0.09886700  0.64245800  0.32996500  1
  C  1394  1  0.08431100  0.62545200  0.34786000  1
  C  1395  1  0.10167600  0.60866900  0.36372700  1
  C  1396  1  0.13374800  0.60867000  0.36177400  1
  C  1401  1  0.59884700  0.38895900  0.13217300  1
  C  1402  1  0.58429800  0.40598000  0.11429100  1
  C  1403  1  0.60166900  0.42277500  0.09844000  1
  C  1404  1  0.63374100  0.42276600  0.10039300  1
  C  1409  1  0.14612800  0.91873600  0.60542000  1
  C  1410  1  0.15958500  0.90930800  0.62866800  1
  C  1411  1  0.14276400  0.89329000  0.64572300  1
  C  1412  1  0.11240600  0.88624100  0.63964100  1
  C  1417  1  0.64606300  0.11264800  0.85675200  1
  C  1418  1  0.65953900  0.12209300  0.83351600  1
  C  1419  1  0.64272200  0.13810800  0.81645600  1
  C  1420  1  0.61234400  0.14513200  0.82251800  1
  C  1425  1  0.89750500  0.64251800  0.13175100  1
  C  1426  1  0.91200810  0.62555800  0.11378200  1
  C  1427  1  0.89460500  0.60875500  0.09797500  1
  C  1428  1  0.86254200  0.60869600  0.10004900  1
  C  1433  1  0.39744000  0.38893600  0.33031000  1
  C  1434  1  0.41195200  0.40590200  0.34825700  1
  C  1435  1  0.39455100  0.42270800  0.36407300  1
  C  1436  1  0.36248800  0.42276200  0.36202100  1
  C  1441  1  0.43275400  0.07583200  0.96788900  1
  C  1442  1  0.43285300  0.07583200  0.99488600  1
  C  1443  1  0.45264000  0.05619900  0.00341100  1
  C  1445  1  0.45229900  0.05607200  0.95921300  1
  C  1446  1  0.45852900  0.05031500  0.93246400  1
  C  1447  1  0.48000400  0.03141400  0.92381500  1
  C  1449  1  0.51599800  0.00031000  0.92376400  1
  C  1450  1  0.50914800  0.00639600  0.89776500  1
  C  1451  1  0.48680500  0.02536500  0.89780000  1
  C  1452  1  0.53749700  0.98140100  0.93235000  1
  C  1453  1  0.54377200  0.97559500  0.95907900  1
  C  1455  1  0.54354300  0.97540800  0.00327600  1
  C  1456  1  0.56328900  0.95577000  0.99468600  1
  C  1457  1  0.56327800  0.95577600  0.96769100  1
  C  1458  1  0.53709700  0.98103300  0.02999800  1
  C  1459  1  0.51592500  0.00010000  0.03872800  1
  C  1461  1  0.48037500  0.03148000  0.03877900  1
  C  1462  1  0.48727400  0.02549200  0.06478600  1
  C  1463  1  0.50909800  0.00606900  0.06475400  1
  C  1464  1  0.45917300  0.05055000  0.03011100  1
  C  1465  1  0.44438500  0.06595800  0.04959100  1
  C  1466  1  0.41625100  0.05813300  0.06031700  1
  C  1467  1  0.40115100  0.07415000  0.07861500  1
  C  1468  1  0.41370300  0.09834800  0.08688400  1
  C  1469  1  0.44193500  0.10594900  0.07582900  1
  C  1470  1  0.45705600  0.09006200  0.05749400  1
  C  1471  1  0.55192900  0.96559600  0.04943000  1
  C  1472  1  0.53931500  0.94145000  0.05728700  1
  C  1473  1  0.55450200  0.92552400  0.07554600  1
  C  1474  1  0.58270800  0.93315300  0.08661600  1
  C  1475  1  0.59519000  0.95740200  0.07841100  1
  C  1476  1  0.58004900  0.97343900  0.06015800  1
  C  1477  1  0.55290400  0.96640500  0.91281200  1
  C  1478  1  0.58399900  0.97066500  0.90735200  1
  C  1479  1  0.59939700  0.95495100  0.88898100  1
  C  1480  1  0.58406000  0.93492000  0.87509200  1
  C  1481  1  0.55286100  0.93085600  0.88066400  1
  C  1482  1  0.53756500  0.94619300  0.89936200  1
  C  1483  1  0.44305600  0.06531800  0.91296800  1
  C  1484  1  0.45834900  0.08554700  0.89949300  1
  C  1485  1  0.41196400  0.06101600  0.90754000  1
  C  1486  1  0.39652700  0.07670300  0.88917100  1
  C  1487  1  0.41182100  0.09674300  0.87524900  1
  C  1488  1  0.44301900  0.10084500  0.88078600  1
  C  1515  1  0.93283610  0.95553800  0.49431700  1
  C  1516  1  0.93293410  0.95551900  0.46732000  1
  C  1517  1  0.95269810  0.97515800  0.45877300  1
  C  1519  1  0.95234610  0.97532900  0.50297200  1
  C  1520  1  0.95859210  0.98108800  0.52971500  1
  C  1521  1  0.98007010  0.99998600  0.53835100  1
  C  1523  1  0.01606900  0.03107900  0.53838800  1
  C  1524  1  0.00921000  0.02500300  0.56438400  1
  C  1525  1  0.98687510  0.00603400  0.56436200  1
  C  1526  1  0.03756600  0.04998600  0.52979200  1
  C  1527  1  0.04387100  0.05574500  0.50305600  1
  C  1529  1  0.04364800  0.05589400  0.45885700  1
  C  1530  1  0.06336700  0.07555100  0.46742600  1
  C  1531  1  0.06340300  0.07553300  0.49442200  1
  C  1532  1  0.03720400  0.05024700  0.43214100  1
  C  1533  1  0.01601900  0.03119300  0.42342300  1
  C  1535  1  0.98046310  0.99982200  0.42338800  1
  C  1536  1  0.98735910  0.00580600  0.39737800  1
  C  1537  1  0.00920100  0.02521600  0.39740000  1
  C  1538  1  0.95924410  0.98077200  0.43206700  1
  C  1539  1  0.94444810  0.96536000  0.41259600  1
  C  1540  1  0.91629410  0.97317300  0.40190500  1
  C  1541  1  0.90119110  0.95716000  0.38361100  1
  C  1542  1  0.91375310  0.93297100  0.37531600  1
  C  1543  1  0.94199510  0.92537400  0.38634800  1
  C  1544  1  0.95713910  0.94127200  0.40465100  1
  C  1545  1  0.05200300  0.06569600  0.41270000  1
  C  1546  1  0.03935000  0.08983200  0.40485100  1
  C  1547  1  0.05450700  0.10577100  0.38658300  1
  C  1548  1  0.08272500  0.09816800  0.37549800  1
  C  1549  1  0.09525200  0.07393700  0.38370700  1
  C  1550  1  0.08013800  0.05788400  0.40196400  1
  C  1551  1  0.05298000  0.06498800  0.54932200  1
  C  1552  1  0.08408400  0.06074800  0.55475900  1
  C  1553  1  0.09947300  0.07646400  0.57312500  1
  C  1554  1  0.08413400  0.09649600  0.58702200  1
  C  1555  1  0.05291900  0.10052700  0.58148800  1
  C  1556  1  0.03763200  0.08519000  0.56278900  1
  C  1557  1  0.94312710  0.96609000  0.54922100  1
  C  1558  1  0.95842610  0.94586500  0.56269600  1
  C  1559  1  0.91202310  0.97037100  0.55463600  1
  C  1560  1  0.89658900  0.95468300  0.57300800  1
  C  1561  1  0.91188910  0.93464800  0.58693000  1
  C  1562  1  0.94309310  0.93055500  0.58139600  1
  C  1589  1  0.18184300  0.25269400  0.67183000  1
  C  1590  1  0.18227500  0.27969000  0.67147500  1
  C  1591  1  0.20237100  0.28828900  0.69083200  1
  C  1593  1  0.20167800  0.24408700  0.69140000  1
  C  1594  1  0.20757600  0.21733600  0.69744100  1
  C  1595  1  0.22949500  0.20861700  0.71588900  1
  C  1597  1  0.26632600  0.20861200  0.74620000  1
  C  1598  1  0.25937600  0.18260000  0.74027000  1
  C  1599  1  0.23643900  0.18260500  0.72182300  1
  C  1600  1  0.28824800  0.21732000  0.76464600  1
  C  1601  1  0.29416800  0.24406400  0.77068600  1
  C  1603  1  0.29346600  0.28826600  0.77128700  1
  C  1604  1  0.31355900  0.27965000  0.79064200  1
  C  1605  1  0.31401700  0.25265300  0.79025200  1
  C  1606  1  0.28689300  0.31500100  0.76579600  1
  C  1607  1  0.26564000  0.32373400  0.74680100  1
  C  1609  1  0.23018400  0.32373900  0.71534700  1
  C  1610  1  0.23698900  0.34975800  0.72137200  1
  C  1611  1  0.25882400  0.34975400  0.74078800  1
  C  1612  1  0.20893500  0.31501700  0.69634900  1
  C  1613  1  0.19379300  0.33445600  0.68113000  1
  C  1614  1  0.16433300  0.34309000  0.68786900  1
  C  1615  1  0.14888200  0.36120300  0.67189800  1
  C  1616  1  0.16241700  0.37142000  0.64887200  1
  C  1617  1  0.19199800  0.36250700  0.64234800  1
  C  1618  1  0.20744900  0.34430100  0.65816000  1
  C  1619  1  0.30202600  0.33443000  0.78103200  1
  C  1620  1  0.28835200  0.34426500  0.80399700  1
  C  1621  1  0.30378500  0.36246400  0.81982200  1
  C  1622  1  0.33333333  0.37135500  0.81333900  1
  C  1623  1  0.34694200  0.36114400  0.79032100  1
  C  1624  1  0.33149800  0.34305500  0.77432400  1
  C  1625  1  0.30585800  0.19794700  0.77791300  1
  C  1626  1  0.33640100  0.19369300  0.77071300  1
  C  1627  1  0.35477800  0.17627500  0.78500200  1
  C  1628  1  0.34349700  0.16221400  0.80695800  1
  C  1629  1  0.31251400  0.16650100  0.81361900  1
  C  1630  1  0.29405600  0.18408700  0.79952800  1
  C  1631  1  0.18996800  0.19797300  0.68416400  1
  C  1632  1  0.20177300  0.18411200  0.66255400  1
  C  1633  1  0.15944200  0.19368400  0.69139600  1
  C  1634  1  0.14107300  0.17626100  0.67711200  1
  C  1635  1  0.15235700  0.16218700  0.65516800  1
  C  1636  1  0.18332500  0.16651300  0.64847800  1
  C  1663  1  0.68171900  0.77874000  0.79025600  1
  C  1664  1  0.68216900  0.75174500  0.79063700  1
  C  1665  1  0.70230700  0.74313600  0.77130600  1
  C  1667  1  0.70161100  0.78733700  0.77071500  1
  C  1668  1  0.70754100  0.81408200  0.76468100  1
  C  1669  1  0.72950100  0.82279400  0.74625900  1
  C  1671  1  0.76635800  0.82279000  0.71596300  1
  C  1672  1  0.75942500  0.84880300  0.72190400  1
  C  1673  1  0.73646700  0.84880500  0.74034000  1
  C  1674  1  0.78828800  0.81407300  0.69751600  1
  C  1675  1  0.79419300  0.78732600  0.69147300  1
  C  1677  1  0.79348200  0.74312700  0.69088400  1
  C  1678  1  0.81356700  0.75173200  0.67151100  1
  C  1679  1  0.81403000  0.77872700  0.67189300  1
  C  1680  1  0.78690800  0.71639700  0.69639200  1
  C  1681  1  0.76564800  0.70767100  0.71538900  1
  C  1683  1  0.73016300  0.70767500  0.74683000  1
  C  1684  1  0.73698800  0.68165200  0.74082400  1
  C  1685  1  0.75883400  0.68165000  0.72141100  1
  C  1686  1  0.70888700  0.71640700  0.76580900  1
  C  1687  1  0.69374300  0.69697500  0.78103400  1
  C  1688  1  0.66430000  0.68832200  0.77428600  1
  C  1689  1  0.64885400  0.67020200  0.79025300  1
  C  1690  1  0.66237800  0.66000000  0.81328700  1
  C  1691  1  0.69194300  0.66892900  0.81981900  1
  C  1692  1  0.70738900  0.68713900  0.80401000  1
  C  1693  1  0.80203600  0.69696400  0.68116000  1
  C  1694  1  0.78837000  0.68714100  0.65819200  1
  C  1695  1  0.80380700  0.66894300  0.64236100  1
  C  1696  1  0.83338800  0.66002000  0.64885900  1
  C  1697  1  0.84693200  0.67020900  0.67188500  1
  C  1698  1  0.83149500  0.68831700  0.68787300  1
  C  1699  1  0.80590500  0.83343800  0.68424300  1
  C  1700  1  0.83645400  0.83766100  0.69142700  1
  C  1701  1  0.85484100  0.85506100  0.67712300  1
  C  1702  1  0.84355200  0.86916400  0.65520100  1
  C  1703  1  0.81256200  0.86491000  0.64856200  1
  C  1704  1  0.79409100  0.84734100  0.66266400  1
  C  1705  1  0.68993100  0.83345300  0.77794800  1
  C  1706  1  0.70172500  0.84730400  0.79956200  1
  C  1707  1  0.65941800  0.83776100  0.77069900  1
  C  1708  1  0.64104700  0.85520600  0.78496300  1
  C  1709  1  0.65230900  0.86925100  0.80692800  1
  C  1710  1  0.68326300  0.86490200  0.81363800  1
  C  1737  1  0.81585800  0.77932000  0.28887900  1
  C  1738  1  0.81531000  0.75231900  0.28932900  1
  C  1739  1  0.79411100  0.74374200  0.27085000  1
  C  1741  1  0.79491600  0.78794600  0.27019200  1
  C  1742  1  0.78874300  0.81468400  0.26431500  1
  C  1743  1  0.76674200  0.82344100  0.24597500  1
  C  1745  1  0.72995800  0.82346400  0.21565200  1
  C  1746  1  0.73694200  0.84947700  0.22154200  1
  C  1747  1  0.75974800  0.84946300  0.24012200  1
  C  1748  1  0.70794800  0.81473500  0.19731000  1
  C  1749  1  0.70175700  0.78801100  0.19140300  1
  C  1751  1  0.70249500  0.74380400  0.19072600  1
  C  1752  1  0.68132600  0.75242100  0.17223800  1
  C  1753  1  0.68081500  0.77942200  0.17270100  1
  C  1754  1  0.70934100  0.71707700  0.19601300  1
  C  1755  1  0.73061500  0.70833100  0.21499000  1
  C  1757  1  0.76590500  0.70831000  0.24660500  1
  C  1758  1  0.75903000  0.68229600  0.24061600  1
  C  1759  1  0.73743800  0.68230800  0.22099600  1
  C  1760  1  0.78720200  0.71702800  0.26557200  1
  C  1761  1  0.80206800  0.69760200  0.28099600  1
  C  1762  1  0.83002400  0.68662800  0.27302700  1
  C  1763  1  0.84523400  0.66847300  0.28913300  1
  C  1764  1  0.83295600  0.66057000  0.31355600  1
  C  1765  1  0.80490300  0.67185800  0.32130200  1
  C  1766  1  0.78970200  0.69008500  0.30534500  1
  C  1767  1  0.69441600  0.69767200  0.18060300  1
  C  1768  1  0.70669600  0.69017600  0.15621700  1
  C  1769  1  0.69142700  0.67197700  0.14028100  1
  C  1770  1  0.66343000  0.66064400  0.14811200  1
  C  1771  1  0.65125200  0.66851400  0.17258200  1
  C  1772  1  0.66650500  0.68667200  0.18865000  1
  C  1773  1  0.69059900  0.83412300  0.18388800  1
  C  1774  1  0.66153000  0.84120000  0.19315800  1
  C  1775  1  0.64301300  0.85832300  0.17863100  1
  C  1776  1  0.65278400  0.86885400  0.15434900  1
  C  1777  1  0.68244400  0.86221900  0.14571500  1
  C  1778  1  0.70101400  0.84499100  0.16012300  1
  C  1779  1  0.80606600  0.83404900  0.27778700  1
  C  1780  1  0.79562900  0.84484100  0.30157900  1
  C  1781  1  0.83512200  0.84118800  0.26854000  1
  C  1782  1  0.85360500  0.85829700  0.28310800  1
  C  1783  1  0.84381600  0.86874400  0.30742100  1
  C  1784  1  0.81416000  0.86205800  0.31602900  1
  C  1811  1  0.31582100  0.25205700  0.17323900  1
  C  1812  1  0.31524900  0.27905800  0.17275600  1
  C  1813  1  0.29406400  0.28764700  0.19124800  1
  C  1815  1  0.29487200  0.24344500  0.19193300  1
  C  1816  1  0.28868200  0.21671300  0.19781400  1
  C  1817  1  0.26666700  0.20796200  0.21615200  1
  C  1819  1  0.22986100  0.20795000  0.24646300  1
  C  1820  1  0.23685900  0.18193500  0.24058900  1
  C  1821  1  0.25967200  0.18194200  0.22200600  1
  C  1822  1  0.20783500  0.21668800  0.26479700  1
  C  1823  1  0.20162800  0.24341500  0.27068300  1
  C  1825  1  0.20236700  0.28761800  0.27133800  1
  C  1826  1  0.18119700  0.27901500  0.28983800  1
  C  1827  1  0.18067000  0.25201400  0.28937400  1
  C  1828  1  0.20922100  0.31434000  0.26604000  1
  C  1829  1  0.23052000  0.32307900  0.24707600  1
  C  1831  1  0.26584700  0.32309100  0.21548300  1
  C  1832  1  0.25898300  0.34910800  0.22147700  1
  C  1833  1  0.23734800  0.34910100  0.24107000  1
  C  1834  1  0.28715300  0.31436300  0.19651900  1
  C  1835  1  0.30203600  0.33378200  0.18109400  1
  C  1836  1  0.32998100  0.34475100  0.18907800  1
  C  1837  1  0.34519500  0.36292000  0.17298700  1
  C  1838  1  0.33293100  0.37083500  0.14856500  1
  C  1839  1  0.30489600  0.35953900  0.14080200  1
  C  1840  1  0.28967100  0.34132400  0.15675800  1
  C  1841  1  0.19431200  0.33374900  0.28145600  1
  C  1842  1  0.20659900  0.34123900  0.30583600  1
  C  1843  1  0.19134600  0.35945400  0.32177000  1
  C  1844  1  0.16336000  0.37080500  0.31394500  1
  C  1845  1  0.15116600  0.36293200  0.28948500  1
  C  1846  1  0.16640800  0.34476100  0.27341700  1
  C  1847  1  0.19049100  0.19730500  0.27823000  1
  C  1848  1  0.16143500  0.19020700  0.26896400  1
  C  1849  1  0.14294300  0.17306200  0.28348700  1
  C  1850  1  0.15272300  0.16254100  0.30776900  1
  C  1851  1  0.18237900  0.16918100  0.31639100  1
  C  1852  1  0.20092100  0.18643800  0.30198700  1
  C  1853  1  0.30601000  0.19734200  0.18435300  1
  C  1854  1  0.29559300  0.18655500  0.16055700  1
  C  1855  1  0.33505800  0.19019700  0.19361100  1
  C  1856  1  0.35353800  0.17306200  0.17906100  1
  C  1857  1  0.34376700  0.16261800  0.15474800  1
  C  1858  1  0.31413300  0.16933000  0.14611700  1
  C  1885  1  0.93016110  0.57357500  0.46723100  1
  C  1886  1  0.93024910  0.57367800  0.49423100  1
  C  1887  1  0.95199110  0.55567800  0.50285000  1
  C  1889  1  0.95179610  0.55546600  0.45863100  1
  C  1890  1  0.95816010  0.54973900  0.43189900  1
  C  1891  1  0.97995610  0.53120000  0.42316600  1
  C  1893  1  0.01610100  0.50029700  0.42319500  1
  C  1894  1  0.00925100  0.50626500  0.39717600  1
  C  1895  1  0.98687010  0.52523700  0.39715800  1
  C  1896  1  0.03787700  0.48175800  0.43195800  1
  C  1897  1  0.04418200  0.47602700  0.45869900  1
  C  1899  1  0.04390200  0.47581900  0.50291800  1
  C  1900  1  0.06565600  0.45781400  0.49432600  1
  C  1901  1  0.06578700  0.45790600  0.46732800  1
  C  1902  1  0.03734700  0.48138400  0.52964800  1
  C  1903  1  0.01578500  0.50013300  0.53836500  1
  C  1905  1  0.98003610  0.53136200  0.53833900  1
  C  1906  1  0.98687210  0.52538600  0.56435700  1
  C  1907  1  0.00889400  0.50611300  0.56437500  1
  C  1908  1  0.95849210  0.55011100  0.52958900  1
  C  1909  1  0.94147310  0.56384500  0.54898100  1
  C  1910  1  0.91437610  0.55300700  0.55901700  1
  C  1911  1  0.89603200  0.56746400  0.57633900  1
  C  1912  1  0.90398910  0.59323400  0.58409100  1
  C  1913  1  0.93173110  0.60356900  0.57444000  1
  C  1914  1  0.95013010  0.58920200  0.55704300  1
  C  1915  1  0.05433700  0.46765600  0.54906300  1
  C  1916  1  0.04568900  0.44228500  0.55710400  1
  C  1917  1  0.06405600  0.42792400  0.57452800  1
  C  1918  1  0.09178900  0.43825900  0.58418300  1
  C  1919  1  0.09973700  0.46403900  0.57645400  1
  C  1920  1  0.08140000  0.47850700  0.55913800  1
  C  1921  1  0.05523200  0.46828800  0.41259900  1
  C  1922  1  0.08427700  0.47755300  0.40543700  1
  C  1923  1  0.10282300  0.46293800  0.38840900  1
  C  1924  1  0.09309100  0.43857800  0.37804300  1
  C  1925  1  0.06344600  0.42995200  0.38472300  1
  C  1926  1  0.04487500  0.44442700  0.40190000  1
  C  1927  1  0.94084810  0.56321100  0.41251300  1
  C  1928  1  0.95120910  0.58708800  0.40184600  1
  C  1929  1  0.91186010  0.55389800  0.40525800  1
  C  1930  1  0.89335400  0.56850000  0.38819200  1
  C  1931  1  0.90308010  0.59288200  0.37785700  1
  C  1932  1  0.93266510  0.60156200  0.38465100  1
  C  1959  1  0.43015500  0.45785900  0.99498200  1
  C  1960  1  0.43023700  0.45774000  0.96798300  1
  C  1961  1  0.45198100  0.47572600  0.95934100  1
  C  1963  1  0.45179200  0.47596900  0.00355900  1
  C  1964  1  0.45816000  0.48171500  0.03028700  1
  C  1965  1  0.47997300  0.50023800  0.03900200  1
  C  1967  1  0.51613900  0.53111600  0.03895700  1
  C  1968  1  0.50929100  0.52515100  0.06497900  1
  C  1969  1  0.48690100  0.50619500  0.06500800  1
  C  1970  1  0.53792000  0.54964900  0.03018100  1
  C  1971  1  0.54419500  0.55537700  0.00343100  1
  C  1973  1  0.54388100  0.55557600  0.95921300  1
  C  1974  1  0.56562500  0.57359200  0.96778100  1
  C  1975  1  0.56577500  0.57350600  0.99478000  1
  C  1976  1  0.53732000  0.54999300  0.93249000  1
  C  1977  1  0.51577100  0.53123500  0.92378500  1
  C  1979  1  0.48003200  0.50000300  0.92383100  1
  C  1980  1  0.48687800  0.50596400  0.89780800  1
  C  1981  1  0.50889300  0.52523900  0.89778000  1
  C  1982  1  0.45849000  0.48125900  0.93259400  1
  C  1983  1  0.44146200  0.46752000  0.91321400  1
  C  1984  1  0.41437100  0.47836200  0.90317200  1
  C  1985  1  0.39602600  0.46390100  0.88586300  1
  C  1986  1  0.40398400  0.43812700  0.87811200  1
  C  1987  1  0.43172700  0.42779400  0.88775800  1
  C  1988  1  0.45012100  0.44216100  0.90515100  1
  C  1989  1  0.55430200  0.56371400  0.91306200  1
  C  1990  1  0.54563400  0.58907500  0.90500600  1
  C  1991  1  0.56402100  0.60345000  0.88760400  1
  C  1992  1  0.59176300  0.59311900  0.87794600  1
  C  1993  1  0.59972200  0.56734100  0.88567700  1
  C  1994  1  0.58139000  0.55287700  0.90300300  1
  C  1995  1  0.55527300  0.56313100  0.04952700  1
  C  1996  1  0.58433800  0.55388700  0.05665400  1
  C  1997  1  0.60289300  0.56851800  0.07365100  1
  C  1998  1  0.59314300  0.59286500  0.08404600  1
  C  1999  1  0.56348000  0.60147000  0.07739800  1
  C  2000  1  0.54488600  0.58696700  0.06027100  1
  C  2001  1  0.44085900  0.46824700  0.04968300  1
  C  2002  1  0.45122300  0.44436600  0.06034100  1
  C  2003  1  0.41186900  0.47756300  0.05694800  1
  C  2004  1  0.39336200  0.46295900  0.07401800  1
  C  2005  1  0.40308100  0.43856500  0.08432700  1
  C  2006  1  0.43266500  0.42987900  0.07752000  1
  C  2033  1  0.39787500  0.11469600  0.10509500  1
  C  2034  1  0.41249000  0.13239500  0.12225400  1
  C  2035  1  0.39517400  0.14826100  0.13907400  1
  C  2036  1  0.36308600  0.14649100  0.13897300  1
  C  2041  1  0.89792300  0.91662800  0.35710300  1
  C  2042  1  0.91253710  0.89892600  0.33993500  1
  C  2043  1  0.89522300  0.88307000  0.32311200  1
  C  2044  1  0.86313500  0.88484600  0.32321800  1
  C  2049  1  0.14629600  0.38944600  0.63255900  1
  C  2050  1  0.16065800  0.40872100  0.61701100  1
  C  2051  1  0.14315200  0.42530800  0.60105400  1
  C  2052  1  0.11114000  0.42278400  0.60054800  1
  C  2057  1  0.64626100  0.64196600  0.82959500  1
  C  2058  1  0.66063000  0.62269200  0.84513700  1
  C  2059  1  0.64312400  0.60609100  0.86108500  1
  C  2060  1  0.61110900  0.60859800  0.86158000  1
  C  2065  1  0.09857100  0.11455000  0.35732500  1
  C  2066  1  0.08397500  0.13232900  0.34022700  1
  C  2067  1  0.10130700  0.14822300  0.32344500  1
  C  2068  1  0.13339100  0.14639900  0.32351700  1
  C  2073  1  0.59857500  0.91679100  0.10479300  1
  C  2074  1  0.58400100  0.89900300  0.12189900  1
  C  2075  1  0.60135200  0.88313000  0.13868300  1
  C  2076  1  0.63343300  0.88497900  0.13860200  1
  C  2081  1  0.34950300  0.38935200  0.82968300  1
  C  2082  1  0.33513300  0.40861900  0.84523700  1
  C  2083  1  0.35263000  0.42519300  0.86121200  1
  C  2084  1  0.38464400  0.42266800  0.86172600  1
  C  2089  1  0.84950200  0.64201200  0.63252300  1
  C  2090  1  0.83513100  0.62276000  0.61696200  1
  C  2091  1  0.85263000  0.60618300  0.60098500  1
  C  2092  1  0.88464500  0.60869100  0.60047900  1
  C  2097  1  0.59980400  0.91896500  0.85662000  1
  C  2098  1  0.58631000  0.90946600  0.83342200  1
  C  2099  1  0.60310700  0.89339700  0.81639600  1
  C  2100  1  0.63348500  0.88637500  0.82245500  1
  C  2105  1  0.09987300  0.11246100  0.60548500  1
  C  2106  1  0.08637000  0.12197700  0.62868000  1
  C  2107  1  0.10316000  0.13805000  0.64570000  1
  C  2108  1  0.13354300  0.14506000  0.63964300  1
  C  2113  1  0.84885500  0.64245800  0.32996500  1
  C  2114  1  0.83429900  0.62545200  0.34786000  1
  C  2115  1  0.85166400  0.60866900  0.36372700  1
  C  2116  1  0.88373600  0.60867000  0.36177400  1
  C  2121  1  0.34883500  0.38895900  0.13217300  1
  C  2122  1  0.33428600  0.40598000  0.11429100  1
  C  2123  1  0.35165700  0.42277500  0.09844000  1
  C  2124  1  0.38372900  0.42276600  0.10039300  1
  C  2129  1  0.89611600  0.91873600  0.60542000  1
  C  2130  1  0.90957310  0.90930800  0.62866800  1
  C  2131  1  0.89275200  0.89329000  0.64572300  1
  C  2132  1  0.86239400  0.88624100  0.63964100  1
  C  2137  1  0.39605100  0.11264800  0.85675200  1
  C  2138  1  0.40952700  0.12209300  0.83351600  1
  C  2139  1  0.39271000  0.13810800  0.81645600  1
  C  2140  1  0.36233200  0.14513200  0.82251800  1
  C  2145  1  0.64749300  0.64251800  0.13175100  1
  C  2146  1  0.66199600  0.62555800  0.11378200  1
  C  2147  1  0.64459300  0.60875500  0.09797500  1
  C  2148  1  0.61253000  0.60869600  0.10004900  1
  C  2153  1  0.14742800  0.38893600  0.33031000  1
  C  2154  1  0.16194000  0.40590200  0.34825700  1
  C  2155  1  0.14453900  0.42270800  0.36407300  1
  C  2156  1  0.11247600  0.42276200  0.36202100  1
  N  4  1  0.96346400  0.04482900  0.98128400  1
  N  8  1  0.99803900  0.01584900  0.93858400  1
  N  14  1  0.03273000  0.98682200  0.98118600  1
  N  20  1  0.99815300  0.01579600  0.02393900  1
  N  78  1  0.46349800  0.98656200  0.48088900  1
  N  82  1  0.49811100  0.01553800  0.52357500  1
  N  88  1  0.53284900  0.04448700  0.48095900  1
  N  94  1  0.49824200  0.01550400  0.43822000  1
  N  152  1  0.71336400  0.26619200  0.70215700  1
  N  156  1  0.74793600  0.22341500  0.73104300  1
  N  162  1  0.78253800  0.26618100  0.75993700  1
  N  168  1  0.74794000  0.30893000  0.73107100  1
  N  226  1  0.21330900  0.76522400  0.75997400  1
  N  230  1  0.24794900  0.80799100  0.73110800  1
  N  236  1  0.28256200  0.76521700  0.70223700  1
  N  242  1  0.24792400  0.72248000  0.73110100  1
  N  300  1  0.28266900  0.76585100  0.25994000  1
  N  304  1  0.24837800  0.80865300  0.23080200  1
  N  310  1  0.21402200  0.76589100  0.20164300  1
  N  316  1  0.24829900  0.72311900  0.23079200  1
  N  374  1  0.78262600  0.26554600  0.20218000  1
  N  378  1  0.74828800  0.22275700  0.23131200  1
  N  384  1  0.71388900  0.26552400  0.26042200  1
  N  390  1  0.74821800  0.30828800  0.23128300  1
  N  448  1  0.46431600  0.54544500  0.48074600  1
  N  452  1  0.49803300  0.51574600  0.43797900  1
  N  458  1  0.53166900  0.48605200  0.48079900  1
  N  464  1  0.49794900  0.51574600  0.52355200  1
  N  522  1  0.96431100  0.48597100  0.98143200  1
  N  526  1  0.99805900  0.51567800  0.02418200  1
  N  532  1  0.03168000  0.54533800  0.98134500  1
  N  538  1  0.99793500  0.51562900  0.93860800  1
  N  597  1  0.85084800  0.12889700  0.12194500  1
  N  600  1  0.86697900  0.11410000  0.10627800  1
  N  605  1  0.35089700  0.90244600  0.34024800  1
  N  608  1  0.36702700  0.91723400  0.35591900  1
  N  613  1  0.59913800  0.40378000  0.61613300  1
  N  616  1  0.61543900  0.38835400  0.63104600  1
  N  621  1  0.09910300  0.62760400  0.84600400  1
  N  624  1  0.11540200  0.64304400  0.83110200  1
  N  629  1  0.64565800  0.12873200  0.34048500  1
  N  632  1  0.62951200  0.11391000  0.35612100  1
  N  637  1  0.14567800  0.90265200  0.12162600  1
  N  640  1  0.12951400  0.91745600  0.10599000  1
  N  645  1  0.89670000  0.40367100  0.84613700  1
  N  648  1  0.88040700  0.38825900  0.83120900  1
  N  653  1  0.39670100  0.62767600  0.61607200  1
  N  656  1  0.38040700  0.64309300  0.63100100  1
  N  661  1  0.14462100  0.89677300  0.84511500  1
  N  664  1  0.12920500  0.91191700  0.86097400  1
  N  669  1  0.64469000  0.13464500  0.61698700  1
  N  672  1  0.62928000  0.11949800  0.60113500  1
  N  677  1  0.39597200  0.62557100  0.34402300  1
  N  680  1  0.37979100  0.64119400  0.32921300  1
  N  685  1  0.89595800  0.40585200  0.11813300  1
  N  688  1  0.87977000  0.39022100  0.13293000  1
  N  693  1  0.35133500  0.89657400  0.61693400  1
  N  696  1  0.36677500  0.91167500  0.60105000  1
  N  701  1  0.85125800  0.13478400  0.84521500  1
  N  704  1  0.86669300  0.11968700  0.86110600  1
  N  709  1  0.10039400  0.62555000  0.11786800  1
  N  712  1  0.11661100  0.64119000  0.13262500  1
  N  717  1  0.60033100  0.40589800  0.34422200  1
  N  720  1  0.61654800  0.39025500  0.32945900  1
  N  724  1  0.71345200  0.04482900  0.98128400  1
  N  728  1  0.74802700  0.01584900  0.93858400  1
  N  734  1  0.78271800  0.98682200  0.98118600  1
  N  740  1  0.74814100  0.01579600  0.02393900  1
  N  798  1  0.21348600  0.98656200  0.48088900  1
  N  802  1  0.24809900  0.01553800  0.52357500  1
  N  808  1  0.28283700  0.04448700  0.48095900  1
  N  814  1  0.24823000  0.01550400  0.43822000  1
  N  872  1  0.46335200  0.26619200  0.70215700  1
  N  876  1  0.49792400  0.22341500  0.73104300  1
  N  882  1  0.53252600  0.26618100  0.75993700  1
  N  888  1  0.49792800  0.30893000  0.73107100  1
  N  946  1  0.96329710  0.76522400  0.75997400  1
  N  950  1  0.99793707  0.80799100  0.73110800  1
  N  956  1  0.03255000  0.76521700  0.70223700  1
  N  962  1  0.99791207  0.72248000  0.73110100  1
  N  1020  1  0.03265700  0.76585100  0.25994000  1
  N  1024  1  0.99836607  0.80865300  0.23080200  1
  N  1030  1  0.96401010  0.76589100  0.20164300  1
  N  1036  1  0.99828707  0.72311900  0.23079200  1
  N  1094  1  0.53261400  0.26554600  0.20218000  1
  N  1098  1  0.49827600  0.22275700  0.23131200  1
  N  1104  1  0.46387700  0.26552400  0.26042200  1
  N  1110  1  0.49820600  0.30828800  0.23128300  1
  N  1168  1  0.21430400  0.54544500  0.48074600  1
  N  1172  1  0.24802100  0.51574600  0.43797900  1
  N  1178  1  0.28165700  0.48605200  0.48079900  1
  N  1184  1  0.24793700  0.51574600  0.52355200  1
  N  1242  1  0.71429900  0.48597100  0.98143200  1
  N  1246  1  0.74804700  0.51567800  0.02418200  1
  N  1252  1  0.78166800  0.54533800  0.98134500  1
  N  1258  1  0.74792300  0.51562900  0.93860800  1
  N  1317  1  0.60083600  0.12889700  0.12194500  1
  N  1320  1  0.61696700  0.11410000  0.10627800  1
  N  1325  1  0.10088500  0.90244600  0.34024800  1
  N  1328  1  0.11701500  0.91723400  0.35591900  1
  N  1333  1  0.34912600  0.40378000  0.61613300  1
  N  1336  1  0.36542700  0.38835400  0.63104600  1
  N  1341  1  0.84909100  0.62760400  0.84600400  1
  N  1344  1  0.86539000  0.64304400  0.83110200  1
  N  1349  1  0.39564600  0.12873200  0.34048500  1
  N  1352  1  0.37950000  0.11391000  0.35612100  1
  N  1357  1  0.89566600  0.90265200  0.12162600  1
  N  1360  1  0.87950200  0.91745600  0.10599000  1
  N  1365  1  0.64668800  0.40367100  0.84613700  1
  N  1368  1  0.63039500  0.38825900  0.83120900  1
  N  1373  1  0.14668900  0.62767600  0.61607200  1
  N  1376  1  0.13039500  0.64309300  0.63100100  1
  N  1381  1  0.89460900  0.89677300  0.84511500  1
  N  1384  1  0.87919300  0.91191700  0.86097400  1
  N  1389  1  0.39467800  0.13464500  0.61698700  1
  N  1392  1  0.37926800  0.11949800  0.60113500  1
  N  1397  1  0.14596000  0.62557100  0.34402300  1
  N  1400  1  0.12977900  0.64119400  0.32921300  1
  N  1405  1  0.64594600  0.40585200  0.11813300  1
  N  1408  1  0.62975800  0.39022100  0.13293000  1
  N  1413  1  0.10132300  0.89657400  0.61693400  1
  N  1416  1  0.11676300  0.91167500  0.60105000  1
  N  1421  1  0.60124600  0.13478400  0.84521500  1
  N  1424  1  0.61668100  0.11968700  0.86110600  1
  N  1429  1  0.85038200  0.62555000  0.11786800  1
  N  1432  1  0.86659900  0.64119000  0.13262500  1
  N  1437  1  0.35031900  0.40589800  0.34422200  1
  N  1440  1  0.36653600  0.39025500  0.32945900  1
  N  1444  1  0.46344000  0.04482900  0.98128400  1
  N  1448  1  0.49801500  0.01584900  0.93858400  1
  N  1454  1  0.53270600  0.98682200  0.98118600  1
  N  1460  1  0.49812900  0.01579600  0.02393900  1
  N  1518  1  0.96347410  0.98656200  0.48088900  1
  N  1522  1  0.99808714  0.01553800  0.52357500  1
  N  1528  1  0.03282500  0.04448700  0.48095900  1
  N  1534  1  0.99821814  0.01550400  0.43822000  1
  N  1592  1  0.21334000  0.26619200  0.70215700  1
  N  1596  1  0.24791200  0.22341500  0.73104300  1
  N  1602  1  0.28251400  0.26618100  0.75993700  1
  N  1608  1  0.24791600  0.30893000  0.73107100  1
  N  1666  1  0.71328500  0.76522400  0.75997400  1
  N  1670  1  0.74792500  0.80799100  0.73110800  1
  N  1676  1  0.78253800  0.76521700  0.70223700  1
  N  1682  1  0.74790000  0.72248000  0.73110100  1
  N  1740  1  0.78264500  0.76585100  0.25994000  1
  N  1744  1  0.74835400  0.80865300  0.23080200  1
  N  1750  1  0.71399800  0.76589100  0.20164300  1
  N  1756  1  0.74827500  0.72311900  0.23079200  1
  N  1814  1  0.28260200  0.26554600  0.20218000  1
  N  1818  1  0.24826400  0.22275700  0.23131200  1
  N  1824  1  0.21386500  0.26552400  0.26042200  1
  N  1830  1  0.24819400  0.30828800  0.23128300  1
  N  1888  1  0.96429210  0.54544500  0.48074600  1
  N  1892  1  0.99800914  0.51574600  0.43797900  1
  N  1898  1  0.03164500  0.48605200  0.48079900  1
  N  1904  1  0.99792514  0.51574600  0.52355200  1
  N  1962  1  0.46428700  0.48597100  0.98143200  1
  N  1966  1  0.49803500  0.51567800  0.02418200  1
  N  1972  1  0.53165600  0.54533800  0.98134500  1
  N  1978  1  0.49791100  0.51562900  0.93860800  1
  N  2037  1  0.35082400  0.12889700  0.12194500  1
  N  2040  1  0.36695500  0.11410000  0.10627800  1
  N  2045  1  0.85087300  0.90244600  0.34024800  1
  N  2048  1  0.86700300  0.91723400  0.35591900  1
  N  2053  1  0.09911400  0.40378000  0.61613300  1
  N  2056  1  0.11541500  0.38835400  0.63104600  1
  N  2061  1  0.59907900  0.62760400  0.84600400  1
  N  2064  1  0.61537800  0.64304400  0.83110200  1
  N  2069  1  0.14563400  0.12873200  0.34048500  1
  N  2072  1  0.12948800  0.11391000  0.35612100  1
  N  2077  1  0.64565400  0.90265200  0.12162600  1
  N  2080  1  0.62949000  0.91745600  0.10599000  1
  N  2085  1  0.39667600  0.40367100  0.84613700  1
  N  2088  1  0.38038300  0.38825900  0.83120900  1
  N  2093  1  0.89667700  0.62767600  0.61607200  1
  N  2096  1  0.88038300  0.64309300  0.63100100  1
  N  2101  1  0.64459700  0.89677300  0.84511500  1
  N  2104  1  0.62918100  0.91191700  0.86097400  1
  N  2109  1  0.14466600  0.13464500  0.61698700  1
  N  2112  1  0.12925600  0.11949800  0.60113500  1
  N  2117  1  0.89594800  0.62557100  0.34402300  1
  N  2120  1  0.87976700  0.64119400  0.32921300  1
  N  2125  1  0.39593400  0.40585200  0.11813300  1
  N  2128  1  0.37974600  0.39022100  0.13293000  1
  N  2133  1  0.85131100  0.89657400  0.61693400  1
  N  2136  1  0.86675100  0.91167500  0.60105000  1
  N  2141  1  0.35123400  0.13478400  0.84521500  1
  N  2144  1  0.36666900  0.11968700  0.86110600  1
  N  2149  1  0.60037000  0.62555000  0.11786800  1
  N  2152  1  0.61658700  0.64119000  0.13262500  1
  N  2157  1  0.10030700  0.40589800  0.34422200  1
  N  2160  1  0.11652400  0.39025500  0.32945900  1
