# generated using pymatgen
data_H9C13(N2O)2
_symmetry_space_group_name_H-M   'P 1'
_cell_length_a   31.64710000
_cell_length_b   38.75980000
_cell_length_c   38.75980000
_cell_angle_alpha   90.00000000
_cell_angle_beta   90.00000000
_cell_angle_gamma   90.00000000
_symmetry_Int_Tables_number   1
_chemical_formula_structural   H9C13(N2O)2
_chemical_formula_sum   'H288 C416 N128 O64'
_cell_volume   47544.13760559
_cell_formula_units_Z   32
loop_
 _symmetry_equiv_pos_site_id
 _symmetry_equiv_pos_as_xyz
  1  'x, y, z'
loop_
 _atom_site_type_symbol
 _atom_site_label
 _atom_site_symmetry_multiplicity
 _atom_site_fract_x
 _atom_site_fract_y
 _atom_site_fract_z
 _atom_site_occupancy
  H  7  1  0.05950100  0.96750900  0.98276900  1
  H  16  1  0.93998900  0.02969900  0.01995700  1
  H  17  1  0.14489600  0.06965800  0.02195200  1
  H  18  1  0.85693600  0.92891700  0.97568700  1
  H  19  1  0.99945400  0.05010500  0.03490000  1
  H  20  1  0.00114100  0.95366200  0.95941000  1
  H  31  1  0.55949900  0.53190500  0.01664500  1
  H  40  1  0.43999000  0.46971400  0.97945700  1
  H  41  1  0.64489700  0.42975500  0.97746000  1
  H  42  1  0.35693700  0.57049400  0.02372600  1
  H  43  1  0.49945200  0.44930900  0.96451300  1
  H  44  1  0.50114000  0.54574900  0.04000300  1
  H  55  1  0.30932700  0.26695500  0.71724700  1
  H  64  1  0.19012800  0.22863700  0.77904500  1
  H  65  1  0.39513000  0.22776700  0.81926200  1
  H  66  1  0.10714000  0.27342300  0.67851800  1
  H  67  1  0.24967000  0.21486900  0.80006200  1
  H  68  1  0.25087600  0.29125100  0.70451700  1
  H  79  1  0.80932600  0.23246000  0.28216600  1
  H  88  1  0.69012700  0.27077600  0.22036700  1
  H  89  1  0.89512900  0.27164800  0.18015200  1
  H  90  1  0.60714000  0.22599100  0.32089500  1
  H  91  1  0.74966800  0.28454500  0.19935100  1
  H  92  1  0.75087500  0.20816200  0.29489600  1
  H  103  1  0.94250100  0.53302500  0.98087100  1
  H  112  1  0.05830100  0.47171900  0.02448300  1
  H  113  1  0.84637200  0.44841100  0.02967100  1
  H  114  1  0.14653900  0.52167500  0.93598600  1
  H  115  1  0.99810200  0.45205900  0.03874800  1
  H  116  1  0.99992400  0.53937900  0.95290300  1
  H  127  1  0.44250200  0.96638600  0.01854400  1
  H  136  1  0.55830100  0.02769500  0.97492900  1
  H  137  1  0.34637300  0.05100300  0.96974300  1
  H  138  1  0.64653700  0.97773800  0.06342600  1
  H  139  1  0.49810300  0.04735500  0.96066400  1
  H  140  1  0.49992300  0.96003500  0.04650900  1
  H  151  1  0.69280700  0.23047300  0.71621500  1
  H  160  1  0.80834300  0.27479000  0.77710200  1
  H  161  1  0.59647500  0.27935900  0.80077700  1
  H  162  1  0.89681900  0.18574000  0.72833500  1
  H  163  1  0.74811000  0.28838400  0.79727500  1
  H  164  1  0.75015200  0.20199400  0.71068600  1
  H  175  1  0.19280600  0.26894100  0.28319800  1
  H  184  1  0.30834300  0.22462300  0.22231100  1
  H  185  1  0.09647500  0.22005300  0.19863800  1
  H  186  1  0.39682000  0.31367300  0.27107800  1
  H  187  1  0.24811000  0.21102900  0.20213700  1
  H  188  1  0.25015300  0.29741900  0.28872700  1
  H  199  1  0.68972600  0.73158600  0.28119100  1
  H  208  1  0.80912100  0.76968500  0.21915400  1
  H  209  1  0.60454900  0.77139600  0.17923100  1
  H  210  1  0.89258200  0.72603400  0.32009200  1
  H  211  1  0.74954200  0.78640100  0.20027800  1
  H  212  1  0.74841400  0.70956900  0.29576600  1
  H  223  1  0.18972500  0.76782500  0.71822200  1
  H  232  1  0.30912000  0.72972600  0.78026000  1
  H  233  1  0.10455100  0.72801800  0.82018300  1
  H  234  1  0.39258300  0.77337700  0.67932100  1
  H  235  1  0.24954200  0.71301300  0.79913600  1
  H  236  1  0.24841300  0.78984500  0.70364700  1
  H  247  1  0.30683000  0.76953800  0.28287100  1
  H  256  1  0.19112500  0.72515900  0.22173100  1
  H  257  1  0.40290900  0.71961500  0.19874000  1
  H  258  1  0.10256200  0.81340800  0.27167600  1
  H  259  1  0.25138500  0.70966700  0.20333500  1
  H  260  1  0.24907200  0.79659400  0.28978000  1
  H  271  1  0.80683000  0.72987300  0.71654200  1
  H  280  1  0.69112600  0.77425400  0.77768300  1
  H  281  1  0.90291100  0.77979600  0.80067300  1
  H  282  1  0.60256100  0.68600300  0.72773700  1
  H  283  1  0.75138400  0.78974700  0.79607800  1
  H  284  1  0.74907100  0.70281900  0.70963300  1
  H  295  1  0.55928100  0.46788200  0.48161300  1
  H  304  1  0.44017700  0.52959100  0.52073100  1
  H  305  1  0.64489400  0.56979200  0.52118200  1
  H  306  1  0.35683200  0.42893700  0.47640900  1
  H  307  1  0.49988800  0.54915200  0.53621100  1
  H  308  1  0.50054900  0.45456700  0.45846800  1
  H  319  1  0.05928200  0.03153200  0.51780000  1
  H  328  1  0.94017900  0.96982000  0.47868200  1
  H  329  1  0.14489500  0.92962200  0.47823100  1
  H  330  1  0.85683100  0.07047600  0.52300400  1
  H  331  1  0.99989000  0.95026100  0.46320200  1
  H  332  1  0.00054900  0.04484600  0.54094500  1
  H  343  1  0.44267600  0.03270700  0.48002400  1
  H  352  1  0.55812100  0.97201600  0.52509400  1
  H  353  1  0.34629100  0.94872900  0.52991100  1
  H  354  1  0.64690000  0.02068000  0.43619700  1
  H  355  1  0.49782200  0.95291100  0.53972500  1
  H  356  1  0.50032400  0.03863700  0.45228600  1
  H  367  1  0.94267800  0.46670600  0.51938900  1
  H  376  1  0.05812100  0.52739800  0.47431900  1
  H  377  1  0.84629000  0.55068200  0.46950200  1
  H  378  1  0.14690000  0.47873400  0.56321600  1
  H  379  1  0.99782400  0.54650000  0.45968800  1
  H  380  1  0.00032400  0.46077700  0.54712700  1
  H  391  1  0.75565600  0.96026900  0.03078100  1
  H  394  1  0.72719800  0.13029300  0.98228400  1
  H  395  1  0.75342500  0.10875000  0.01630200  1
  H  396  1  0.69845300  0.10174800  0.00892300  1
  H  398  1  0.65996300  0.05529100  0.96851500  1
  H  400  1  0.83154300  0.96637100  0.02476100  1
  H  407  1  0.25565800  0.53914400  0.96863100  1
  H  410  1  0.22719800  0.36912000  0.01712700  1
  H  411  1  0.25342600  0.39066300  0.98311000  1
  H  412  1  0.19845300  0.39766500  0.99048900  1
  H  414  1  0.15996400  0.44412300  0.03089800  1
  H  416  1  0.33154400  0.53304300  0.97465300  1
  H  423  1  0.00554700  0.21827600  0.70983400  1
  H  426  1  0.97759800  0.26725700  0.87975800  1
  H  427  1  0.00361700  0.23310100  0.85826900  1
  H  428  1  0.94868200  0.24067600  0.85127500  1
  H  430  1  0.91051400  0.28131200  0.80476300  1
  H  432  1  0.08151400  0.22403400  0.71585900  1
  H  439  1  0.50554800  0.28113700  0.28957900  1
  H  442  1  0.47759900  0.23215600  0.11965600  1
  H  443  1  0.50361700  0.26631200  0.14114400  1
  H  444  1  0.44868300  0.25873700  0.14813700  1
  H  446  1  0.41051500  0.21810200  0.19465000  1
  H  448  1  0.58151400  0.27538100  0.28355400  1
  H  455  1  0.24463200  0.03366700  0.96549900  1
  H  458  1  0.27030100  0.86323000  0.01572200  1
  H  459  1  0.24212300  0.88418000  0.98237500  1
  H  460  1  0.29781600  0.89003400  0.98651600  1
  H  462  1  0.34122900  0.93672700  0.02346900  1
  H  464  1  0.16940400  0.02954700  0.97483300  1
  H  471  1  0.74463100  0.46574600  0.03391500  1
  H  474  1  0.77030200  0.63618100  0.98369100  1
  H  475  1  0.74212200  0.61523400  0.01703900  1
  H  476  1  0.79781500  0.60938000  0.01289900  1
  H  478  1  0.84122800  0.56268400  0.97594300  1
  H  480  1  0.66940200  0.46986600  0.02458000  1
  H  487  1  0.99349500  0.78108300  0.28878200  1
  H  490  1  0.02241500  0.73226700  0.11893200  1
  H  491  1  0.99615900  0.76632600  0.14038000  1
  H  492  1  0.05110500  0.75891900  0.14749900  1
  H  494  1  0.08936800  0.71853700  0.19406700  1
  H  496  1  0.91763300  0.77516000  0.28253000  1
  H  503  1  0.49349600  0.71832800  0.71063100  1
  H  506  1  0.52241500  0.76714600  0.88048000  1
  H  507  1  0.49616000  0.73308500  0.85903300  1
  H  508  1  0.55110300  0.74049200  0.85191500  1
  H  510  1  0.58936600  0.78087700  0.80534600  1
  H  512  1  0.41763400  0.72425100  0.71688300  1
  H  519  1  0.25538900  0.46027600  0.53118200  1
  H  522  1  0.22750900  0.63014100  0.48213400  1
  H  523  1  0.25341000  0.60863100  0.51634000  1
  H  524  1  0.19851300  0.60161400  0.50861000  1
  H  526  1  0.16067300  0.55512000  0.46771500  1
  H  528  1  0.33138000  0.46639400  0.52576700  1
  H  535  1  0.75538700  0.03913700  0.46823100  1
  H  538  1  0.72750800  0.86927300  0.51727900  1
  H  539  1  0.75340900  0.89078000  0.48307300  1
  H  540  1  0.69851300  0.89779700  0.49080300  1
  H  542  1  0.66067100  0.94429400  0.53169800  1
  H  544  1  0.83137900  0.03301900  0.47364600  1
  H  551  1  0.50410400  0.71551800  0.21533200  1
  H  554  1  0.47995300  0.76581500  0.38584100  1
  H  555  1  0.50761700  0.73228300  0.36473700  1
  H  556  1  0.45195700  0.73690100  0.35905500  1
  H  558  1  0.40898900  0.77454800  0.31257200  1
  H  560  1  0.57955100  0.72408100  0.21929100  1
  H  567  1  0.00410500  0.78389600  0.78408100  1
  H  570  1  0.97995200  0.73359900  0.61357200  1
  H  571  1  0.00761900  0.76713100  0.63467600  1
  H  572  1  0.95195500  0.76251300  0.64035800  1
  H  574  1  0.90898800  0.72486300  0.68684100  1
  H  576  1  0.07955300  0.77533300  0.78012100  1
  H  583  1  0.74501400  0.53387100  0.46521500  1
  H  586  1  0.76972400  0.36351900  0.51578200  1
  H  587  1  0.74199300  0.38452000  0.48221900  1
  H  588  1  0.79763800  0.39032500  0.48683200  1
  H  590  1  0.84041000  0.43692700  0.52444900  1
  H  592  1  0.66958500  0.52975300  0.47374900  1
  H  599  1  0.24501400  0.96554000  0.53419800  1
  H  602  1  0.26972500  0.13589500  0.48363100  1
  H  603  1  0.24199500  0.11489300  0.51719400  1
  H  604  1  0.29763900  0.10908900  0.51258100  1
  H  606  1  0.34040800  0.06248500  0.47496400  1
  H  608  1  0.16958400  0.96966000  0.52566400  1
  H  615  1  0.49480100  0.28393600  0.78340800  1
  H  618  1  0.52034500  0.23375000  0.61299200  1
  H  619  1  0.49229200  0.26714100  0.63397700  1
  H  620  1  0.54796500  0.26284700  0.63984200  1
  H  622  1  0.59110700  0.22560600  0.68648800  1
  H  624  1  0.41950800  0.27494000  0.77919200  1
  H  631  1  0.99480000  0.21547800  0.21600500  1
  H  634  1  0.02034500  0.26566500  0.38642100  1
  H  635  1  0.99229100  0.23227200  0.36543600  1
  H  636  1  0.04796500  0.23656700  0.35957100  1
  H  638  1  0.09110600  0.27380700  0.31292500  1
  H  640  1  0.91951000  0.22447300  0.22022100  1
  H  647  1  0.09232300  0.08740600  0.15585800  1
  H  650  1  0.15181200  0.22321400  0.04816700  1
  H  651  1  0.12405900  0.22414700  0.08769100  1
  H  652  1  0.10559100  0.19806000  0.05292400  1
  H  654  1  0.15352000  0.20955600  0.14484400  1
  H  656  1  0.09043200  0.05310900  0.09787000  1
  H  663  1  0.59232300  0.41200700  0.84355500  1
  H  666  1  0.65181100  0.27619900  0.95124700  1
  H  667  1  0.62405800  0.27526700  0.91172200  1
  H  668  1  0.60559200  0.30135400  0.94649000  1
  H  670  1  0.65352000  0.28985700  0.85456900  1
  H  672  1  0.59043100  0.44630600  0.90154300  1
  H  679  1  0.34235700  0.09384400  0.83708200  1
  H  682  1  0.40175000  0.20149600  0.97295500  1
  H  683  1  0.37419300  0.16188400  0.97396100  1
  H  684  1  0.35548600  0.19657500  0.94788500  1
  H  686  1  0.40326300  0.10471000  0.95926600  1
  H  688  1  0.34039200  0.15180600  0.80280200  1
  H  695  1  0.84235600  0.40557000  0.16233000  1
  H  698  1  0.90175200  0.29791700  0.02645800  1
  H  699  1  0.87419200  0.33753100  0.02545300  1
  H  700  1  0.85548500  0.30283700  0.05152600  1
  H  702  1  0.90326200  0.39470300  0.04014700  1
  H  704  1  0.84039400  0.34760800  0.19661200  1
  H  711  1  0.90613400  0.91441800  0.84051400  1
  H  714  1  0.84947800  0.77955900  0.95052200  1
  H  715  1  0.87651700  0.77801100  0.91069000  1
  H  716  1  0.89548900  0.80475700  0.94476400  1
  H  718  1  0.84611000  0.79186000  0.85378000  1
  H  720  1  0.90714900  0.94918600  0.89936600  1
  H  727  1  0.40613600  0.58499600  0.15890000  1
  H  730  1  0.34947600  0.71985200  0.04889000  1
  H  731  1  0.37651500  0.72140300  0.08872400  1
  H  732  1  0.39549000  0.69465400  0.05464900  1
  H  734  1  0.34611100  0.70755400  0.14563300  1
  H  736  1  0.40715000  0.55022800  0.10004600  1
  H  743  1  0.64981400  0.90684000  0.16858600  1
  H  746  1  0.64680900  0.80494600  0.05643600  1
  H  747  1  0.60523500  0.80428800  0.02598900  1
  H  748  1  0.63508900  0.84243300  0.03147200  1
  H  750  1  0.58799400  0.89570000  0.04482900  1
  H  752  1  0.65777300  0.84782800  0.19946900  1
  H  759  1  0.14981500  0.59257100  0.83082600  1
  H  762  1  0.14680900  0.69446500  0.94297600  1
  H  763  1  0.10523700  0.69512600  0.97342500  1
  H  764  1  0.13508900  0.65697800  0.96794000  1
  H  766  1  0.08799600  0.60371100  0.95458300  1
  H  768  1  0.15777500  0.65158600  0.79994300  1
  H  775  1  0.59935700  0.58067500  0.65669200  1
  H  778  1  0.60247000  0.69270600  0.55466800  1
  H  779  1  0.64398100  0.72321200  0.55405900  1
  H  780  1  0.61401300  0.71773900  0.59214500  1
  H  782  1  0.66103400  0.70450900  0.64554300  1
  H  784  1  0.59154000  0.54972500  0.59770000  1
  H  791  1  0.09935900  0.91873900  0.34272100  1
  H  794  1  0.10247000  0.80670800  0.44474500  1
  H  795  1  0.14398000  0.77620200  0.44535400  1
  H  796  1  0.11401200  0.78167400  0.40726800  1
  H  798  1  0.16103500  0.79490400  0.35387000  1
  H  800  1  0.09154100  0.94968900  0.40171300  1
  H  807  1  0.84321200  0.59072900  0.33478300  1
  H  810  1  0.89984600  0.70073500  0.46966200  1
  H  811  1  0.87287400  0.66087400  0.47128500  1
  H  812  1  0.85381400  0.69489400  0.44450500  1
  H  814  1  0.90290500  0.60390700  0.45743300  1
  H  816  1  0.84227100  0.64954500  0.29998400  1
  H  823  1  0.34321300  0.90868200  0.66463000  1
  H  826  1  0.39984700  0.79867600  0.52975100  1
  H  827  1  0.37287500  0.83853700  0.52812800  1
  H  828  1  0.35381500  0.80452000  0.55490800  1
  H  830  1  0.40290600  0.89550400  0.54198000  1
  H  832  1  0.34227200  0.84986900  0.69942900  1
  H  839  1  0.39943400  0.42084600  0.33987800  1
  H  842  1  0.39794200  0.31029100  0.44374100  1
  H  843  1  0.35685800  0.27941400  0.44471100  1
  H  844  1  0.38685700  0.28461700  0.40660200  1
  H  846  1  0.33932100  0.29671000  0.35296900  1
  H  848  1  0.40604400  0.45244400  0.39967200  1
  H  855  1  0.89943600  0.07856800  0.65953500  1
  H  858  1  0.89794400  0.18912300  0.55567200  1
  H  859  1  0.85685700  0.22000000  0.55470200  1
  H  860  1  0.88685600  0.21479500  0.59281100  1
  H  862  1  0.83931900  0.20270300  0.64644400  1
  H  864  1  0.90604300  0.04697000  0.59974100  1
  H  871  1  0.14959800  0.40988400  0.67052000  1
  H  874  1  0.14792900  0.30599500  0.55998300  1
  H  875  1  0.10672700  0.30494500  0.52921100  1
  H  876  1  0.13668800  0.34309000  0.53429400  1
  H  878  1  0.08908000  0.39662500  0.54644300  1
  H  880  1  0.15608400  0.35003800  0.70214100  1
  H  887  1  0.64959600  0.08952900  0.32889300  1
  H  890  1  0.64792700  0.19341900  0.43943000  1
  H  891  1  0.60672600  0.19446900  0.47020200  1
  H  892  1  0.63668800  0.15632300  0.46511900  1
  H  894  1  0.58907800  0.10278800  0.45297000  1
  H  896  1  0.65608300  0.14937600  0.29727200  1
  C  1  1  0.02032400  0.00686700  0.00467800  1
  C  2  1  0.05923200  0.99023100  0.99590200  1
  C  3  1  0.09932200  0.00482900  0.00238100  1
  C  4  1  0.10167600  0.03550600  0.02199600  1
  C  5  1  0.06462100  0.05034600  0.03565700  1
  C  6  1  0.02492700  0.03705800  0.02568000  1
  C  9  1  0.97978700  0.99354900  0.99370600  1
  C  10  1  0.97555600  0.96475300  0.97077800  1
  C  11  1  0.93608400  0.95095600  0.96096300  1
  C  12  1  0.89899600  0.96399500  0.97626000  1
  C  13  1  0.90085400  0.99350700  0.99761500  1
  C  14  1  0.94062100  0.00857800  0.00440900  1
  C  25  1  0.52032300  0.49254700  0.99473500  1
  C  26  1  0.55923300  0.50918000  0.00351200  1
  C  27  1  0.59932200  0.49458500  0.99703200  1
  C  28  1  0.60167700  0.46390900  0.97741600  1
  C  29  1  0.56462100  0.44906900  0.96375500  1
  C  30  1  0.52492700  0.46235600  0.97373200  1
  C  33  1  0.47978500  0.50586500  0.00570600  1
  C  34  1  0.47555700  0.53466000  0.02863600  1
  C  35  1  0.43608500  0.54845800  0.03844900  1
  C  36  1  0.39899700  0.53541600  0.02315200  1
  C  37  1  0.40085500  0.50590400  0.00179900  1
  C  38  1  0.44062200  0.49083600  0.99500400  1
  C  49  1  0.27037000  0.24500700  0.75671300  1
  C  50  1  0.30920800  0.25388500  0.74001800  1
  C  51  1  0.34936600  0.24744100  0.75453800  1
  C  52  1  0.35181800  0.22777700  0.78518600  1
  C  53  1  0.31482200  0.21409400  0.80009500  1
  C  54  1  0.27508300  0.22402100  0.78689100  1
  C  57  1  0.22975400  0.25582000  0.74345900  1
  C  58  1  0.22538600  0.27925100  0.71509500  1
  C  59  1  0.18583000  0.28884600  0.70130000  1
  C  60  1  0.14890800  0.27284000  0.71381000  1
  C  61  1  0.15087800  0.25117900  0.74308500  1
  C  62  1  0.19066100  0.24453700  0.75818900  1
  C  73  1  0.77036800  0.25440700  0.24269900  1
  C  74  1  0.80920900  0.24552900  0.25939500  1
  C  75  1  0.84936500  0.25197200  0.24487600  1
  C  76  1  0.85181700  0.27163700  0.21422800  1
  C  77  1  0.81482100  0.28531900  0.19931900  1
  C  78  1  0.77508300  0.27539100  0.21252200  1
  C  81  1  0.72975500  0.24359400  0.25595500  1
  C  82  1  0.72538500  0.22016300  0.28431800  1
  C  83  1  0.68583000  0.21056900  0.29811300  1
  C  84  1  0.64890700  0.22657300  0.28560300  1
  C  85  1  0.65087900  0.24823500  0.25632900  1
  C  86  1  0.69066100  0.25487700  0.24122400  1
  C  97  1  0.97925700  0.49378500  0.00561600  1
  C  98  1  0.94162000  0.51160300  0.99603800  1
  C  99  1  0.90142600  0.50220700  0.00827300  1
  C  100  1  0.89701800  0.47417700  0.03090400  1
  C  101  1  0.93317600  0.45618200  0.04212100  1
  C  102  1  0.97334800  0.46614100  0.02971700  1
  C  105  1  0.01995100  0.50427300  0.99258600  1
  C  106  1  0.02516700  0.52923700  0.96562000  1
  C  107  1  0.06515700  0.54070800  0.95422700  1
  C  108  1  0.10191100  0.52583700  0.96831600  1
  C  109  1  0.09831100  0.50023300  0.99372900  1
  C  110  1  0.05827200  0.48996200  0.00562000  1
  C  121  1  0.47925800  0.00562800  0.99379600  1
  C  122  1  0.44161800  0.98780800  0.00337400  1
  C  123  1  0.40142700  0.99720500  0.99113900  1
  C  124  1  0.39701900  0.02523700  0.96851000  1
  C  125  1  0.43317800  0.04323000  0.95729200  1
  C  126  1  0.47334900  0.03327400  0.96969700  1
  C  129  1  0.51995000  0.99514100  0.00682700  1
  C  130  1  0.52516700  0.97017400  0.03379300  1
  C  131  1  0.56515500  0.95870300  0.04518500  1
  C  132  1  0.60191000  0.97357400  0.03109800  1
  C  133  1  0.59831100  0.99918100  0.00568500  1
  C  134  1  0.55827300  0.00945300  0.99379400  1
  C  145  1  0.72937900  0.25526400  0.75551600  1
  C  146  1  0.69179900  0.24562700  0.73765200  1
  C  147  1  0.65155800  0.25784600  0.74696300  1
  C  148  1  0.64708000  0.28051800  0.77495900  1
  C  149  1  0.68318800  0.29178700  0.79299000  1
  C  150  1  0.72339400  0.27939300  0.78311900  1
  C  153  1  0.77010900  0.24226100  0.74511300  1
  C  154  1  0.77538900  0.21496700  0.72052300  1
  C  155  1  0.81541200  0.20354200  0.70915100  1
  C  156  1  0.85213900  0.21796300  0.72377100  1
  C  157  1  0.84847700  0.24371600  0.74903200  1
  C  158  1  0.80839400  0.25563100  0.75916900  1
  C  169  1  0.22937900  0.24415000  0.24389800  1
  C  170  1  0.19179900  0.25378600  0.26176100  1
  C  171  1  0.15156000  0.24156800  0.25245100  1
  C  172  1  0.14707900  0.21889700  0.22445400  1
  C  173  1  0.18318900  0.20762700  0.20642300  1
  C  174  1  0.22339400  0.22002000  0.21629400  1
  C  177  1  0.27011100  0.25715300  0.25430100  1
  C  178  1  0.27538900  0.28444700  0.27889000  1
  C  179  1  0.31541200  0.29587100  0.29026200  1
  C  180  1  0.35213700  0.28145200  0.27564200  1
  C  181  1  0.34847500  0.25569800  0.25038100  1
  C  182  1  0.30839400  0.24378300  0.24024500  1
  C  193  1  0.72887300  0.75456900  0.24241400  1
  C  194  1  0.68998200  0.74511800  0.25871200  1
  C  195  1  0.64988300  0.75143400  0.24406400  1
  C  196  1  0.64743800  0.77140800  0.21363700  1
  C  197  1  0.68436400  0.78592900  0.19940300  1
  C  198  1  0.72414600  0.77623800  0.21271600  1
  C  201  1  0.76950300  0.74373800  0.25566100  1
  C  202  1  0.77390100  0.72088200  0.28449400  1
  C  203  1  0.81343400  0.71117600  0.29821900  1
  C  204  1  0.85043900  0.72651100  0.28508200  1
  C  205  1  0.84843900  0.74778100  0.25551200  1
  C  206  1  0.80859900  0.75442700  0.24048800  1
  C  217  1  0.22887500  0.74484500  0.75699900  1
  C  218  1  0.18998300  0.75429500  0.74070100  1
  C  219  1  0.14988500  0.74797700  0.75534800  1
  C  220  1  0.14744000  0.72800300  0.78577600  1
  C  221  1  0.18436400  0.71348200  0.80001000  1
  C  222  1  0.22414700  0.72317500  0.78669800  1
  C  225  1  0.26950300  0.75567600  0.74375300  1
  C  226  1  0.27390000  0.77852900  0.71491900  1
  C  227  1  0.31343600  0.78823500  0.70119400  1
  C  228  1  0.35044000  0.77290200  0.71433100  1
  C  229  1  0.34844000  0.75163000  0.74390100  1
  C  230  1  0.30859900  0.74498700  0.75892600  1
  C  241  1  0.27009500  0.74390300  0.24420200  1
  C  242  1  0.30774000  0.75398800  0.26173300  1
  C  243  1  0.34801600  0.74181800  0.25249000  1
  C  244  1  0.35251900  0.71875800  0.22481900  1
  C  245  1  0.31637100  0.70696300  0.20717500  1
  C  246  1  0.27612600  0.71929300  0.21702800  1
  C  249  1  0.22931900  0.75690400  0.25455800  1
  C  250  1  0.22393000  0.78387800  0.27949600  1
  C  251  1  0.18388100  0.79523200  0.29084800  1
  C  252  1  0.14720400  0.78110400  0.27590000  1
  C  253  1  0.15094900  0.75571400  0.25028600  1
  C  254  1  0.19105900  0.74387500  0.24011800  1
  C  265  1  0.77009300  0.75550800  0.75521100  1
  C  266  1  0.80774000  0.74542500  0.73768000  1
  C  267  1  0.84801500  0.75759500  0.74692400  1
  C  268  1  0.85251800  0.78065500  0.77459500  1
  C  269  1  0.81636900  0.79245100  0.79223900  1
  C  270  1  0.77612600  0.78012100  0.78238400  1
  C  273  1  0.72931900  0.74251000  0.74485500  1
  C  274  1  0.72392800  0.71553600  0.71991700  1
  C  275  1  0.68388000  0.70417900  0.70856500  1
  C  276  1  0.64720400  0.71830700  0.72351300  1
  C  277  1  0.65094800  0.74369900  0.74912800  1
  C  278  1  0.69105900  0.75553900  0.75929500  1
  C  289  1  0.52036700  0.50684800  0.50452600  1
  C  290  1  0.55918000  0.49044900  0.49501600  1
  C  291  1  0.59934800  0.50502900  0.50124700  1
  C  292  1  0.60191400  0.53545800  0.52122100  1
  C  293  1  0.56505700  0.54978400  0.53576200  1
  C  294  1  0.52522100  0.53655700  0.52614100  1
  C  297  1  0.47966200  0.49366900  0.49383400  1
  C  298  1  0.47514700  0.46529200  0.47044900  1
  C  299  1  0.43554700  0.45155900  0.46094200  1
  C  300  1  0.39868800  0.46415900  0.47696100  1
  C  301  1  0.40077000  0.49347800  0.49855800  1
  C  302  1  0.44062200  0.50853000  0.50509600  1
  C  313  1  0.02036700  0.99256600  0.49488700  1
  C  314  1  0.05918000  0.00896500  0.50439700  1
  C  315  1  0.09935000  0.99438500  0.49816600  1
  C  316  1  0.10191400  0.96395400  0.47819200  1
  C  317  1  0.06505900  0.94962900  0.46365100  1
  C  318  1  0.02522300  0.96285400  0.47327200  1
  C  321  1  0.97966100  0.00574400  0.50557900  1
  C  322  1  0.97514900  0.03412300  0.52896400  1
  C  323  1  0.93554600  0.04785400  0.53847100  1
  C  324  1  0.89868700  0.03525500  0.52245200  1
  C  325  1  0.90076900  0.00593500  0.50085500  1
  C  326  1  0.94062100  0.99088100  0.49431700  1
  C  337  1  0.47922600  0.99391000  0.50561500  1
  C  338  1  0.44164600  0.01152800  0.49552400  1
  C  339  1  0.40133300  0.00236400  0.50769900  1
  C  340  1  0.39676000  0.97470700  0.53077500  1
  C  341  1  0.43285800  0.95698500  0.54256000  1
  C  342  1  0.47312800  0.96674300  0.53021200  1
  C  345  1  0.52003200  0.00418600  0.49263000  1
  C  346  1  0.52547000  0.02870600  0.46529200  1
  C  347  1  0.56555000  0.03996900  0.45389900  1
  C  348  1  0.60220400  0.02530600  0.46839300  1
  C  349  1  0.59841600  0.00006900  0.49415700  1
  C  350  1  0.55826000  0.99004500  0.50603000  1
  C  361  1  0.97922500  0.50550100  0.49379800  1
  C  362  1  0.94164500  0.48788500  0.50388900  1
  C  363  1  0.90133100  0.49704900  0.49171400  1
  C  364  1  0.89675900  0.52470400  0.46863800  1
  C  365  1  0.93285700  0.54242600  0.45685300  1
  C  366  1  0.97312600  0.53267100  0.46920100  1
  C  369  1  0.02003200  0.49522800  0.50678300  1
  C  370  1  0.02547000  0.47070700  0.53412100  1
  C  371  1  0.06554900  0.45944600  0.54551400  1
  C  372  1  0.10220400  0.47410800  0.53102000  1
  C  373  1  0.09841500  0.49934500  0.50525600  1
  C  374  1  0.05826200  0.50936900  0.49338300  1
  C  385  1  0.70744600  0.02562500  0.99326500  1
  C  387  1  0.75295400  0.98416500  0.01980800  1
  C  388  1  0.78844000  0.00524900  0.01340100  1
  C  390  1  0.74269400  0.04745800  0.98788000  1
  C  393  1  0.72901500  0.10608900  0.99652600  1
  C  397  1  0.66618200  0.03374800  0.98282100  1
  C  399  1  0.82914200  0.99205000  0.01872100  1
  C  401  1  0.20744800  0.47378800  0.00614800  1
  C  403  1  0.25295600  0.51524800  0.97960400  1
  C  404  1  0.28844000  0.49416500  0.98601300  1
  C  406  1  0.24269600  0.45195600  0.01153100  1
  C  409  1  0.22901500  0.39332600  0.00288800  1
  C  413  1  0.16618300  0.46566600  0.01659200  1
  C  415  1  0.32914300  0.50736400  0.98069300  1
  C  417  1  0.95767200  0.25617400  0.77512600  1
  C  419  1  0.00294700  0.22932100  0.73370200  1
  C  420  1  0.03850300  0.23556800  0.75475700  1
  C  422  1  0.99298600  0.26144600  0.79691900  1
  C  425  1  0.97931700  0.25296400  0.85558100  1
  C  429  1  0.91650500  0.26684600  0.78328400  1
  C  431  1  0.07916200  0.22998200  0.74156000  1
  C  433  1  0.45767300  0.24324000  0.22428700  1
  C  435  1  0.50294700  0.27009200  0.26571100  1
  C  436  1  0.53850200  0.26384600  0.24465500  1
  C  438  1  0.49298700  0.23796700  0.20249500  1
  C  441  1  0.47931800  0.24644900  0.14383300  1
  C  445  1  0.41650300  0.23256800  0.21612800  1
  C  447  1  0.57916300  0.26943200  0.25785300  1
  C  449  1  0.29312300  0.96716800  0.00064100  1
  C  451  1  0.24722700  0.00970900  0.97635300  1
  C  452  1  0.21152500  0.98961900  0.98479000  1
  C  454  1  0.25755900  0.94617700  0.00778200  1
  C  457  1  0.26818900  0.88692800  0.00067400  1
  C  461  1  0.33474500  0.95855100  0.00968100  1
  C  463  1  0.17110200  0.00400400  0.98158000  1
  C  465  1  0.79312200  0.53224500  0.99877300  1
  C  467  1  0.74722600  0.48970400  0.02306000  1
  C  468  1  0.71152600  0.50979200  0.01462200  1
  C  470  1  0.75755800  0.55323400  0.99163200  1
  C  473  1  0.76818800  0.61248600  0.99874000  1
  C  477  1  0.83474400  0.54086300  0.98973300  1
  C  479  1  0.67110200  0.49540800  0.01783300  1
  C  481  1  0.04187000  0.74338200  0.22361900  1
  C  483  1  0.99626000  0.77005700  0.26491700  1
  C  484  1  0.96082500  0.76363000  0.24377700  1
  C  486  1  0.00667800  0.73798200  0.20172700  1
  C  489  1  0.02054300  0.74653700  0.14311500  1
  C  493  1  0.08314300  0.73288400  0.21558000  1
  C  495  1  0.92008500  0.76902500  0.25687800  1
  C  497  1  0.54187000  0.75603200  0.77579400  1
  C  499  1  0.49625800  0.72935700  0.73449600  1
  C  500  1  0.46082600  0.73578100  0.75563700  1
  C  502  1  0.50667900  0.76143200  0.79768600  1
  C  505  1  0.52054100  0.75287400  0.85629800  1
  C  509  1  0.58314400  0.76653000  0.78383400  1
  C  511  1  0.42008300  0.73038900  0.74253600  1
  C  513  1  0.20761500  0.52549100  0.49307100  1
  C  515  1  0.25281300  0.48413600  0.52011200  1
  C  516  1  0.28838200  0.50521700  0.51398200  1
  C  518  1  0.24293800  0.54730700  0.48790800  1
  C  521  1  0.22919300  0.60594800  0.49640700  1
  C  525  1  0.16650800  0.53365200  0.48223700  1
  C  527  1  0.32904200  0.49208000  0.51974500  1
  C  529  1  0.70761400  0.97392000  0.50634200  1
  C  531  1  0.75281200  0.01527800  0.47930100  1
  C  532  1  0.78838300  0.99419400  0.48543100  1
  C  534  1  0.74293800  0.95210600  0.51150500  1
  C  537  1  0.72919200  0.89346300  0.50300600  1
  C  541  1  0.66650700  0.96576200  0.51717600  1
  C  543  1  0.82904000  0.00733400  0.47966800  1
  C  545  1  0.45643400  0.75118400  0.28194200  1
  C  547  1  0.50177200  0.72640000  0.23929500  1
  C  548  1  0.53768300  0.73439300  0.25931500  1
  C  550  1  0.49219400  0.75795400  0.30283500  1
  C  553  1  0.48177300  0.75080500  0.36210800  1
  C  557  1  0.41500800  0.76063200  0.29074200  1
  C  559  1  0.57801900  0.73069600  0.24487400  1
  C  561  1  0.95643300  0.74823000  0.71747100  1
  C  563  1  0.00177200  0.77301100  0.76011800  1
  C  564  1  0.03768500  0.76501800  0.74009800  1
  C  566  1  0.99219600  0.74146000  0.69657800  1
  C  569  1  0.98177200  0.74860900  0.63730500  1
  C  573  1  0.91500700  0.73878200  0.70867100  1
  C  575  1  0.07801900  0.76871500  0.75454000  1
  C  577  1  0.79292000  0.46744600  0.50101500  1
  C  579  1  0.74742800  0.50993600  0.47614300  1
  C  580  1  0.71157000  0.48984800  0.48415900  1
  C  582  1  0.75722000  0.44648600  0.50780800  1
  C  585  1  0.76783100  0.38722900  0.50073800  1
  C  589  1  0.83436500  0.45873400  0.51049900  1
  C  591  1  0.67117700  0.50418800  0.48042100  1
  C  593  1  0.29291900  0.03196700  0.49839800  1
  C  595  1  0.24742800  0.98947700  0.52327000  1
  C  596  1  0.21157200  0.00956400  0.51525400  1
  C  598  1  0.25721900  0.05292600  0.49160500  1
  C  601  1  0.26783200  0.11218400  0.49867500  1
  C  605  1  0.33436600  0.04068100  0.48891400  1
  C  607  1  0.17117800  0.99522600  0.51899200  1
  C  609  1  0.54319700  0.24861300  0.71696000  1
  C  611  1  0.49737000  0.27307200  0.75945000  1
  C  612  1  0.46163200  0.26479300  0.73932900  1
  C  614  1  0.50760800  0.24161500  0.69594400  1
  C  617  1  0.51828200  0.24877000  0.63670700  1
  C  621  1  0.58476800  0.23941600  0.70832800  1
  C  623  1  0.42118900  0.26818000  0.75365300  1
  C  625  1  0.04319700  0.25080000  0.28245300  1
  C  627  1  0.99736900  0.22634100  0.23996200  1
  C  628  1  0.96163400  0.23462100  0.26008400  1
  C  630  1  0.00761000  0.25779900  0.30346900  1
  C  633  1  0.01828400  0.25064300  0.36270600  1
  C  637  1  0.08476900  0.25999900  0.29108500  1
  C  639  1  0.92118800  0.23123400  0.24576000  1
  C  641  1  0.14557700  0.15798900  0.13559600  1
  C  643  1  0.10454500  0.10609400  0.14014000  1
  C  644  1  0.09934600  0.10490800  0.10401000  1
  C  646  1  0.14023300  0.15708200  0.09935400  1
  C  649  1  0.13367200  0.20760600  0.06628000  1
  C  653  1  0.16214300  0.18617500  0.15279300  1
  C  655  1  0.08324500  0.07601500  0.08771500  1
  C  657  1  0.64557600  0.34142400  0.86381600  1
  C  659  1  0.60454600  0.39332000  0.85927300  1
  C  660  1  0.59934500  0.39450500  0.89540300  1
  C  662  1  0.64023300  0.34233200  0.90006000  1
  C  665  1  0.63367000  0.29180800  0.93313300  1
  C  669  1  0.66214300  0.31323700  0.84662000  1
  C  671  1  0.58324500  0.42339800  0.91169800  1
  C  673  1  0.39555000  0.11406600  0.90770700  1
  C  675  1  0.35457900  0.10955000  0.85578200  1
  C  676  1  0.34942900  0.14568400  0.85459800  1
  C  678  1  0.39022600  0.15031000  0.90681700  1
  C  681  1  0.38365600  0.18331500  0.95739000  1
  C  685  1  0.41206000  0.09685200  0.93589900  1
  C  687  1  0.33333333  0.16200200  0.82571700  1
  C  689  1  0.89554900  0.38534800  0.09170600  1
  C  691  1  0.85457800  0.38986300  0.14363100  1
  C  692  1  0.84942800  0.35373000  0.14481500  1
  C  694  1  0.89022500  0.34910400  0.09259700  1
  C  697  1  0.88365800  0.31609900  0.04202300  1
  C  701  1  0.91205900  0.40256200  0.06351500  1
  C  703  1  0.83334400  0.33741200  0.17369500  1
  C  705  1  0.85397800  0.84360700  0.86201000  1
  C  707  1  0.89437000  0.89577500  0.85651500  1
  C  708  1  0.90021600  0.89727600  0.89255500  1
  C  710  1  0.85984600  0.84493100  0.89818200  1
  C  713  1  0.86721500  0.79489700  0.93192000  1
  C  717  1  0.83747700  0.81507200  0.84535600  1
  C  719  1  0.91620800  0.92633500  0.90858200  1
  C  721  1  0.35397900  0.65580400  0.13740300  1
  C  723  1  0.39437100  0.60363600  0.14289900  1
  C  724  1  0.40021700  0.60213700  0.10685700  1
  C  726  1  0.35984700  0.65448300  0.10123100  1
  C  729  1  0.36721600  0.70451700  0.06749400  1
  C  733  1  0.33747800  0.68434100  0.15405700  1
  C  735  1  0.41620900  0.57307600  0.09083200  1
  C  737  1  0.59956300  0.88771500  0.09623100  1
  C  739  1  0.63920600  0.89155900  0.14890800  1
  C  740  1  0.64760500  0.85581000  0.14808700  1
  C  742  1  0.60781900  0.85182200  0.09535600  1
  C  745  1  0.62148600  0.82028400  0.04493700  1
  C  749  1  0.58256900  0.90518100  0.06831400  1
  C  751  1  0.66492700  0.83879800  0.17608700  1
  C  753  1  0.09956200  0.61169600  0.90318200  1
  C  755  1  0.13920600  0.60785500  0.85050600  1
  C  756  1  0.14760600  0.64360300  0.85132600  1
  C  758  1  0.10782100  0.64758900  0.90405600  1
  C  761  1  0.12148700  0.67912700  0.95447700  1
  C  765  1  0.08256800  0.59423200  0.93109700  1
  C  767  1  0.16492700  0.66061300  0.82332600  1
  C  769  1  0.64949500  0.65309000  0.63759700  1
  C  771  1  0.60998400  0.60035000  0.64141300  1
  C  772  1  0.60172700  0.60111600  0.60564100  1
  C  774  1  0.64138000  0.65390800  0.60168100  1
  C  777  1  0.62771700  0.70426400  0.57004800  1
  C  781  1  0.66641200  0.68103100  0.65506100  1
  C  783  1  0.58447400  0.57310500  0.58862100  1
  C  785  1  0.14949600  0.84632100  0.36181600  1
  C  787  1  0.10998400  0.89906400  0.35800000  1
  C  788  1  0.10172700  0.89829500  0.39377200  1
  C  790  1  0.14138100  0.84550300  0.39773200  1
  C  793  1  0.12771600  0.79515000  0.42936500  1
  C  797  1  0.16641200  0.81838000  0.34435200  1
  C  799  1  0.08447500  0.92630600  0.41079200  1
  C  801  1  0.89522700  0.61217600  0.40567300  1
  C  803  1  0.85498300  0.60672000  0.35343100  1
  C  804  1  0.84925100  0.64277000  0.35190100  1
  C  806  1  0.88947300  0.64835800  0.40432100  1
  C  809  1  0.88212300  0.68209200  0.45436300  1
  C  813  1  0.91162300  0.59550900  0.43423400  1
  C  815  1  0.83331600  0.65881200  0.32284000  1
  C  817  1  0.39522500  0.88723500  0.59374000  1
  C  819  1  0.35498400  0.89269400  0.64598200  1
  C  820  1  0.34925200  0.85664100  0.64751200  1
  C  822  1  0.38947400  0.85105300  0.59509200  1
  C  825  1  0.38212400  0.81731900  0.54505000  1
  C  829  1  0.41162400  0.90390400  0.56517900  1
  C  831  1  0.33333333  0.84059900  0.67657300  1
  C  833  1  0.35015900  0.34831800  0.36014400  1
  C  835  1  0.38913900  0.40127200  0.35543300  1
  C  836  1  0.39781300  0.40092400  0.39113500  1
  C  838  1  0.35858900  0.34799200  0.39601100  1
  C  841  1  0.37290700  0.29828100  0.42848300  1
  C  845  1  0.33341200  0.31999900  0.34319400  1
  C  847  1  0.41489200  0.42915400  0.40787700  1
  C  849  1  0.85015800  0.15109500  0.63926900  1
  C  851  1  0.88913800  0.09814100  0.64398000  1
  C  852  1  0.89781100  0.09848900  0.60827800  1
  C  854  1  0.85858800  0.15142000  0.60340200  1
  C  857  1  0.87290500  0.20113400  0.57093000  1
  C  861  1  0.83341100  0.17941300  0.65621900  1
  C  863  1  0.91489000  0.07025900  0.59153600  1
  C  865  1  0.10023900  0.38957900  0.59803800  1
  C  867  1  0.13928600  0.39431600  0.65096100  1
  C  868  1  0.14798500  0.35861700  0.65062600  1
  C  870  1  0.10865300  0.35370700  0.59774400  1
  C  873  1  0.12282200  0.32121200  0.54801700  1
  C  877  1  0.08342700  0.40650900  0.56972800  1
  C  879  1  0.16507600  0.34189300  0.67886900  1
  C  881  1  0.60023900  0.10983500  0.40137500  1
  C  883  1  0.63928500  0.10509700  0.34845200  1
  C  884  1  0.64798400  0.14079600  0.34878700  1
  C  886  1  0.60865400  0.14570700  0.40166900  1
  C  889  1  0.62282200  0.17820200  0.45139600  1
  C  893  1  0.58342500  0.09290500  0.42968500  1
  C  895  1  0.66507600  0.15752100  0.32054400  1
  N  21  1  0.86512300  0.00878000  0.00986600  1
  N  22  1  0.93159700  0.92444600  0.93933000  1
  N  23  1  0.06946500  0.07752100  0.05643000  1
  N  24  1  0.13468900  0.98828800  0.99108500  1
  N  45  1  0.36512400  0.49063300  0.98954700  1
  N  46  1  0.43159400  0.57496500  0.06008200  1
  N  47  1  0.56946500  0.42189400  0.94298300  1
  N  48  1  0.63468800  0.51112600  0.00832900  1
  N  69  1  0.11519000  0.23874500  0.75827400  1
  N  70  1  0.18093400  0.31140000  0.67563900  1
  N  71  1  0.31971700  0.19332400  0.82725200  1
  N  72  1  0.38472800  0.25872200  0.73795900  1
  N  93  1  0.61518800  0.26066700  0.24114000  1
  N  94  1  0.68093200  0.18801300  0.32377400  1
  N  95  1  0.81971600  0.30608800  0.17216100  1
  N  96  1  0.88472600  0.24069300  0.26145400  1
  N  117  1  0.13343300  0.48390400  0.00430100  1
  N  118  1  0.07050000  0.56263500  0.92819700  1
  N  119  1  0.92768500  0.43302100  0.06706000  1
  N  120  1  0.86717000  0.52079300  0.99961200  1
  N  141  1  0.63343300  0.01550900  0.99511200  1
  N  142  1  0.57049800  0.93677800  0.07121600  1
  N  143  1  0.42768300  0.06639200  0.93235400  1
  N  144  1  0.36716800  0.97861800  0.99980200  1
  N  165  1  0.88348200  0.25455200  0.76536600  1
  N  166  1  0.82076200  0.17710100  0.68771100  1
  N  167  1  0.67762400  0.31675400  0.81610900  1
  N  168  1  0.61738400  0.24914800  0.72827100  1
  N  189  1  0.38348300  0.24486200  0.23404700  1
  N  190  1  0.32076000  0.32231400  0.31170200  1
  N  191  1  0.17762500  0.18266000  0.18330500  1
  N  192  1  0.11738600  0.25026500  0.27114200  1
  N  213  1  0.88412600  0.76004100  0.24016700  1
  N  214  1  0.81800600  0.68958400  0.32473600  1
  N  215  1  0.67915000  0.80774000  0.17312600  1
  N  216  1  0.61454000  0.73999400  0.26053600  1
  N  237  1  0.38412700  0.73937300  0.75924600  1
  N  238  1  0.31800700  0.80983000  0.67467700  1
  N  239  1  0.17915000  0.69167400  0.82628800  1
  N  240  1  0.11454200  0.75941900  0.73887700  1
  N  261  1  0.11592000  0.74511300  0.23383400  1
  N  262  1  0.17846000  0.82126700  0.31275200  1
  N  263  1  0.32193500  0.68148300  0.18461400  1
  N  264  1  0.38205400  0.75086400  0.27118900  1
  N  285  1  0.61592100  0.75430000  0.76558000  1
  N  286  1  0.67846100  0.67814700  0.68666100  1
  N  287  1  0.82193400  0.81792800  0.81479900  1
  N  288  1  0.88205300  0.74854700  0.72822400  1
  N  309  1  0.36510200  0.50874900  0.51095000  1
  N  310  1  0.43059600  0.42589800  0.43841400  1
  N  311  1  0.57033400  0.57606400  0.55754000  1
  N  312  1  0.63466900  0.48852000  0.48978600  1
  N  333  1  0.86510100  0.99066400  0.48846300  1
  N  334  1  0.93059500  0.07351400  0.56099900  1
  N  335  1  0.07033500  0.92334700  0.44187300  1
  N  336  1  0.13466900  0.01089300  0.50962700  1
  N  357  1  0.63328800  0.98356700  0.50506000  1
  N  358  1  0.57100100  0.06135200  0.42742500  1
  N  359  1  0.42727200  0.93442300  0.56803000  1
  N  360  1  0.36732900  0.02111400  0.49865400  1
  N  381  1  0.13328800  0.51584400  0.49435300  1
  N  382  1  0.07100000  0.43806000  0.57198800  1
  N  383  1  0.92727100  0.56498800  0.43138300  1
  N  384  1  0.86732800  0.47830000  0.50075900  1
  N  386  1  0.71446700  0.99505000  0.00939900  1
  N  389  1  0.78167700  0.03615800  0.99764600  1
  N  402  1  0.21446900  0.50436100  0.99001400  1
  N  405  1  0.28167900  0.46325600  0.00176800  1
  N  418  1  0.96453800  0.23994100  0.74458700  1
  N  421  1  0.03188200  0.25143600  0.78562900  1
  N  434  1  0.46453900  0.25947300  0.25482500  1
  N  437  1  0.53188200  0.24797700  0.21378300  1
  N  450  1  0.28596600  0.99787800  0.98486400  1
  N  453  1  0.21830700  0.95855900  0.00024500  1
  N  466  1  0.78596500  0.50153300  0.01455000  1
  N  469  1  0.71830700  0.54085200  0.99916800  1
  N  482  1  0.03477200  0.75958700  0.25414000  1
  N  485  1  0.96766900  0.74779900  0.21292200  1
  N  498  1  0.53477300  0.73982700  0.74527300  1
  N  501  1  0.46767000  0.75161500  0.78649100  1
  N  514  1  0.21443900  0.49497200  0.50934300  1
  N  517  1  0.28179600  0.53606600  0.49806600  1
  N  530  1  0.71443900  0.00444200  0.49007000  1
  N  533  1  0.78179400  0.96334500  0.50134700  1
  N  546  1  0.46321500  0.73534300  0.25121700  1
  N  549  1  0.53126900  0.74994000  0.29038100  1
  N  562  1  0.96321400  0.76406800  0.74819600  1
  N  565  1  0.03126900  0.74947100  0.70903200  1
  N  578  1  0.78603200  0.49812500  0.48511700  1
  N  581  1  0.71810100  0.45883200  0.49976600  1
  N  594  1  0.28603300  0.00128800  0.51429600  1
  N  597  1  0.21810100  0.04058300  0.49964700  1
  N  610  1  0.53608800  0.26441100  0.74766500  1
  N  613  1  0.46838100  0.24931200  0.70827900  1
  N  626  1  0.03608700  0.23500400  0.25174700  1
  N  629  1  0.96838000  0.25010200  0.29113400  1
  N  642  1  0.12661300  0.13255700  0.15428600  1
  N  645  1  0.11868500  0.13012900  0.08527500  1
  N  658  1  0.62661100  0.36685700  0.84512700  1
  N  661  1  0.61868300  0.36928500  0.91413600  1
  N  674  1  0.37659700  0.09538900  0.88226100  1
  N  677  1  0.36873200  0.16440300  0.87984600  1
  N  690  1  0.87659900  0.40402500  0.11715200  1
  N  693  1  0.86873100  0.33501000  0.11956700  1
  N  706  1  0.87236500  0.86900200  0.84286700  1
  N  709  1  0.88137400  0.87214200  0.91173200  1
  N  722  1  0.37236300  0.63041200  0.15654600  1
  N  725  1  0.38137200  0.62727200  0.08768000  1
  N  738  1  0.61643300  0.90593700  0.12296000  1
  N  741  1  0.63028900  0.83749800  0.12163600  1
  N  754  1  0.11643500  0.59347400  0.87645300  1
  N  757  1  0.13029000  0.66191300  0.87777700  1
  N  770  1  0.63263400  0.62635300  0.65581400  1
  N  773  1  0.61903400  0.62757400  0.58733900  1
  N  786  1  0.13263300  0.87305800  0.34359900  1
  N  789  1  0.11903300  0.87183700  0.41207400  1
  N  802  1  0.87686800  0.59304800  0.38025800  1
  N  805  1  0.86806500  0.66193100  0.37706100  1
  N  818  1  0.37686600  0.90636500  0.61915500  1
  N  821  1  0.36806600  0.83748200  0.62235200  1
  N  834  1  0.36660000  0.37493800  0.34148600  1
  N  837  1  0.38086000  0.37461300  0.40986600  1
  N  850  1  0.86659800  0.12447600  0.65792700  1
  N  853  1  0.88086200  0.12480000  0.58954700  1
  N  866  1  0.11671000  0.40824600  0.62463800  1
  N  869  1  0.13097300  0.33987100  0.62435100  1
  N  882  1  0.61670800  0.09116700  0.37477500  1
  N  885  1  0.63097200  0.15954300  0.37506200  1
  O  8  1  0.13999200  0.04730700  0.03331700  1
  O  15  1  0.86079100  0.95178900  0.96511500  1
  O  32  1  0.63999300  0.45210600  0.96609500  1
  O  39  1  0.36078900  0.54762500  0.03429800  1
  O  56  1  0.39015600  0.21642600  0.79690700  1
  O  63  1  0.11061800  0.28373800  0.70154700  1
  O  80  1  0.89015800  0.28298700  0.20250500  1
  O  87  1  0.61061600  0.21567500  0.29786600  1
  O  104  1  0.85839200  0.46652800  0.04448100  1
  O  111  1  0.14084100  0.53557900  0.95670600  1
  O  128  1  0.35839300  0.03288600  0.95493100  1
  O  135  1  0.64084000  0.96383200  0.04270700  1
  O  152  1  0.60843200  0.29407600  0.78255400  1
  O  159  1  0.89109700  0.20629500  0.71419700  1
  O  176  1  0.10843400  0.20533900  0.21686000  1
  O  183  1  0.39109800  0.29311800  0.28521600  1
  O  200  1  0.60903900  0.78248700  0.20177500  1
  O  207  1  0.88869500  0.71543000  0.29724100  1
  O  224  1  0.10904100  0.71692400  0.79763900  1
  O  231  1  0.38869600  0.78398300  0.70217200  1
  O  248  1  0.39119600  0.70522900  0.21732700  1
  O  255  1  0.10823000  0.79267300  0.28556200  1
  O  272  1  0.89119800  0.79418500  0.78208700  1
  O  279  1  0.60823000  0.70674100  0.71385100  1
  O  296  1  0.64035300  0.54725300  0.53227600  1
  O  303  1  0.36036800  0.45194800  0.46607100  1
  O  320  1  0.14035200  0.95215800  0.46713700  1
  O  327  1  0.86036700  0.04746500  0.53334200  1
  O  344  1  0.35806800  0.96728200  0.54430900  1
  O  351  1  0.64119700  0.03481100  0.45676200  1
  O  368  1  0.85806700  0.53213200  0.45510400  1
  O  375  1  0.14119900  0.46460300  0.54265100  1
  O  392  1  0.73917700  0.07905200  0.97246200  1
  O  408  1  0.23917900  0.42036100  0.02695100  1
  O  424  1  0.98960800  0.27693400  0.82849100  1
  O  440  1  0.48960600  0.22247800  0.17092200  1
  O  456  1  0.26098100  0.91506300  0.02414500  1
  O  472  1  0.76098000  0.58434800  0.97526700  1
  O  488  1  0.01027300  0.72251500  0.17016300  1
  O  504  1  0.51027200  0.77689900  0.82924900  1
  O  520  1  0.23960100  0.57888900  0.47243600  1
  O  536  1  0.73960100  0.92052200  0.52697700  1
  O  552  1  0.48915400  0.77427700  0.33399900  1
  O  568  1  0.98915300  0.72513600  0.66541400  1
  O  584  1  0.76035800  0.41535100  0.52417500  1
  O  600  1  0.26035800  0.08406200  0.47523800  1
  O  616  1  0.51097000  0.22528000  0.66480800  1
  O  632  1  0.01097100  0.27413500  0.33460500  1
  O  648  1  0.16019700  0.17984100  0.07786100  1
  O  664  1  0.66019700  0.31957100  0.92155100  1
  O  680  1  0.41017100  0.17179800  0.92959100  1
  O  696  1  0.91017000  0.32761600  0.06982300  1
  O  712  1  0.84034300  0.82236100  0.92015800  1
  O  728  1  0.34034400  0.67705000  0.07925400  1
  O  744  1  0.59115400  0.83084600  0.07043000  1
  O  760  1  0.09115500  0.66856500  0.92898400  1
  O  776  1  0.65806700  0.67883000  0.58071300  1
  O  792  1  0.15806800  0.82058300  0.41870000  1
  O  808  1  0.90898500  0.67032200  0.42689600  1
  O  824  1  0.40898600  0.82909200  0.57251700  1
  O  840  1  0.34224000  0.32327900  0.41740200  1
  O  856  1  0.84223900  0.17613500  0.58201100  1
  O  872  1  0.09223400  0.33229300  0.57307900  1
  O  888  1  0.59223500  0.16712100  0.42633400  1
