# generated using pymatgen
data_H24C41(N2O)2
_symmetry_space_group_name_H-M   'P 1'
_cell_length_a   52.23800000
_cell_length_b   52.23810000
_cell_length_c   60.93530000
_cell_angle_alpha   90.00000000
_cell_angle_beta   89.99850000
_cell_angle_gamma   90.00000000
_symmetry_Int_Tables_number   1
_chemical_formula_structural   H24C41(N2O)2
_chemical_formula_sum   'H768 C1312 N128 O64'
_cell_volume   166281.09162157
_cell_formula_units_Z   32
loop_
 _symmetry_equiv_pos_site_id
 _symmetry_equiv_pos_as_xyz
  1  'x, y, z'
loop_
 _atom_site_type_symbol
 _atom_site_label
 _atom_site_symmetry_multiplicity
 _atom_site_fract_x
 _atom_site_fract_y
 _atom_site_fract_z
 _atom_site_occupancy
  H  25  1  0.19701700  0.19610000  0.07557800  1
  H  26  1  0.21403800  0.21420200  0.10852200  1
  H  27  1  0.22723400  0.22739600  0.14718400  1
  H  28  1  0.23455000  0.23379500  0.18526000  1
  H  29  1  0.17868500  0.17794900  0.20025500  1
  H  30  1  0.14904300  0.14820000  0.11324600  1
  H  31  1  0.13264800  0.20981800  0.15239900  1
  H  32  1  0.06977100  0.16852300  0.17812300  1
  H  33  1  0.09628300  0.13126000  0.18141500  1
  H  34  1  0.20952300  0.13238800  0.15280100  1
  H  35  1  0.12994900  0.09746100  0.18156800  1
  H  36  1  0.16660200  0.07094000  0.17924300  1
  H  42  1  0.14648800  0.14752000  0.07204600  1
  H  43  1  0.20138300  0.20289200  0.23079600  1
  H  44  1  0.22976300  0.08890800  0.15861700  1
  H  45  1  0.09144500  0.23076300  0.15716100  1
  H  70  1  0.81525000  0.81615400  0.07560600  1
  H  71  1  0.79823000  0.79806200  0.10855300  1
  H  72  1  0.78503400  0.78487400  0.14720600  1
  H  73  1  0.77771800  0.77846900  0.18527800  1
  H  74  1  0.83358100  0.83431300  0.20028100  1
  H  75  1  0.86322700  0.86406200  0.11326200  1
  H  76  1  0.87962000  0.80245000  0.15242400  1
  H  77  1  0.94249500  0.84374300  0.17815300  1
  H  78  1  0.91598200  0.88100700  0.18144700  1
  H  79  1  0.80274300  0.87988000  0.15283000  1
  H  80  1  0.88231800  0.91480800  0.18159100  1
  H  81  1  0.84566300  0.94132900  0.17926900  1
  H  87  1  0.86579000  0.86471100  0.07205600  1
  H  88  1  0.81087100  0.80936800  0.23082000  1
  H  89  1  0.78250700  0.92336500  0.15863200  1
  H  90  1  0.92082000  0.78152400  0.15720300  1
  H  115  1  0.81524100  0.19612100  0.93667200  1
  H  116  1  0.79822300  0.21422100  0.90372700  1
  H  117  1  0.78502900  0.22741100  0.86506800  1
  H  118  1  0.77771600  0.23381200  0.82699300  1
  H  119  1  0.83358400  0.17796700  0.81199900  1
  H  120  1  0.86322000  0.14821900  0.89901100  1
  H  121  1  0.87961400  0.20983200  0.85985600  1
  H  122  1  0.94249000  0.16853800  0.83412700  1
  H  123  1  0.91597700  0.13127500  0.83083500  1
  H  124  1  0.80273700  0.13240100  0.85944700  1
  H  125  1  0.88231400  0.09747600  0.83068400  1
  H  126  1  0.84565800  0.07095500  0.83300500  1
  H  132  1  0.86578000  0.14756100  0.94021500  1
  H  133  1  0.81086700  0.20288900  0.78145800  1
  H  134  1  0.78250100  0.08891400  0.85364500  1
  H  135  1  0.92082200  0.23078000  0.85509900  1
  H  160  1  0.19700600  0.81618100  0.93670000  1
  H  161  1  0.21402900  0.79808100  0.90375500  1
  H  162  1  0.22723200  0.78489300  0.86509900  1
  H  163  1  0.23454000  0.77847700  0.82702500  1
  H  164  1  0.17867700  0.83432300  0.81202200  1
  H  165  1  0.14903200  0.86408100  0.89903200  1
  H  166  1  0.13264300  0.80246700  0.85987900  1
  H  167  1  0.06976700  0.84376000  0.83415700  1
  H  168  1  0.09627900  0.88102300  0.83086300  1
  H  169  1  0.20951900  0.87989500  0.85947400  1
  H  170  1  0.12994400  0.91482200  0.83070900  1
  H  171  1  0.16659800  0.94134300  0.83303100  1
  H  177  1  0.14648100  0.86476800  0.94023800  1
  H  178  1  0.20141600  0.80942000  0.78148300  1
  H  179  1  0.22975500  0.92338200  0.85366800  1
  H  180  1  0.09144000  0.78151700  0.85511300  1
  H  205  1  0.19680500  0.19722400  0.93651800  1
  H  206  1  0.21436300  0.21432800  0.90345800  1
  H  207  1  0.22742500  0.22726500  0.86502400  1
  H  208  1  0.23381000  0.23455900  0.82695900  1
  H  209  1  0.17790600  0.17872100  0.81199700  1
  H  210  1  0.14859800  0.14900100  0.89931100  1
  H  211  1  0.20986100  0.13278600  0.85982500  1
  H  212  1  0.16839100  0.07068100  0.83348400  1
  H  213  1  0.13120800  0.09665700  0.83079900  1
  H  214  1  0.13218500  0.20985700  0.85916000  1
  H  215  1  0.09739800  0.13001600  0.83087800  1
  H  216  1  0.07078900  0.16653000  0.83296900  1
  H  222  1  0.14870700  0.14649000  0.94070700  1
  H  223  1  0.20290300  0.20139000  0.78145000  1
  H  224  1  0.08784700  0.22939200  0.85484600  1
  H  225  1  0.23122200  0.09193800  0.85354900  1
  H  250  1  0.81544400  0.81506900  0.93654200  1
  H  251  1  0.79788800  0.79796800  0.90348300  1
  H  252  1  0.78482800  0.78502900  0.86504500  1
  H  253  1  0.77844900  0.77773800  0.82697900  1
  H  254  1  0.83435100  0.83358200  0.81202300  1
  H  255  1  0.86365700  0.86329200  0.89933900  1
  H  256  1  0.80239000  0.87951400  0.85984800  1
  H  257  1  0.84387100  0.94161800  0.83351000  1
  H  258  1  0.88105000  0.91563900  0.83082500  1
  H  259  1  0.88007100  0.80244600  0.85919300  1
  H  260  1  0.91485500  0.88228200  0.83090100  1
  H  261  1  0.94146600  0.84577000  0.83299500  1
  H  267  1  0.86354800  0.86579600  0.94073400  1
  H  268  1  0.80937600  0.81090700  0.78147000  1
  H  269  1  0.92439400  0.78288100  0.85480300  1
  H  270  1  0.78103600  0.92036600  0.85357600  1
  H  295  1  0.19681800  0.81505900  0.07576000  1
  H  296  1  0.21437100  0.79795500  0.10882000  1
  H  297  1  0.22742800  0.78501000  0.14725300  1
  H  298  1  0.23382200  0.77772800  0.18531900  1
  H  299  1  0.17792100  0.83356900  0.20028100  1
  H  300  1  0.14860700  0.86328100  0.11296700  1
  H  301  1  0.20986800  0.87949500  0.15245400  1
  H  302  1  0.16839500  0.94160100  0.17879500  1
  H  303  1  0.13121300  0.91562600  0.18147900  1
  H  304  1  0.13218900  0.80242800  0.15311400  1
  H  305  1  0.09740500  0.88226700  0.18140500  1
  H  306  1  0.07079200  0.84575300  0.17931000  1
  H  312  1  0.14870600  0.86578300  0.07157400  1
  H  313  1  0.20285900  0.81085500  0.23083500  1
  H  314  1  0.08785600  0.78286400  0.15749200  1
  H  315  1  0.23122500  0.92034400  0.15872500  1
  H  340  1  0.81545500  0.19721400  0.07573800  1
  H  341  1  0.79789700  0.21431300  0.10879700  1
  H  342  1  0.78483300  0.22725200  0.14723400  1
  H  343  1  0.77845300  0.23454400  0.18530000  1
  H  344  1  0.83435700  0.17870300  0.20025500  1
  H  345  1  0.86366500  0.14898900  0.11294000  1
  H  346  1  0.80239700  0.13276900  0.15243100  1
  H  347  1  0.84387500  0.07066600  0.17877000  1
  H  348  1  0.88105500  0.09664300  0.18145300  1
  H  349  1  0.88007800  0.20983900  0.15308900  1
  H  350  1  0.91486200  0.13000000  0.18137600  1
  H  351  1  0.94147100  0.16651500  0.17928500  1
  H  357  1  0.86354800  0.14647900  0.07154100  1
  H  358  1  0.80937000  0.20137200  0.23080900  1
  H  359  1  0.92439600  0.22940400  0.15748100  1
  H  360  1  0.78104000  0.09191800  0.15870900  1
  H  385  1  0.69701200  0.69612900  0.57560500  1
  H  386  1  0.71403100  0.71422800  0.60854900  1
  H  387  1  0.72742300  0.72722500  0.64721100  1
  H  388  1  0.73387600  0.73448800  0.68529100  1
  H  389  1  0.67788800  0.67876400  0.70027900  1
  H  390  1  0.64904200  0.64821700  0.61326800  1
  H  391  1  0.63264300  0.70982700  0.65241500  1
  H  392  1  0.56977400  0.66853800  0.67815400  1
  H  393  1  0.59628700  0.63127500  0.68145200  1
  H  394  1  0.70952900  0.63240900  0.65283800  1
  H  395  1  0.62995000  0.59747300  0.68158300  1
  H  396  1  0.66666667  0.57095400  0.67926500  1
  H  402  1  0.64647200  0.64757200  0.57206900  1
  H  403  1  0.70274300  0.70151700  0.73083400  1
  H  404  1  0.72976500  0.58891900  0.65864600  1
  H  405  1  0.59144800  0.73078900  0.65719400  1
  H  430  1  0.31526700  0.31617200  0.57557900  1
  H  431  1  0.29824000  0.29807200  0.60852200  1
  H  432  1  0.28484800  0.28507200  0.64718100  1
  H  433  1  0.27837800  0.27781500  0.68526100  1
  H  434  1  0.33436600  0.33353700  0.70025600  1
  H  435  1  0.36323100  0.36407900  0.61324700  1
  H  436  1  0.37962500  0.30246900  0.65238900  1
  H  437  1  0.44249300  0.34376100  0.67813100  1
  H  438  1  0.41597700  0.38102300  0.68143100  1
  H  439  1  0.30273700  0.37988800  0.65281500  1
  H  440  1  0.38231800  0.41482600  0.68155600  1
  H  441  1  0.34566300  0.44134500  0.67923800  1
  H  447  1  0.36577800  0.36476500  0.57204600  1
  H  448  1  0.30953200  0.31076000  0.73080900  1
  H  449  1  0.28250400  0.42338700  0.65860700  1
  H  450  1  0.42081800  0.28154200  0.65717600  1
  H  475  1  0.31525600  0.69611300  0.43669900  1
  H  476  1  0.29823100  0.71421300  0.40375600  1
  H  477  1  0.28483500  0.72720700  0.36509200  1
  H  478  1  0.27838300  0.73447000  0.32701100  1
  H  479  1  0.33437400  0.67874700  0.31202400  1
  H  480  1  0.36322200  0.64820600  0.39903300  1
  H  481  1  0.37962100  0.70981200  0.35989100  1
  H  482  1  0.44248800  0.66852200  0.33414600  1
  H  483  1  0.41597300  0.63126000  0.33084900  1
  H  484  1  0.30273200  0.63239500  0.35946500  1
  H  485  1  0.38231200  0.59745700  0.33072000  1
  H  486  1  0.34565600  0.57093800  0.33304000  1
  H  492  1  0.36576700  0.64751300  0.44023700  1
  H  493  1  0.30952900  0.70150200  0.28147200  1
  H  494  1  0.28249500  0.58891000  0.35365900  1
  H  495  1  0.42081700  0.73074900  0.35510800  1
  H  520  1  0.69700500  0.31614900  0.43667500  1
  H  521  1  0.71402600  0.29805500  0.40372800  1
  H  522  1  0.72741400  0.28505700  0.36507100  1
  H  523  1  0.73388400  0.27779900  0.32699100  1
  H  524  1  0.67789600  0.33352100  0.31199600  1
  H  525  1  0.64903500  0.36406200  0.39901700  1
  H  526  1  0.63263600  0.30245600  0.35986500  1
  H  527  1  0.56976900  0.34374600  0.33412600  1
  H  528  1  0.59628200  0.38100800  0.33082800  1
  H  529  1  0.70952300  0.37987400  0.35944200  1
  H  530  1  0.62994600  0.41480900  0.33069200  1
  H  531  1  0.66659900  0.44133000  0.33301500  1
  H  537  1  0.64646300  0.36470000  0.44021900  1
  H  538  1  0.70272400  0.31074100  0.28144400  1
  H  539  1  0.72975700  0.42336400  0.35363200  1
  H  540  1  0.59143800  0.28150400  0.35509500  1
  H  565  1  0.69682100  0.69719900  0.43654200  1
  H  566  1  0.71437200  0.71430700  0.40348200  1
  H  567  1  0.72724000  0.72744500  0.36504300  1
  H  568  1  0.73448500  0.73387100  0.32697100  1
  H  569  1  0.67870600  0.67790200  0.31202600  1
  H  570  1  0.64860200  0.64898500  0.39933700  1
  H  571  1  0.70986000  0.63276500  0.35985500  1
  H  572  1  0.66838700  0.57066800  0.33350300  1
  H  573  1  0.63120500  0.59664700  0.33081600  1
  H  574  1  0.63219200  0.70984700  0.35917300  1
  H  575  1  0.59739500  0.63000200  0.33091300  1
  H  576  1  0.57078700  0.66652000  0.33299600  1
  H  582  1  0.64869900  0.64648500  0.44073000  1
  H  583  1  0.70148700  0.70273300  0.28145900  1
  H  584  1  0.58785100  0.72938000  0.35486800  1
  H  585  1  0.73122000  0.59192100  0.35356700  1
  H  610  1  0.31543500  0.31507500  0.43651900  1
  H  611  1  0.29788200  0.29796300  0.40346100  1
  H  612  1  0.28501500  0.28482300  0.36501800  1
  H  613  1  0.27777100  0.27839700  0.32694500  1
  H  614  1  0.33355100  0.33436400  0.31200000  1
  H  615  1  0.36365100  0.36328500  0.39930700  1
  H  616  1  0.30239700  0.37950300  0.35983600  1
  H  617  1  0.34386600  0.44160100  0.33348000  1
  H  618  1  0.38104800  0.41562200  0.33078700  1
  H  619  1  0.38006300  0.30242700  0.35916100  1
  H  620  1  0.41486100  0.38226300  0.33088400  1
  H  621  1  0.44147200  0.34574800  0.33298100  1
  H  627  1  0.36355900  0.36579100  0.44069800  1
  H  628  1  0.31077100  0.30952900  0.28143100  1
  H  629  1  0.42438200  0.28285900  0.35477600  1
  H  630  1  0.28103600  0.42034100  0.35355400  1
  H  655  1  0.69682400  0.31507900  0.57573500  1
  H  656  1  0.71438100  0.29797800  0.60879300  1
  H  657  1  0.72724600  0.28484200  0.64723100  1
  H  658  1  0.73448900  0.27840800  0.68530000  1
  H  659  1  0.67871100  0.33437500  0.70025400  1
  H  660  1  0.64860400  0.36329300  0.61294000  1
  H  661  1  0.70986600  0.37952000  0.65242300  1
  H  662  1  0.66839200  0.44161700  0.67877400  1
  H  663  1  0.63121200  0.41563800  0.68146200  1
  H  664  1  0.63219500  0.30243900  0.65309700  1
  H  665  1  0.59740500  0.38228300  0.68137000  1
  H  666  1  0.57079400  0.34577300  0.67928100  1
  H  672  1  0.64873100  0.36581200  0.57154200  1
  H  673  1  0.70150800  0.30954800  0.73081900  1
  H  674  1  0.58784700  0.28288200  0.65746400  1
  H  675  1  0.73122600  0.42036200  0.65871200  1
  H  700  1  0.31544500  0.69721600  0.57576100  1
  H  701  1  0.29788900  0.71432200  0.60882100  1
  H  702  1  0.28502400  0.72746000  0.64725700  1
  H  703  1  0.27777500  0.73388800  0.68532700  1
  H  704  1  0.33355200  0.67792200  0.70028000  1
  H  705  1  0.36366100  0.64900200  0.61296600  1
  H  706  1  0.30240400  0.63277800  0.65244100  1
  H  707  1  0.34387100  0.57068200  0.67879700  1
  H  708  1  0.38105100  0.59666100  0.68149200  1
  H  709  1  0.38007000  0.70985600  0.65311700  1
  H  710  1  0.41486500  0.63002000  0.68139300  1
  H  711  1  0.44147600  0.66653500  0.67929600  1
  H  717  1  0.36355300  0.64649400  0.57157000  1
  H  718  1  0.31077500  0.70276700  0.73084200  1
  H  719  1  0.42438800  0.72942400  0.65750100  1
  H  720  1  0.28104200  0.59194000  0.65872500  1
  H  726  1  0.29776000  0.24342600  0.26903300  1
  H  727  1  0.27414600  0.21558800  0.24512600  1
  H  729  1  0.21425100  0.26863200  0.24295100  1
  H  731  1  0.24436200  0.31396100  0.27541500  1
  H  739  1  0.71449300  0.76883200  0.26904100  1
  H  740  1  0.73811300  0.79666100  0.24514700  1
  H  742  1  0.79799500  0.74364000  0.24297600  1
  H  744  1  0.76790400  0.69831100  0.27544300  1
  H  752  1  0.71451900  0.24343900  0.74321600  1
  H  753  1  0.73812400  0.21559800  0.76711200  1
  H  755  1  0.79801900  0.26863900  0.76928300  1
  H  757  1  0.76790400  0.31397200  0.73684000  1
  H  765  1  0.29776500  0.76883200  0.74325400  1
  H  766  1  0.27416200  0.79668900  0.76712700  1
  H  768  1  0.21426100  0.74368400  0.76932700  1
  H  770  1  0.24434200  0.69833600  0.73687200  1
  H  778  1  0.24345500  0.29777300  0.74322900  1
  H  779  1  0.21560700  0.27417000  0.76710700  1
  H  781  1  0.26860700  0.21427300  0.76930100  1
  H  783  1  0.31395600  0.24436000  0.73685200  1
  H  791  1  0.76884500  0.71452300  0.74326000  1
  H  792  1  0.79668100  0.73813800  0.76716300  1
  H  794  1  0.74363100  0.79802700  0.76933100  1
  H  796  1  0.69830500  0.76791300  0.73687600  1
  H  804  1  0.24344300  0.71448500  0.26903600  1
  H  805  1  0.21559600  0.73809600  0.24514800  1
  H  807  1  0.26860800  0.79799500  0.24295100  1
  H  809  1  0.31394500  0.76791300  0.27542500  1
  H  817  1  0.76882000  0.29774800  0.26904300  1
  H  818  1  0.79667600  0.27415100  0.24514700  1
  H  820  1  0.74364900  0.21424000  0.24295300  1
  H  822  1  0.69830200  0.24434900  0.27539700  1
  H  830  1  0.98036900  0.23013300  0.13581000  1
  H  831  1  0.02626100  0.23141600  0.13316100  1
  H  833  1  0.03237800  0.19987200  0.19622300  1
  H  835  1  0.96695000  0.19710200  0.20569800  1
  H  843  1  0.03189900  0.78214400  0.13583200  1
  H  844  1  0.98601100  0.78086200  0.13318400  1
  H  846  1  0.97988700  0.81239800  0.19624600  1
  H  848  1  0.04531400  0.81516800  0.20572500  1
  H  856  1  0.03189900  0.23010800  0.87644100  1
  H  857  1  0.98601500  0.23139300  0.87910400  1
  H  859  1  0.97988100  0.19986800  0.81604100  1
  H  861  1  0.04529800  0.19711100  0.80654200  1
  H  869  1  0.98036400  0.78216000  0.87646100  1
  H  870  1  0.02624800  0.78088100  0.87912400  1
  H  872  1  0.03237600  0.81242300  0.81606400  1
  H  874  1  0.96695800  0.81518400  0.80657500  1
  H  882  1  0.17956800  0.98126200  0.17885000  1
  H  883  1  0.17679800  0.02619200  0.17970900  1
  H  885  1  0.25078400  0.03215200  0.15348000  1
  H  887  1  0.26085900  0.96648100  0.15036500  1
  H  895  1  0.17957000  0.03102200  0.83341200  1
  H  896  1  0.17679300  0.98609000  0.83256500  1
  H  898  1  0.25077800  0.98013000  0.85879900  1
  H  900  1  0.26084900  0.04580300  0.86191900  1
  H  908  1  0.83269000  0.03101200  0.17889000  1
  H  909  1  0.83546400  0.98607800  0.17975000  1
  H  911  1  0.76148600  0.98011300  0.15350900  1
  H  913  1  0.75140300  0.04578300  0.15039300  1
  H  921  1  0.83268700  0.98127300  0.83339500  1
  H  922  1  0.83546500  0.02620400  0.83254400  1
  H  924  1  0.76147800  0.03217200  0.85877300  1
  H  926  1  0.75140000  0.96649900  0.86189100  1
  H  934  1  0.17870300  0.12876000  0.98427000  1
  H  935  1  0.18034300  0.12620600  0.02368900  1
  H  937  1  0.14953400  0.19981600  0.02805100  1
  H  939  1  0.14399000  0.20956800  0.97240300  1
  H  947  1  0.83351600  0.12878700  0.02797400  1
  H  948  1  0.83188600  0.12624800  0.98856600  1
  H  950  1  0.86271400  0.19982000  0.98420600  1
  H  952  1  0.86827500  0.20957900  0.03984600  1
  H  960  1  0.17872700  0.88349400  0.02800200  1
  H  961  1  0.18037400  0.88605100  0.98859400  1
  H  963  1  0.14954700  0.81245800  0.98423100  1
  H  965  1  0.14397100  0.80271800  0.03986900  1
  H  973  1  0.83351700  0.88347500  0.98429600  1
  H  974  1  0.83187500  0.88603600  0.02370000  1
  H  976  1  0.86270300  0.81246700  0.02808000  1
  H  978  1  0.86829500  0.80270400  0.97244900  1
  H  986  1  0.48036300  0.73011900  0.63584500  1
  H  987  1  0.52624600  0.73139200  0.63317300  1
  H  989  1  0.53239400  0.69987100  0.69624000  1
  H  991  1  0.46696500  0.69710700  0.70573000  1
  H  999  1  0.53189300  0.28215800  0.63580900  1
  H  1000  1  0.48600500  0.28088700  0.63315700  1
  H  1002  1  0.47988800  0.31242200  0.69622000  1
  H  1004  1  0.54531200  0.31518000  0.70570100  1
  H  1012  1  0.53190100  0.73012700  0.37646500  1
  H  1013  1  0.48600500  0.73140900  0.37911800  1
  H  1015  1  0.47987900  0.69986700  0.31605800  1
  H  1017  1  0.54530500  0.69709500  0.30657300  1
  H  1025  1  0.48035600  0.28217600  0.37643700  1
  H  1026  1  0.52624000  0.28089500  0.37910400  1
  H  1028  1  0.53238900  0.31241400  0.31603700  1
  H  1030  1  0.46696100  0.31517400  0.30654600  1
  H  1038  1  0.67957900  0.48127000  0.67889400  1
  H  1039  1  0.67680500  0.52620300  0.67975000  1
  H  1041  1  0.75079000  0.53216400  0.65351400  1
  H  1043  1  0.76086000  0.46649300  0.65038800  1
  H  1051  1  0.67956700  0.53101100  0.33340100  1
  H  1052  1  0.67679800  0.48608100  0.33253500  1
  H  1054  1  0.75077800  0.48011900  0.35877100  1
  H  1056  1  0.76085700  0.54578800  0.36188500  1
  H  1064  1  0.33269500  0.53102300  0.67885900  1
  H  1065  1  0.33547100  0.48609400  0.67970800  1
  H  1067  1  0.26148700  0.48013300  0.65347300  1
  H  1069  1  0.25141200  0.54580300  0.65036000  1
  H  1077  1  0.33268900  0.48125800  0.33341100  1
  H  1078  1  0.33546000  0.52618900  0.33255800  1
  H  1080  1  0.26147700  0.53214700  0.35879900  1
  H  1082  1  0.25140200  0.46648000  0.36191300  1
  H  1090  1  0.67875200  0.62880600  0.48429900  1
  H  1091  1  0.68039500  0.62625600  0.52369800  1
  H  1093  1  0.64955200  0.69981900  0.52808100  1
  H  1095  1  0.64398700  0.70958200  0.47244000  1
  H  1103  1  0.33354600  0.62876600  0.52800300  1
  H  1104  1  0.33188700  0.62622000  0.48858900  1
  H  1106  1  0.36270800  0.69982300  0.48423300  1
  H  1108  1  0.36827100  0.70956500  0.53987400  1
  H  1116  1  0.67873600  0.38348900  0.52798600  1
  H  1117  1  0.68037500  0.38604000  0.48857200  1
  H  1119  1  0.64955100  0.31247000  0.48419200  1
  H  1121  1  0.64396700  0.30270700  0.53983300  1
  H  1129  1  0.33354200  0.38349200  0.48426300  1
  H  1130  1  0.33189600  0.38605800  0.52367700  1
  H  1132  1  0.36273000  0.31246800  0.52806000  1
  H  1134  1  0.36828900  0.30271200  0.47240900  1
  H  1161  1  0.19701700  0.34924500  0.53508200  1
  H  1162  1  0.21403800  0.36734700  0.56802600  1
  H  1163  1  0.22723400  0.38054100  0.60668800  1
  H  1164  1  0.23455000  0.38694000  0.64476400  1
  H  1165  1  0.17868500  0.33109400  0.65975900  1
  H  1166  1  0.14904300  0.30134500  0.57275000  1
  H  1167  1  0.13264800  0.36296300  0.61190300  1
  H  1168  1  0.06977100  0.32166800  0.63762700  1
  H  1169  1  0.09628300  0.28440500  0.64091900  1
  H  1170  1  0.20952300  0.28553300  0.61230500  1
  H  1171  1  0.12994900  0.25060600  0.64107200  1
  H  1172  1  0.16660200  0.22408500  0.63874700  1
  H  1178  1  0.14648800  0.30066500  0.53155000  1
  H  1179  1  0.20138300  0.35603700  0.69030000  1
  H  1180  1  0.22976300  0.24205300  0.61812100  1
  H  1181  1  0.09144500  0.38390800  0.61666500  1
  H  1206  1  0.81525000  0.96929900  0.53511000  1
  H  1207  1  0.79823000  0.95120700  0.56805700  1
  H  1208  1  0.78503400  0.93801900  0.60671000  1
  H  1209  1  0.77771800  0.93161400  0.64478200  1
  H  1210  1  0.83358100  0.98745800  0.65978500  1
  H  1211  1  0.86322700  0.01720690  0.57276600  1
  H  1212  1  0.87962000  0.95559500  0.61192800  1
  H  1213  1  0.94249500  0.99688800  0.63765700  1
  H  1214  1  0.91598200  0.03415190  0.64095100  1
  H  1215  1  0.80274300  0.03302490  0.61233400  1
  H  1216  1  0.88231800  0.06795290  0.64109500  1
  H  1217  1  0.84566300  0.09447390  0.63877300  1
  H  1223  1  0.86579000  0.01785590  0.53156000  1
  H  1224  1  0.81087100  0.96251300  0.69032400  1
  H  1225  1  0.78250700  0.07650990  0.61813600  1
  H  1226  1  0.92082000  0.93466900  0.61670700  1
  H  1251  1  0.81524100  0.34926600  0.39617600  1
  H  1252  1  0.79822300  0.36736600  0.36323100  1
  H  1253  1  0.78502900  0.38055600  0.32457200  1
  H  1254  1  0.77771600  0.38695700  0.28649700  1
  H  1255  1  0.83358400  0.33111200  0.27150300  1
  H  1256  1  0.86322000  0.30136400  0.35851500  1
  H  1257  1  0.87961400  0.36297700  0.31936000  1
  H  1258  1  0.94249000  0.32168300  0.29363100  1
  H  1259  1  0.91597700  0.28442000  0.29033900  1
  H  1260  1  0.80273700  0.28554600  0.31895100  1
  H  1261  1  0.88231400  0.25062100  0.29018800  1
  H  1262  1  0.84565800  0.22410000  0.29250900  1
  H  1268  1  0.86578000  0.30070600  0.39971900  1
  H  1269  1  0.81086700  0.35603400  0.24096200  1
  H  1270  1  0.78250100  0.24205900  0.31314900  1
  H  1271  1  0.92082200  0.38392500  0.31460300  1
  H  1296  1  0.19700600  0.96932600  0.39620400  1
  H  1297  1  0.21402900  0.95122600  0.36325900  1
  H  1298  1  0.22723200  0.93803800  0.32460300  1
  H  1299  1  0.23454000  0.93162200  0.28652900  1
  H  1300  1  0.17867700  0.98746800  0.27152600  1
  H  1301  1  0.14903200  0.01722590  0.35853600  1
  H  1302  1  0.13264300  0.95561200  0.31938300  1
  H  1303  1  0.06976700  0.99690500  0.29366100  1
  H  1304  1  0.09627900  0.03416790  0.29036700  1
  H  1305  1  0.20951900  0.03303990  0.31897800  1
  H  1306  1  0.12994400  0.06796690  0.29021300  1
  H  1307  1  0.16659800  0.09448790  0.29253500  1
  H  1313  1  0.14648100  0.01791290  0.39974200  1
  H  1314  1  0.20141600  0.96256500  0.24098700  1
  H  1315  1  0.22975500  0.07652690  0.31317200  1
  H  1316  1  0.09144000  0.93466200  0.31461700  1
  H  1341  1  0.19680500  0.35036900  0.39602200  1
  H  1342  1  0.21436300  0.36747300  0.36296200  1
  H  1343  1  0.22742500  0.38041000  0.32452800  1
  H  1344  1  0.23381000  0.38770400  0.28646300  1
  H  1345  1  0.17790600  0.33186600  0.27150100  1
  H  1346  1  0.14859800  0.30214600  0.35881500  1
  H  1347  1  0.20986100  0.28593100  0.31932900  1
  H  1348  1  0.16839100  0.22382600  0.29298800  1
  H  1349  1  0.13120800  0.24980200  0.29030300  1
  H  1350  1  0.13218500  0.36300200  0.31866400  1
  H  1351  1  0.09739800  0.28316100  0.29038200  1
  H  1352  1  0.07078900  0.31967500  0.29247300  1
  H  1358  1  0.14870700  0.29963500  0.40021100  1
  H  1359  1  0.20290300  0.35453500  0.24095400  1
  H  1360  1  0.08784700  0.38253700  0.31435000  1
  H  1361  1  0.23122200  0.24508300  0.31305300  1
  H  1386  1  0.81544400  0.96821400  0.39604600  1
  H  1387  1  0.79788800  0.95111300  0.36298700  1
  H  1388  1  0.78482800  0.93817400  0.32454900  1
  H  1389  1  0.77844900  0.93088300  0.28648300  1
  H  1390  1  0.83435100  0.98672700  0.27152700  1
  H  1391  1  0.86365700  0.01643690  0.35884300  1
  H  1392  1  0.80239000  0.03265890  0.31935200  1
  H  1393  1  0.84387100  0.09476290  0.29301400  1
  H  1394  1  0.88105000  0.06878390  0.29032900  1
  H  1395  1  0.88007100  0.95559100  0.31869700  1
  H  1396  1  0.91485500  0.03542690  0.29040500  1
  H  1397  1  0.94146600  0.99891500  0.29249900  1
  H  1403  1  0.86354800  0.01894090  0.40023800  1
  H  1404  1  0.80937600  0.96405200  0.24097400  1
  H  1405  1  0.92439400  0.93602600  0.31430700  1
  H  1406  1  0.78103600  0.07351090  0.31308000  1
  H  1431  1  0.19681800  0.96820400  0.53526400  1
  H  1432  1  0.21437100  0.95110000  0.56832400  1
  H  1433  1  0.22742800  0.93815500  0.60675700  1
  H  1434  1  0.23382200  0.93087300  0.64482300  1
  H  1435  1  0.17792100  0.98671400  0.65978500  1
  H  1436  1  0.14860700  0.01642590  0.57247100  1
  H  1437  1  0.20986800  0.03263990  0.61195800  1
  H  1438  1  0.16839500  0.09474590  0.63829900  1
  H  1439  1  0.13121300  0.06877090  0.64098300  1
  H  1440  1  0.13218900  0.95557300  0.61261800  1
  H  1441  1  0.09740500  0.03541190  0.64090900  1
  H  1442  1  0.07079200  0.99889800  0.63881400  1
  H  1448  1  0.14870600  0.01892790  0.53107800  1
  H  1449  1  0.20285900  0.96400000  0.69033900  1
  H  1450  1  0.08785600  0.93600900  0.61699600  1
  H  1451  1  0.23122500  0.07348890  0.61822900  1
  H  1476  1  0.81545500  0.35035900  0.53524200  1
  H  1477  1  0.79789700  0.36745800  0.56830100  1
  H  1478  1  0.78483300  0.38039700  0.60673800  1
  H  1479  1  0.77845300  0.38768900  0.64480400  1
  H  1480  1  0.83435700  0.33184800  0.65975900  1
  H  1481  1  0.86366500  0.30213400  0.57244400  1
  H  1482  1  0.80239700  0.28591400  0.61193500  1
  H  1483  1  0.84387500  0.22381100  0.63827400  1
  H  1484  1  0.88105500  0.24978800  0.64095700  1
  H  1485  1  0.88007800  0.36298400  0.61259300  1
  H  1486  1  0.91486200  0.28314500  0.64088000  1
  H  1487  1  0.94147100  0.31966000  0.63878900  1
  H  1493  1  0.86354800  0.29962400  0.53104500  1
  H  1494  1  0.80937000  0.35451700  0.69031300  1
  H  1495  1  0.92439600  0.38254900  0.61698500  1
  H  1496  1  0.78104000  0.24506300  0.61821300  1
  H  1521  1  0.69701200  0.84927400  0.03510880  1
  H  1522  1  0.71403100  0.86737300  0.06805280  1
  H  1523  1  0.72742300  0.88037000  0.10671500  1
  H  1524  1  0.73387600  0.88763300  0.14479500  1
  H  1525  1  0.67788800  0.83190900  0.15978300  1
  H  1526  1  0.64904200  0.80136200  0.07277180  1
  H  1527  1  0.63264300  0.86297200  0.11191900  1
  H  1528  1  0.56977400  0.82168300  0.13765800  1
  H  1529  1  0.59628700  0.78442000  0.14095600  1
  H  1530  1  0.70952900  0.78555400  0.11234200  1
  H  1531  1  0.62995000  0.75061800  0.14108700  1
  H  1532  1  0.66666667  0.72409900  0.13876900  1
  H  1538  1  0.64647200  0.80071700  0.03157280  1
  H  1539  1  0.70274300  0.85466200  0.19033800  1
  H  1540  1  0.72976500  0.74206400  0.11815000  1
  H  1541  1  0.59144800  0.88393400  0.11669800  1
  H  1566  1  0.31526700  0.46931700  0.03508280  1
  H  1567  1  0.29824000  0.45121700  0.06802580  1
  H  1568  1  0.28484800  0.43821700  0.10668500  1
  H  1569  1  0.27837800  0.43096000  0.14476500  1
  H  1570  1  0.33436600  0.48668200  0.15976000  1
  H  1571  1  0.36323100  0.51722400  0.07275080  1
  H  1572  1  0.37962500  0.45561400  0.11189300  1
  H  1573  1  0.44249300  0.49690600  0.13763500  1
  H  1574  1  0.41597700  0.53416800  0.14093500  1
  H  1575  1  0.30273700  0.53303300  0.11231900  1
  H  1576  1  0.38231800  0.56797100  0.14106000  1
  H  1577  1  0.34566300  0.59449000  0.13874200  1
  H  1583  1  0.36577800  0.51791000  0.03154980  1
  H  1584  1  0.30953200  0.46390500  0.19031300  1
  H  1585  1  0.28250400  0.57653200  0.11811100  1
  H  1586  1  0.42081800  0.43468700  0.11668000  1
  H  1611  1  0.31525600  0.84925800  0.89620300  1
  H  1612  1  0.29823100  0.86735800  0.86326000  1
  H  1613  1  0.28483500  0.88035200  0.82459600  1
  H  1614  1  0.27838300  0.88761500  0.78651500  1
  H  1615  1  0.33437400  0.83189200  0.77152800  1
  H  1616  1  0.36322200  0.80135100  0.85853700  1
  H  1617  1  0.37962100  0.86295700  0.81939500  1
  H  1618  1  0.44248800  0.82166700  0.79365000  1
  H  1619  1  0.41597300  0.78440500  0.79035300  1
  H  1620  1  0.30273200  0.78554000  0.81896900  1
  H  1621  1  0.38231200  0.75060200  0.79022400  1
  H  1622  1  0.34565600  0.72408300  0.79254400  1
  H  1628  1  0.36576700  0.80065800  0.89974100  1
  H  1629  1  0.30952900  0.85464700  0.74097600  1
  H  1630  1  0.28249500  0.74205500  0.81316300  1
  H  1631  1  0.42081700  0.88389400  0.81461200  1
  H  1656  1  0.69700500  0.46929400  0.89617900  1
  H  1657  1  0.71402600  0.45120000  0.86323200  1
  H  1658  1  0.72741400  0.43820200  0.82457500  1
  H  1659  1  0.73388400  0.43094400  0.78649500  1
  H  1660  1  0.67789600  0.48666600  0.77150000  1
  H  1661  1  0.64903500  0.51720700  0.85852100  1
  H  1662  1  0.63263600  0.45560100  0.81936900  1
  H  1663  1  0.56976900  0.49689100  0.79363000  1
  H  1664  1  0.59628200  0.53415300  0.79033200  1
  H  1665  1  0.70952300  0.53301900  0.81894600  1
  H  1666  1  0.62994600  0.56795400  0.79019600  1
  H  1667  1  0.66659900  0.59447500  0.79251900  1
  H  1673  1  0.64646300  0.51784500  0.89972300  1
  H  1674  1  0.70272400  0.46388600  0.74094800  1
  H  1675  1  0.72975700  0.57650900  0.81313600  1
  H  1676  1  0.59143800  0.43464900  0.81459900  1
  H  1701  1  0.69682100  0.85034400  0.89604600  1
  H  1702  1  0.71437200  0.86745200  0.86298600  1
  H  1703  1  0.72724000  0.88059000  0.82454700  1
  H  1704  1  0.73448500  0.88701600  0.78647500  1
  H  1705  1  0.67870600  0.83104700  0.77153000  1
  H  1706  1  0.64860200  0.80213000  0.85884100  1
  H  1707  1  0.70986000  0.78591000  0.81935900  1
  H  1708  1  0.66838700  0.72381300  0.79300700  1
  H  1709  1  0.63120500  0.74979200  0.79032000  1
  H  1710  1  0.63219200  0.86299200  0.81867700  1
  H  1711  1  0.59739500  0.78314700  0.79041700  1
  H  1712  1  0.57078700  0.81966500  0.79250000  1
  H  1718  1  0.64869900  0.79963000  0.90023400  1
  H  1719  1  0.70148700  0.85587800  0.74096300  1
  H  1720  1  0.58785100  0.88252500  0.81437200  1
  H  1721  1  0.73122000  0.74506600  0.81307100  1
  H  1746  1  0.31543500  0.46822000  0.89602300  1
  H  1747  1  0.29788200  0.45110800  0.86296500  1
  H  1748  1  0.28501500  0.43796800  0.82452200  1
  H  1749  1  0.27777100  0.43154200  0.78644900  1
  H  1750  1  0.33355100  0.48750900  0.77150400  1
  H  1751  1  0.36365100  0.51643000  0.85881100  1
  H  1752  1  0.30239700  0.53264800  0.81934000  1
  H  1753  1  0.34386600  0.59474600  0.79298400  1
  H  1754  1  0.38104800  0.56876700  0.79029100  1
  H  1755  1  0.38006300  0.45557200  0.81866500  1
  H  1756  1  0.41486100  0.53540800  0.79038800  1
  H  1757  1  0.44147200  0.49889300  0.79248500  1
  H  1763  1  0.36355900  0.51893600  0.90020200  1
  H  1764  1  0.31077100  0.46267400  0.74093500  1
  H  1765  1  0.42438200  0.43600400  0.81428000  1
  H  1766  1  0.28103600  0.57348600  0.81305800  1
  H  1791  1  0.69682400  0.46822400  0.03523880  1
  H  1792  1  0.71438100  0.45112300  0.06829680  1
  H  1793  1  0.72724600  0.43798700  0.10673500  1
  H  1794  1  0.73448900  0.43155300  0.14480400  1
  H  1795  1  0.67871100  0.48752000  0.15975800  1
  H  1796  1  0.64860400  0.51643800  0.07244380  1
  H  1797  1  0.70986600  0.53266500  0.11192700  1
  H  1798  1  0.66839200  0.59476200  0.13827800  1
  H  1799  1  0.63121200  0.56878300  0.14096600  1
  H  1800  1  0.63219500  0.45558400  0.11260100  1
  H  1801  1  0.59740500  0.53542800  0.14087400  1
  H  1802  1  0.57079400  0.49891800  0.13878500  1
  H  1808  1  0.64873100  0.51895700  0.03104580  1
  H  1809  1  0.70150800  0.46269300  0.19032300  1
  H  1810  1  0.58784700  0.43602700  0.11696800  1
  H  1811  1  0.73122600  0.57350700  0.11821600  1
  H  1836  1  0.31544500  0.85036100  0.03526480  1
  H  1837  1  0.29788900  0.86746700  0.06832480  1
  H  1838  1  0.28502400  0.88060500  0.10676100  1
  H  1839  1  0.27777500  0.88703300  0.14483100  1
  H  1840  1  0.33355200  0.83106700  0.15978400  1
  H  1841  1  0.36366100  0.80214700  0.07246980  1
  H  1842  1  0.30240400  0.78592300  0.11194500  1
  H  1843  1  0.34387100  0.72382700  0.13830100  1
  H  1844  1  0.38105100  0.74980600  0.14099600  1
  H  1845  1  0.38007000  0.86300100  0.11262100  1
  H  1846  1  0.41486500  0.78316500  0.14089700  1
  H  1847  1  0.44147600  0.81968000  0.13880000  1
  H  1853  1  0.36355300  0.79963900  0.03107380  1
  H  1854  1  0.31077500  0.85591200  0.19034600  1
  H  1855  1  0.42438800  0.88256900  0.11700500  1
  H  1856  1  0.28104200  0.74508500  0.11822900  1
  H  1862  1  0.29776000  0.39657100  0.72853700  1
  H  1863  1  0.27414600  0.36873300  0.70463000  1
  H  1865  1  0.21425100  0.42177700  0.70245500  1
  H  1867  1  0.24436200  0.46710600  0.73491900  1
  H  1875  1  0.71449300  0.92197700  0.72854500  1
  H  1876  1  0.73811300  0.94980600  0.70465100  1
  H  1878  1  0.79799500  0.89678500  0.70248000  1
  H  1880  1  0.76790400  0.85145600  0.73494700  1
  H  1888  1  0.71451900  0.39658400  0.20272000  1
  H  1889  1  0.73812400  0.36874300  0.22661600  1
  H  1891  1  0.79801900  0.42178400  0.22878700  1
  H  1893  1  0.76790400  0.46711700  0.19634400  1
  H  1901  1  0.29776500  0.92197700  0.20275800  1
  H  1902  1  0.27416200  0.94983400  0.22663100  1
  H  1904  1  0.21426100  0.89682900  0.22883100  1
  H  1906  1  0.24434200  0.85148100  0.19637600  1
  H  1914  1  0.24345500  0.45091800  0.20273300  1
  H  1915  1  0.21560700  0.42731500  0.22661100  1
  H  1917  1  0.26860700  0.36741800  0.22880500  1
  H  1919  1  0.31395600  0.39750500  0.19635600  1
  H  1927  1  0.76884500  0.86766800  0.20276400  1
  H  1928  1  0.79668100  0.89128300  0.22666700  1
  H  1930  1  0.74363100  0.95117200  0.22883500  1
  H  1932  1  0.69830500  0.92105800  0.19638000  1
  H  1940  1  0.24344300  0.86763000  0.72854000  1
  H  1941  1  0.21559600  0.89124100  0.70465200  1
  H  1943  1  0.26860800  0.95114000  0.70245500  1
  H  1945  1  0.31394500  0.92105800  0.73492900  1
  H  1953  1  0.76882000  0.45089300  0.72854700  1
  H  1954  1  0.79667600  0.42729600  0.70465100  1
  H  1956  1  0.74364900  0.36738500  0.70245700  1
  H  1958  1  0.69830200  0.39749400  0.73490100  1
  H  1966  1  0.98036900  0.38327800  0.59531400  1
  H  1967  1  0.02626100  0.38456100  0.59266500  1
  H  1969  1  0.03237800  0.35301700  0.65572700  1
  H  1971  1  0.96695000  0.35024700  0.66520200  1
  H  1979  1  0.03189900  0.93528900  0.59533600  1
  H  1980  1  0.98601100  0.93400700  0.59268800  1
  H  1982  1  0.97988700  0.96554300  0.65575000  1
  H  1984  1  0.04531400  0.96831300  0.66522900  1
  H  1992  1  0.03189900  0.38325300  0.33594500  1
  H  1993  1  0.98601500  0.38453800  0.33860800  1
  H  1995  1  0.97988100  0.35301300  0.27554500  1
  H  1997  1  0.04529800  0.35025600  0.26604600  1
  H  2005  1  0.98036400  0.93530500  0.33596500  1
  H  2006  1  0.02624800  0.93402600  0.33862800  1
  H  2008  1  0.03237600  0.96556800  0.27556800  1
  H  2010  1  0.96695800  0.96832900  0.26607900  1
  H  2018  1  0.17956800  0.13440700  0.63835400  1
  H  2019  1  0.17679800  0.17933700  0.63921300  1
  H  2021  1  0.25078400  0.18529700  0.61298400  1
  H  2023  1  0.26085900  0.11962600  0.60986900  1
  H  2031  1  0.17957000  0.18416700  0.29291600  1
  H  2032  1  0.17679300  0.13923500  0.29206900  1
  H  2034  1  0.25077800  0.13327500  0.31830300  1
  H  2036  1  0.26084900  0.19894800  0.32142300  1
  H  2044  1  0.83269000  0.18415700  0.63839400  1
  H  2045  1  0.83546400  0.13922300  0.63925400  1
  H  2047  1  0.76148600  0.13325800  0.61301300  1
  H  2049  1  0.75140300  0.19892800  0.60989700  1
  H  2057  1  0.83268700  0.13441800  0.29289900  1
  H  2058  1  0.83546500  0.17934900  0.29204800  1
  H  2060  1  0.76147800  0.18531700  0.31827700  1
  H  2062  1  0.75140000  0.11964400  0.32139500  1
  H  2070  1  0.17870300  0.28190500  0.44377400  1
  H  2071  1  0.18034300  0.27935100  0.48319300  1
  H  2073  1  0.14953400  0.35296100  0.48755500  1
  H  2075  1  0.14399000  0.36271300  0.43190700  1
  H  2083  1  0.83351600  0.28193200  0.48747800  1
  H  2084  1  0.83188600  0.27939300  0.44807000  1
  H  2086  1  0.86271400  0.35296500  0.44371000  1
  H  2088  1  0.86827500  0.36272400  0.49935000  1
  H  2096  1  0.17872700  0.03663890  0.48750600  1
  H  2097  1  0.18037400  0.03919590  0.44809800  1
  H  2099  1  0.14954700  0.96560300  0.44373500  1
  H  2101  1  0.14397100  0.95586300  0.49937300  1
  H  2109  1  0.83351700  0.03661990  0.44380000  1
  H  2110  1  0.83187500  0.03918090  0.48320400  1
  H  2112  1  0.86270300  0.96561200  0.48758400  1
  H  2114  1  0.86829500  0.95584900  0.43195300  1
  H  2122  1  0.48036300  0.88326400  0.09534880  1
  H  2123  1  0.52624600  0.88453700  0.09267680  1
  H  2125  1  0.53239400  0.85301600  0.15574400  1
  H  2127  1  0.46696500  0.85025200  0.16523400  1
  H  2135  1  0.53189300  0.43530300  0.09531280  1
  H  2136  1  0.48600500  0.43403200  0.09266080  1
  H  2138  1  0.47988800  0.46556700  0.15572400  1
  H  2140  1  0.54531200  0.46832500  0.16520500  1
  H  2148  1  0.53190100  0.88327200  0.83596900  1
  H  2149  1  0.48600500  0.88455400  0.83862200  1
  H  2151  1  0.47987900  0.85301200  0.77556200  1
  H  2153  1  0.54530500  0.85024000  0.76607700  1
  H  2161  1  0.48035600  0.43532100  0.83594100  1
  H  2162  1  0.52624000  0.43404000  0.83860800  1
  H  2164  1  0.53238900  0.46555900  0.77554100  1
  H  2166  1  0.46696100  0.46831900  0.76605000  1
  H  2174  1  0.67957900  0.63441500  0.13839800  1
  H  2175  1  0.67680500  0.67934800  0.13925400  1
  H  2177  1  0.75079000  0.68530900  0.11301800  1
  H  2179  1  0.76086000  0.61963800  0.10989200  1
  H  2187  1  0.67956700  0.68415600  0.79290500  1
  H  2188  1  0.67679800  0.63922600  0.79203900  1
  H  2190  1  0.75077800  0.63326400  0.81827500  1
  H  2192  1  0.76085700  0.69893300  0.82138900  1
  H  2200  1  0.33269500  0.68416800  0.13836300  1
  H  2201  1  0.33547100  0.63923900  0.13921200  1
  H  2203  1  0.26148700  0.63327800  0.11297700  1
  H  2205  1  0.25141200  0.69894800  0.10986400  1
  H  2213  1  0.33268900  0.63440300  0.79291500  1
  H  2214  1  0.33546000  0.67933400  0.79206200  1
  H  2216  1  0.26147700  0.68529200  0.81830300  1
  H  2218  1  0.25140200  0.61962500  0.82141700  1
  H  2226  1  0.67875200  0.78195100  0.94380300  1
  H  2227  1  0.68039500  0.77940100  0.98320200  1
  H  2229  1  0.64955200  0.85296400  0.98758500  1
  H  2231  1  0.64398700  0.86272700  0.93194400  1
  H  2239  1  0.33354600  0.78191100  0.98750700  1
  H  2240  1  0.33188700  0.77936500  0.94809300  1
  H  2242  1  0.36270800  0.85296800  0.94373700  1
  H  2244  1  0.36827100  0.86271000  0.99937800  1
  H  2252  1  0.67873600  0.53663400  0.98749000  1
  H  2253  1  0.68037500  0.53918500  0.94807600  1
  H  2255  1  0.64955100  0.46561500  0.94369600  1
  H  2257  1  0.64396700  0.45585200  0.99933700  1
  H  2265  1  0.33354200  0.53663700  0.94376700  1
  H  2266  1  0.33189600  0.53920300  0.98318100  1
  H  2268  1  0.36273000  0.46561300  0.98756400  1
  H  2270  1  0.36828900  0.45585700  0.93191300  1
  C  1  1  0.17103400  0.14038600  0.16067800  1
  C  2  1  0.14823600  0.13030000  0.16884300  1
  C  3  1  0.12952200  0.14897900  0.16878200  1
  C  4  1  0.14003600  0.17149100  0.16055800  1
  C  5  1  0.12464300  0.19353900  0.15866700  1
  C  6  1  0.09841700  0.19297000  0.16485200  1
  C  7  1  0.08847700  0.16978600  0.17339700  1
  C  8  1  0.10385900  0.14783500  0.17539900  1
  C  9  1  0.14664700  0.10484400  0.17564000  1
  C  10  1  0.16843900  0.08940700  0.17412200  1
  C  11  1  0.19196800  0.09872800  0.16564500  1
  C  12  1  0.19304300  0.12477400  0.15904800  1
  C  13  1  0.17294200  0.17291200  0.13131400  1
  C  14  1  0.19172300  0.19178900  0.13004900  1
  C  15  1  0.19890400  0.19899900  0.15123600  1
  C  16  1  0.18490400  0.18494400  0.16654900  1
  C  17  1  0.21703800  0.21693000  0.15828300  1
  C  18  1  0.22124900  0.22042700  0.18085100  1
  C  19  1  0.20784700  0.20625000  0.19707100  1
  C  20  1  0.18917600  0.18848700  0.18937000  1
  C  21  1  0.16279500  0.16199100  0.11182800  1
  C  22  1  0.17155800  0.16968700  0.09065100  1
  C  23  1  0.19031000  0.18935900  0.09021600  1
  C  24  1  0.20040600  0.20026600  0.10952500  1
  C  37  1  0.16724300  0.16751200  0.15473900  1
  C  38  1  0.21264500  0.21076000  0.21954300  1
  C  39  1  0.16150100  0.15909800  0.07101500  1
  C  40  1  0.21281200  0.08230000  0.16324800  1
  C  41  1  0.08313900  0.21454100  0.16169300  1
  C  46  1  0.84123200  0.87188200  0.16070500  1
  C  47  1  0.86403100  0.88197000  0.16886600  1
  C  48  1  0.88274600  0.86329000  0.16880900  1
  C  49  1  0.87223300  0.84077800  0.16058200  1
  C  50  1  0.88762600  0.81873100  0.15869100  1
  C  51  1  0.91385200  0.81930500  0.16487300  1
  C  52  1  0.92379000  0.84248200  0.17342200  1
  C  53  1  0.90840900  0.86443500  0.17542000  1
  C  54  1  0.86561800  0.90742500  0.17566700  1
  C  55  1  0.84382600  0.92286000  0.17415200  1
  C  56  1  0.82029700  0.91353900  0.16567200  1
  C  57  1  0.81922500  0.88749700  0.15907100  1
  C  58  1  0.83932400  0.83935900  0.13133800  1
  C  59  1  0.82054100  0.82048400  0.13007400  1
  C  60  1  0.81336400  0.81327100  0.15126100  1
  C  61  1  0.82736300  0.82732600  0.16657300  1
  C  62  1  0.79523100  0.79533800  0.15830500  1
  C  63  1  0.79101700  0.79184000  0.18087200  1
  C  64  1  0.80441300  0.80602000  0.19709400  1
  C  65  1  0.82309100  0.82377900  0.18939400  1
  C  66  1  0.84947100  0.85027700  0.11184800  1
  C  67  1  0.84070400  0.84257700  0.09067300  1
  C  68  1  0.82195300  0.82290400  0.09024200  1
  C  69  1  0.81185700  0.81200200  0.10955400  1
  C  82  1  0.84502500  0.84475800  0.15476300  1
  C  83  1  0.79962500  0.80148300  0.21956200  1
  C  84  1  0.85078200  0.85312100  0.07103000  1
  C  85  1  0.79945000  0.92996600  0.16328700  1
  C  86  1  0.92913000  0.79775000  0.16173200  1
  C  91  1  0.84122800  0.14039800  0.85157500  1
  C  92  1  0.86402600  0.13031300  0.84341200  1
  C  93  1  0.88274000  0.14899300  0.84347100  1
  C  94  1  0.87222500  0.17150600  0.85169500  1
  C  95  1  0.88761600  0.19355600  0.85357900  1
  C  96  1  0.91384400  0.19298600  0.84739900  1
  C  97  1  0.92378400  0.16980100  0.83885500  1
  C  98  1  0.90840400  0.14784800  0.83685600  1
  C  99  1  0.86561500  0.10485700  0.83661300  1
  C  100  1  0.84382300  0.08942200  0.83812800  1
  C  101  1  0.82029100  0.09874200  0.84660400  1
  C  102  1  0.81921900  0.12478700  0.85320300  1
  C  103  1  0.83931300  0.17291900  0.88093900  1
  C  104  1  0.82053700  0.19180300  0.88220300  1
  C  105  1  0.81335500  0.19901000  0.86101600  1
  C  106  1  0.82735100  0.18495000  0.84570500  1
  C  107  1  0.79522300  0.21694100  0.85397000  1
  C  108  1  0.79101200  0.22043900  0.83140300  1
  C  109  1  0.80440900  0.20625600  0.81518200  1
  C  110  1  0.82308700  0.18850000  0.82288400  1
  C  111  1  0.84946200  0.16200400  0.90042700  1
  C  112  1  0.84069400  0.16969900  0.92160200  1
  C  113  1  0.82194300  0.18937400  0.92203500  1
  C  114  1  0.81185000  0.20027900  0.90272400  1
  C  127  1  0.84501800  0.16752400  0.85751400  1
  C  128  1  0.79963400  0.21079500  0.79271300  1
  C  129  1  0.85076800  0.15914400  0.94124100  1
  C  130  1  0.79944600  0.08231500  0.84899200  1
  C  131  1  0.92912400  0.21455800  0.85056300  1
  C  136  1  0.17102900  0.87189900  0.85160000  1
  C  137  1  0.14823100  0.88198400  0.84343700  1
  C  138  1  0.12951700  0.86330400  0.84349400  1
  C  139  1  0.14003100  0.84079100  0.85172000  1
  C  140  1  0.12463800  0.81874400  0.85361000  1
  C  141  1  0.09841300  0.81931100  0.84742500  1
  C  142  1  0.08847400  0.84249500  0.83888000  1
  C  143  1  0.10385500  0.86444800  0.83687900  1
  C  144  1  0.14664200  0.90744000  0.83663600  1
  C  145  1  0.16843400  0.92287700  0.83815400  1
  C  146  1  0.19196100  0.91355600  0.84663500  1
  C  147  1  0.19303700  0.88751000  0.85322900  1
  C  148  1  0.17293500  0.83937300  0.88096400  1
  C  149  1  0.19171900  0.82049800  0.88222900  1
  C  150  1  0.19889600  0.81328300  0.86104300  1
  C  151  1  0.18489900  0.82733900  0.84573000  1
  C  152  1  0.21703400  0.79535500  0.85399900  1
  C  153  1  0.22124100  0.79184600  0.83143200  1
  C  154  1  0.20783000  0.80601200  0.81521000  1
  C  155  1  0.18916800  0.82378600  0.82290900  1
  C  156  1  0.16278800  0.85029400  0.90045000  1
  C  157  1  0.17154500  0.84259300  0.92162600  1
  C  158  1  0.19030100  0.82292300  0.92206100  1
  C  159  1  0.20039800  0.81201700  0.90275200  1
  C  172  1  0.16723800  0.84477300  0.85753900  1
  C  173  1  0.21261600  0.80147500  0.79274200  1
  C  174  1  0.16148800  0.85318100  0.94126200  1
  C  175  1  0.21281000  0.92998100  0.84901800  1
  C  176  1  0.08313500  0.79773800  0.85058600  1
  C  181  1  0.14027000  0.17129600  0.85158800  1
  C  182  1  0.13021700  0.14846700  0.84348300  1
  C  183  1  0.14889900  0.12977200  0.84366000  1
  C  184  1  0.17145500  0.14021100  0.85185300  1
  C  185  1  0.19352700  0.12477000  0.85368200  1
  C  186  1  0.19301800  0.09856200  0.84738900  1
  C  187  1  0.16973700  0.08893800  0.83880800  1
  C  188  1  0.14773000  0.10419200  0.83697000  1
  C  189  1  0.10478900  0.14679400  0.83663000  1
  C  190  1  0.08935000  0.16858800  0.83788700  1
  C  191  1  0.09864200  0.19231200  0.84603300  1
  C  192  1  0.12462500  0.19334600  0.85293100  1
  C  193  1  0.17291100  0.17310300  0.88100000  1
  C  194  1  0.19182200  0.19185800  0.88215000  1
  C  195  1  0.19897300  0.19899500  0.86096900  1
  C  196  1  0.18487800  0.18499200  0.84570000  1
  C  197  1  0.21694300  0.21708100  0.85393000  1
  C  198  1  0.22043100  0.22127200  0.83137000  1
  C  199  1  0.20623100  0.20786800  0.81516600  1
  C  200  1  0.18845400  0.18921000  0.82287600  1
  C  201  1  0.16235500  0.16280900  0.90058600  1
  C  202  1  0.17059100  0.17136900  0.92168600  1
  C  203  1  0.18991900  0.19045300  0.92195100  1
  C  204  1  0.20047800  0.20063700  0.90257000  1
  C  217  1  0.16741300  0.16742800  0.85758500  1
  C  218  1  0.21076500  0.21265700  0.79270100  1
  C  219  1  0.16078000  0.16112600  0.94150500  1
  C  220  1  0.08188200  0.21299000  0.84844100  1
  C  221  1  0.21489400  0.08334000  0.84976800  1
  C  226  1  0.87198200  0.84100200  0.85161000  1
  C  227  1  0.88203600  0.86383000  0.84350400  1
  C  228  1  0.86335800  0.88252700  0.84369100  1
  C  229  1  0.84080100  0.87208800  0.85188000  1
  C  230  1  0.81872500  0.88752700  0.85370000  1
  C  231  1  0.81923900  0.91373600  0.84740700  1
  C  232  1  0.84252100  0.92335800  0.83882700  1
  C  233  1  0.86452800  0.90810400  0.83699200  1
  C  234  1  0.90746200  0.86550300  0.83664600  1
  C  235  1  0.92290500  0.84371300  0.83791600  1
  C  236  1  0.91361300  0.81999000  0.84605900  1
  C  237  1  0.88762700  0.81895300  0.85295400  1
  C  238  1  0.83934200  0.83919500  0.88102400  1
  C  239  1  0.82042600  0.82044400  0.88217500  1
  C  240  1  0.81328100  0.81330400  0.86099300  1
  C  241  1  0.82738200  0.82730100  0.84572600  1
  C  242  1  0.79531300  0.79521500  0.85395300  1
  C  243  1  0.79182600  0.79102700  0.83139100  1
  C  244  1  0.80602100  0.80443900  0.81518900  1
  C  245  1  0.82380500  0.82308800  0.82290200  1
  C  246  1  0.84989700  0.84948600  0.90061200  1
  C  247  1  0.84166100  0.84092300  0.92171200  1
  C  248  1  0.82233000  0.82184200  0.92197800  1
  C  249  1  0.81177100  0.81166100  0.90259500  1
  C  262  1  0.84484000  0.84487100  0.85760900  1
  C  263  1  0.80150800  0.79964500  0.79272300  1
  C  264  1  0.85147500  0.85115900  0.94153100  1
  C  265  1  0.93038600  0.79933100  0.84850500  1
  C  266  1  0.79736400  0.92896100  0.84978100  1
  C  271  1  0.14027800  0.84098500  0.16069500  1
  C  272  1  0.13022400  0.86381500  0.16879900  1
  C  273  1  0.14890500  0.88251000  0.16861800  1
  C  274  1  0.17145900  0.87207300  0.16042300  1
  C  275  1  0.19353300  0.88751200  0.15859600  1
  C  276  1  0.19302300  0.91372100  0.16489000  1
  C  277  1  0.16974300  0.92334400  0.17347200  1
  C  278  1  0.14773500  0.90809100  0.17530900  1
  C  279  1  0.10479600  0.86548800  0.17565500  1
  C  280  1  0.08935600  0.84369500  0.17439600  1
  C  281  1  0.09864400  0.81997700  0.16623700  1
  C  282  1  0.12463300  0.81893600  0.15935600  1
  C  283  1  0.17291800  0.83917900  0.13128000  1
  C  284  1  0.19183000  0.82042500  0.13012800  1
  C  285  1  0.19897900  0.81328800  0.15130900  1
  C  286  1  0.18488600  0.82729200  0.16657800  1
  C  287  1  0.21694900  0.79520000  0.15834700  1
  C  288  1  0.22044300  0.79101500  0.18090800  1
  C  289  1  0.20626200  0.80443500  0.19711200  1
  C  290  1  0.18846600  0.82307600  0.18940200  1
  C  291  1  0.16236500  0.84947500  0.11169200  1
  C  292  1  0.17060500  0.84091600  0.09059200  1
  C  293  1  0.18993100  0.82183200  0.09032600  1
  C  294  1  0.20048900  0.81164800  0.10970800  1
  C  307  1  0.16742000  0.84485300  0.15469500  1
  C  308  1  0.21080200  0.79965500  0.21957500  1
  C  309  1  0.16078900  0.85115500  0.07077400  1
  C  310  1  0.08188300  0.79930600  0.16381800  1
  C  311  1  0.21489800  0.92894400  0.16250900  1
  C  316  1  0.87198900  0.17128200  0.16067000  1
  C  317  1  0.88204100  0.14845300  0.16877400  1
  C  318  1  0.86336300  0.12975500  0.16858700  1
  C  319  1  0.84080500  0.14019500  0.16040100  1
  C  320  1  0.81873100  0.12475500  0.15857600  1
  C  321  1  0.81924400  0.09854700  0.16487000  1
  C  322  1  0.84252600  0.08892400  0.17345000  1
  C  323  1  0.86453300  0.10417800  0.17528400  1
  C  324  1  0.90746900  0.14678000  0.17563200  1
  C  325  1  0.92291000  0.16857100  0.17436500  1
  C  326  1  0.91361800  0.19229700  0.16622500  1
  C  327  1  0.88763300  0.19333000  0.15932800  1
  C  328  1  0.83935100  0.17308900  0.13125400  1
  C  329  1  0.82043800  0.19184300  0.13010400  1
  C  330  1  0.81328700  0.19897900  0.15128500  1
  C  331  1  0.82738800  0.18498200  0.16655200  1
  C  332  1  0.79531900  0.21706600  0.15832500  1
  C  333  1  0.79183300  0.22125600  0.18088700  1
  C  334  1  0.80603200  0.20785200  0.19708900  1
  C  335  1  0.82380700  0.18919300  0.18937800  1
  C  336  1  0.84990700  0.16279700  0.11166600  1
  C  337  1  0.84167300  0.17136000  0.09056700  1
  C  338  1  0.82234200  0.19044200  0.09030200  1
  C  339  1  0.81178200  0.20062400  0.10968500  1
  C  352  1  0.84484600  0.16741300  0.15466900  1
  C  353  1  0.80151200  0.21264000  0.21955600  1
  C  354  1  0.85148200  0.16112100  0.07074700  1
  C  355  1  0.93038900  0.21295400  0.16377900  1
  C  356  1  0.79736700  0.08332300  0.16249700  1
  C  361  1  0.67105300  0.64042600  0.66074800  1
  C  362  1  0.64824600  0.63032000  0.66888100  1
  C  363  1  0.62951600  0.64898500  0.66879600  1
  C  364  1  0.64001100  0.67148800  0.66053800  1
  C  365  1  0.62463100  0.69354400  0.65866900  1
  C  366  1  0.59841200  0.69298300  0.66487100  1
  C  367  1  0.58847700  0.66979900  0.67341900  1
  C  368  1  0.60385800  0.64784600  0.67542300  1
  C  369  1  0.64665300  0.60486000  0.67567100  1
  C  370  1  0.66844400  0.58942300  0.67415300  1
  C  371  1  0.69197500  0.59874700  0.66568000  1
  C  372  1  0.69305300  0.62480100  0.65909700  1
  C  373  1  0.67298600  0.67288500  0.63134000  1
  C  374  1  0.69180000  0.69173100  0.63007500  1
  C  375  1  0.69883200  0.69909000  0.65126100  1
  C  376  1  0.68471400  0.68515000  0.66657200  1
  C  377  1  0.71689200  0.71709400  0.65831000  1
  C  378  1  0.72045700  0.72124200  0.68087900  1
  C  379  1  0.70631400  0.70781000  0.69710200  1
  C  380  1  0.68840600  0.68927700  0.68939500  1
  C  381  1  0.66282300  0.66197900  0.61185200  1
  C  382  1  0.67158200  0.66968200  0.59067600  1
  C  383  1  0.69033200  0.68935800  0.59024200  1
  C  384  1  0.70044300  0.70025000  0.60955300  1
  C  397  1  0.66722900  0.66754000  0.65476300  1
  C  398  1  0.71088100  0.71257400  0.71957100  1
  C  399  1  0.66150300  0.65912700  0.57103700  1
  C  400  1  0.71281400  0.58231300  0.66327700  1
  C  401  1  0.58314200  0.71456300  0.66171600  1
  C  406  1  0.34121300  0.37187100  0.66072700  1
  C  407  1  0.36402100  0.38197800  0.66885500  1
  C  408  1  0.38274900  0.36331400  0.66877000  1
  C  409  1  0.37225500  0.34080900  0.66051400  1
  C  410  1  0.38763700  0.31875400  0.65864400  1
  C  411  1  0.41385500  0.31932500  0.66484100  1
  C  412  1  0.42379000  0.34250100  0.67339300  1
  C  413  1  0.40840800  0.36445500  0.67539200  1
  C  414  1  0.36561400  0.40743900  0.67564400  1
  C  415  1  0.34382100  0.42287400  0.67413100  1
  C  416  1  0.32029300  0.41355100  0.66565300  1
  C  417  1  0.31921500  0.38749900  0.65906900  1
  C  418  1  0.33928600  0.33941200  0.63131500  1
  C  419  1  0.32047400  0.32056500  0.63004800  1
  C  420  1  0.31343600  0.31320800  0.65123500  1
  C  421  1  0.32755000  0.32714800  0.66654800  1
  C  422  1  0.29537200  0.29520600  0.65828200  1
  C  423  1  0.29179800  0.29106200  0.68085200  1
  C  424  1  0.30593200  0.30450000  0.69707400  1
  C  425  1  0.32384700  0.32302700  0.68937000  1
  C  426  1  0.34944900  0.35031700  0.61182900  1
  C  427  1  0.34069600  0.34261200  0.59065100  1
  C  428  1  0.32194500  0.32294100  0.59021600  1
  C  429  1  0.31182700  0.31205000  0.60952700  1
  C  442  1  0.34503800  0.34475600  0.65473900  1
  C  443  1  0.30135500  0.29973700  0.71954300  1
  C  444  1  0.35077700  0.35317000  0.57101400  1
  C  445  1  0.29945000  0.42998300  0.66325900  1
  C  446  1  0.42912800  0.29776600  0.66170300  1
  C  451  1  0.34120900  0.64041200  0.35155500  1
  C  452  1  0.36401400  0.63030500  0.34342200  1
  C  453  1  0.38274600  0.64896900  0.34350900  1
  C  454  1  0.37225100  0.67147200  0.35176600  1
  C  455  1  0.38763100  0.69353100  0.35362700  1
  C  456  1  0.41384900  0.69296200  0.34742900  1
  C  457  1  0.42378500  0.66978200  0.33888400  1
  C  458  1  0.40840300  0.64782900  0.33688300  1
  C  459  1  0.36560900  0.60484500  0.33663600  1
  C  460  1  0.34381600  0.58940800  0.33815200  1
  C  461  1  0.32028700  0.59873400  0.34662500  1
  C  462  1  0.31920900  0.62478800  0.35320600  1
  C  463  1  0.33927200  0.67286600  0.38096300  1
  C  464  1  0.32046200  0.69171600  0.38222800  1
  C  465  1  0.31343200  0.69907700  0.36104400  1
  C  466  1  0.32755000  0.68513900  0.34573200  1
  C  467  1  0.29537000  0.71707900  0.35399300  1
  C  468  1  0.29180500  0.72122700  0.33142400  1
  C  469  1  0.30595200  0.70779800  0.31520100  1
  C  470  1  0.32385600  0.68926200  0.32290800  1
  C  471  1  0.34944200  0.66196800  0.40045100  1
  C  472  1  0.34069100  0.66967700  0.42162700  1
  C  473  1  0.32193300  0.68934400  0.42206200  1
  C  474  1  0.31181800  0.70023300  0.40275200  1
  C  487  1  0.34503300  0.66752700  0.35754000  1
  C  488  1  0.30137700  0.71255300  0.29273200  1
  C  489  1  0.35076800  0.65911300  0.44126300  1
  C  490  1  0.29944400  0.58230200  0.34902700  1
  C  491  1  0.42912400  0.71452500  0.35057800  1
  C  496  1  0.67104700  0.37185700  0.35153200  1
  C  497  1  0.64824000  0.38196300  0.34339700  1
  C  498  1  0.62951300  0.36329800  0.34348100  1
  C  499  1  0.64000700  0.34079400  0.35174000  1
  C  500  1  0.62462500  0.31873900  0.35360900  1
  C  501  1  0.59840900  0.31930200  0.34740800  1
  C  502  1  0.58847200  0.34248400  0.33885800  1
  C  503  1  0.60385300  0.36443700  0.33685600  1
  C  504  1  0.64664800  0.40742300  0.33660800  1
  C  505  1  0.66843800  0.42286000  0.33812900  1
  C  506  1  0.69196500  0.41353800  0.34660900  1
  C  507  1  0.69304700  0.38748200  0.35318300  1
  C  508  1  0.67297600  0.33939600  0.38094200  1
  C  509  1  0.69178800  0.32054800  0.38220400  1
  C  510  1  0.69882200  0.31319100  0.36101900  1
  C  511  1  0.68471200  0.32713300  0.34570600  1
  C  512  1  0.71688700  0.29518900  0.35397000  1
  C  513  1  0.72046400  0.29104800  0.33140200  1
  C  514  1  0.70633500  0.30448900  0.31517800  1
  C  515  1  0.68841500  0.32301200  0.32288300  1
  C  516  1  0.66281400  0.35029800  0.40043100  1
  C  517  1  0.67156600  0.34258600  0.42160800  1
  C  518  1  0.69032400  0.32292000  0.42203800  1
  C  519  1  0.70043600  0.31203300  0.40272500  1
  C  532  1  0.66722400  0.34474100  0.35751700  1
  C  533  1  0.71091100  0.29972200  0.29270900  1
  C  534  1  0.66149200  0.35314300  0.44125000  1
  C  535  1  0.71280800  0.42997000  0.34900500  1
  C  536  1  0.58313600  0.29772600  0.35056400  1
  C  541  1  0.64029800  0.67130000  0.35156800  1
  C  542  1  0.63022300  0.64846200  0.34349500  1
  C  543  1  0.64888900  0.62975200  0.34369900  1
  C  544  1  0.67143600  0.64016900  0.35192400  1
  C  545  1  0.69351900  0.62474400  0.35372800  1
  C  546  1  0.69301200  0.59854300  0.34741400  1
  C  547  1  0.66973100  0.58892300  0.33883300  1
  C  548  1  0.64772400  0.60417600  0.33699700  1
  C  549  1  0.60478900  0.64678500  0.33665200  1
  C  550  1  0.58935200  0.66858000  0.33790600  1
  C  551  1  0.59864800  0.69230400  0.34604600  1
  C  552  1  0.62463800  0.69334100  0.35293000  1
  C  553  1  0.67287300  0.67313000  0.38102400  1
  C  554  1  0.69175500  0.69191300  0.38217400  1
  C  555  1  0.69904800  0.69890800  0.36099400  1
  C  556  1  0.68506800  0.68478800  0.34572700  1
  C  557  1  0.71709000  0.71692200  0.35395100  1
  C  558  1  0.72122800  0.72046300  0.33138700  1
  C  559  1  0.70778000  0.70630900  0.31518500  1
  C  560  1  0.68922300  0.68842700  0.32290100  1
  C  561  1  0.66233800  0.66281400  0.40061200  1
  C  562  1  0.67058400  0.67136500  0.42171100  1
  C  563  1  0.68991100  0.69045100  0.42197700  1
  C  564  1  0.70045000  0.70065400  0.40259400  1
  C  577  1  0.66742900  0.66739900  0.35761000  1
  C  578  1  0.71255000  0.71086900  0.29271900  1
  C  579  1  0.66078600  0.66111000  0.44152700  1
  C  580  1  0.58188400  0.71298000  0.34846000  1
  C  581  1  0.71489300  0.58332600  0.34978100  1
  C  586  1  0.37195400  0.34096800  0.35154000  1
  C  587  1  0.38203000  0.36380400  0.34346400  1
  C  588  1  0.36336700  0.38251800  0.34367800  1
  C  589  1  0.34081800  0.37209800  0.35189900  1
  C  590  1  0.31873400  0.38752400  0.35370100  1
  C  591  1  0.31924200  0.41372500  0.34739300  1
  C  592  1  0.34252000  0.42334500  0.33880700  1
  C  593  1  0.36452900  0.40809100  0.33697000  1
  C  594  1  0.40746400  0.36548100  0.33662100  1
  C  595  1  0.42290600  0.34369200  0.33789300  1
  C  596  1  0.41361000  0.31997000  0.34603700  1
  C  597  1  0.38761400  0.31893000  0.35290900  1
  C  598  1  0.33938000  0.33913800  0.38099700  1
  C  599  1  0.32050000  0.32035300  0.38215000  1
  C  600  1  0.31320600  0.31336000  0.36097000  1
  C  601  1  0.32718300  0.32748200  0.34570300  1
  C  602  1  0.29516300  0.29534600  0.35392600  1
  C  603  1  0.29102700  0.29180300  0.33136300  1
  C  604  1  0.30448200  0.30595300  0.31515900  1
  C  605  1  0.32303100  0.32384100  0.32287700  1
  C  606  1  0.34991700  0.34945400  0.40058400  1
  C  607  1  0.34167000  0.34090900  0.42168500  1
  C  608  1  0.32234500  0.32182100  0.42195200  1
  C  609  1  0.31180500  0.31161600  0.40257100  1
  C  622  1  0.34482500  0.34486900  0.35758400  1
  C  623  1  0.29970600  0.30140300  0.29269200  1
  C  624  1  0.35147000  0.35116700  0.44150100  1
  C  625  1  0.43038300  0.29931200  0.34849300  1
  C  626  1  0.29736300  0.42894200  0.34976800  1
  C  631  1  0.64030500  0.34098300  0.66071400  1
  C  632  1  0.63023200  0.36382100  0.66878600  1
  C  633  1  0.64889700  0.38253100  0.66857900  1
  C  634  1  0.67144400  0.37211400  0.66035300  1
  C  635  1  0.69352700  0.38754100  0.65855100  1
  C  636  1  0.69302000  0.41374100  0.66486400  1
  C  637  1  0.66973800  0.42336000  0.67344700  1
  C  638  1  0.64772900  0.40810700  0.67528200  1
  C  639  1  0.60480000  0.36550000  0.67563300  1
  C  640  1  0.58935900  0.34370900  0.67437400  1
  C  641  1  0.59865000  0.31999100  0.66621800  1
  C  642  1  0.62464600  0.31894200  0.65935300  1
  C  643  1  0.67287800  0.33915300  0.63125300  1
  C  644  1  0.69176300  0.32037200  0.63010300  1
  C  645  1  0.69905600  0.31337700  0.65128200  1
  C  646  1  0.68507700  0.32749700  0.66655100  1
  C  647  1  0.71709800  0.29536300  0.65832300  1
  C  648  1  0.72123400  0.29181800  0.68088600  1
  C  649  1  0.70778200  0.30596500  0.69709000  1
  C  650  1  0.68923100  0.32385400  0.68937700  1
  C  651  1  0.66233900  0.34946400  0.61166500  1
  C  652  1  0.67058200  0.34090900  0.59056600  1
  C  653  1  0.68991100  0.32182700  0.59030000  1
  C  654  1  0.70045500  0.31162700  0.60968300  1
  C  667  1  0.66743700  0.34488500  0.65466800  1
  C  668  1  0.71254600  0.30139300  0.71955500  1
  C  669  1  0.66078400  0.35116000  0.57074600  1
  C  670  1  0.58188000  0.29932400  0.66379200  1
  C  671  1  0.71490100  0.42895700  0.66249900  1
  C  676  1  0.37196000  0.67131300  0.66073800  1
  C  677  1  0.38203500  0.64847700  0.66881400  1
  C  678  1  0.36337200  0.62976500  0.66860100  1
  C  679  1  0.34082400  0.64018500  0.66037900  1
  C  680  1  0.31874000  0.62475700  0.65857500  1
  C  681  1  0.31924800  0.59855600  0.66488200  1
  C  682  1  0.34252500  0.58893900  0.67347200  1
  C  683  1  0.36453400  0.60419000  0.67530800  1
  C  684  1  0.40746700  0.64680200  0.67565900  1
  C  685  1  0.42291100  0.66859100  0.67438400  1
  C  686  1  0.41361600  0.69231300  0.66624100  1
  C  687  1  0.38761900  0.69335300  0.65937000  1
  C  688  1  0.33938900  0.67314300  0.63127900  1
  C  689  1  0.32050600  0.69192900  0.63012900  1
  C  690  1  0.31321200  0.69892200  0.65130900  1
  C  691  1  0.32718800  0.68480000  0.66657600  1
  C  692  1  0.29517100  0.71693700  0.65834900  1
  C  693  1  0.29103200  0.72048100  0.68091200  1
  C  694  1  0.30447800  0.70632600  0.69711600  1
  C  695  1  0.32303700  0.68844500  0.68940200  1
  C  696  1  0.34992800  0.66283300  0.61169100  1
  C  697  1  0.34168200  0.67138400  0.59059200  1
  C  698  1  0.32235500  0.69046800  0.59032600  1
  C  699  1  0.31181400  0.70067100  0.60970900  1
  C  712  1  0.34483100  0.66741200  0.65469400  1
  C  713  1  0.29970600  0.71089200  0.71958300  1
  C  714  1  0.35147800  0.66112900  0.57077200  1
  C  715  1  0.43038900  0.71297100  0.66378800  1
  C  716  1  0.29736900  0.58333900  0.66250900  1
  C  721  1  0.24117000  0.23877600  0.24266100  1
  C  722  1  0.26607500  0.23252400  0.24983100  1
  C  723  1  0.28026100  0.24924400  0.26343700  1
  C  724  1  0.27076400  0.27347700  0.26964500  1
  C  725  1  0.24573900  0.27999500  0.26231300  1
  C  728  1  0.23172800  0.26300400  0.24876900  1
  C  734  1  0.77114800  0.77355900  0.24273400  1
  C  735  1  0.74619900  0.77973400  0.24986200  1
  C  736  1  0.73200000  0.76301700  0.26345800  1
  C  737  1  0.74149700  0.73879100  0.26967400  1
  C  738  1  0.76652300  0.73227800  0.26234000  1
  C  741  1  0.78052400  0.74928300  0.24880500  1
  C  747  1  0.77109000  0.23879100  0.76959500  1
  C  748  1  0.74618900  0.23254100  0.76242300  1
  C  749  1  0.73200600  0.24927400  0.74882700  1
  C  750  1  0.74144600  0.27354800  0.74265100  1
  C  751  1  0.76651000  0.28000300  0.74994400  1
  C  754  1  0.78053200  0.26301300  0.76348000  1
  C  760  1  0.24114200  0.77358700  0.76956200  1
  C  761  1  0.26607600  0.77975900  0.76242700  1
  C  762  1  0.28026000  0.76301700  0.74884200  1
  C  763  1  0.27081100  0.73874900  0.74267300  1
  C  764  1  0.24574900  0.73230900  0.74997700  1
  C  767  1  0.23174100  0.74931400  0.76351100  1
  C  773  1  0.23870900  0.24114200  0.76955200  1
  C  774  1  0.23254300  0.26608800  0.76241700  1
  C  775  1  0.24927700  0.28027500  0.74882400  1
  C  776  1  0.27355200  0.27081800  0.74267000  1
  C  777  1  0.27999200  0.24576100  0.74996400  1
  C  780  1  0.26297900  0.23175600  0.76349000  1
  C  786  1  0.77348700  0.77110800  0.76962400  1
  C  787  1  0.77974100  0.74620300  0.76246300  1
  C  788  1  0.76301800  0.73201800  0.74886000  1
  C  789  1  0.73877500  0.74149000  0.74265000  1
  C  790  1  0.73227400  0.76653100  0.74997400  1
  C  793  1  0.74926100  0.78054800  0.76351600  1
  C  799  1  0.23869300  0.77112200  0.24273900  1
  C  800  1  0.23251900  0.74618400  0.24986500  1
  C  801  1  0.24924900  0.73199300  0.26345500  1
  C  802  1  0.27347300  0.74150200  0.26966600  1
  C  803  1  0.27998000  0.76652600  0.26232100  1
  C  806  1  0.26297200  0.78052300  0.24878200  1
  C  812  1  0.77348800  0.24118100  0.24265200  1
  C  813  1  0.77973000  0.26608400  0.24983100  1
  C  814  1  0.76299100  0.28025900  0.26343000  1
  C  815  1  0.73870900  0.27080500  0.26957800  1
  C  816  1  0.73226400  0.24574400  0.26228500  1
  C  819  1  0.74926600  0.23173000  0.24875600  1
  C  825  1  0.03342100  0.21569700  0.16451100  1
  C  826  1  0.01801000  0.22512300  0.14736200  1
  C  827  1  0.99111800  0.22470600  0.14902400  1
  C  828  1  0.97904500  0.21532400  0.16803600  1
  C  829  1  0.99451100  0.20603900  0.18548000  1
  C  832  1  0.02139400  0.20656200  0.18357000  1
  C  838  1  0.97884800  0.79661500  0.16453200  1
  C  839  1  0.99426100  0.78714500  0.14739100  1
  C  840  1  0.02115400  0.78754900  0.14905400  1
  C  841  1  0.03322200  0.79695200  0.16805900  1
  C  842  1  0.01775600  0.80622600  0.18550700  1
  C  845  1  0.99087400  0.80571200  0.18359600  1
  C  851  1  0.97884300  0.21571400  0.84774700  1
  C  852  1  0.99425800  0.22515000  0.86488400  1
  C  853  1  0.02115100  0.22473700  0.86321000  1
  C  854  1  0.03323900  0.21537200  0.84419500  1
  C  855  1  0.01774800  0.20605900  0.82677500  1
  C  858  1  0.99086500  0.20657700  0.82868500  1
  C  864  1  0.03341700  0.79658800  0.84777300  1
  C  865  1  0.01800200  0.78716400  0.86491700  1
  C  866  1  0.99111100  0.78757700  0.86324500  1
  C  867  1  0.97901900  0.79691100  0.84422100  1
  C  868  1  0.99451000  0.80622600  0.82680000  1
  C  871  1  0.02139300  0.80571900  0.82871200  1
  C  877  1  0.21372300  0.03326100  0.16681100  1
  C  878  1  0.19337100  0.01802600  0.17424700  1
  C  879  1  0.19498500  0.99130400  0.17358600  1
  C  880  1  0.21682200  0.97883100  0.16538200  1
  C  881  1  0.23785300  0.99418100  0.15844000  1
  C  884  1  0.23602100  0.02117200  0.15918700  1
  C  890  1  0.21370600  0.97902600  0.84548700  1
  C  891  1  0.19336300  0.99425600  0.83803100  1
  C  892  1  0.19497600  0.02097800  0.83869400  1
  C  893  1  0.21681300  0.03345200  0.84690500  1
  C  894  1  0.23784100  0.01809900  0.85384800  1
  C  897  1  0.23601700  0.99110900  0.85308700  1
  C  903  1  0.79855800  0.97901000  0.16681800  1
  C  904  1  0.81890100  0.99424500  0.17426800  1
  C  905  1  0.81728400  0.02096600  0.17360700  1
  C  906  1  0.79545100  0.03343700  0.16538800  1
  C  907  1  0.77441300  0.01808400  0.15846700  1
  C  910  1  0.77624300  0.99109400  0.15922400  1
  C  916  1  0.79854900  0.03327200  0.84546000  1
  C  917  1  0.81889200  0.01803900  0.83800700  1
  C  918  1  0.81727300  0.99131800  0.83866300  1
  C  919  1  0.79543800  0.97884600  0.84687800  1
  C  920  1  0.77441300  0.99420100  0.85382700  1
  C  923  1  0.77623700  0.02119000  0.85305900  1
  C  929  1  0.16378800  0.16235200  0.03006900  1
  C  930  1  0.17207300  0.14186200  0.01660100  1
  C  931  1  0.17108300  0.14336700  0.99329900  1
  C  932  1  0.16214000  0.16551600  0.98231700  1
  C  933  1  0.15380800  0.18605500  0.99585600  1
  C  936  1  0.15460700  0.18412700  0.01898500  1
  C  942  1  0.84855600  0.16232600  0.98216300  1
  C  943  1  0.84019600  0.14188200  0.99565400  1
  C  944  1  0.84118900  0.14337600  0.01895600  1
  C  945  1  0.85012800  0.16552300  0.02993800  1
  C  946  1  0.85847300  0.18605300  0.01639900  1
  C  949  1  0.85767000  0.18412000  0.99327100  1
  C  955  1  0.16377300  0.84993200  0.98220900  1
  C  956  1  0.17203800  0.87042900  0.99567600  1
  C  957  1  0.17104000  0.86891800  0.01897800  1
  C  958  1  0.16206200  0.84679100  0.02998000  1
  C  959  1  0.15379500  0.82623900  0.01642100  1
  C  962  1  0.15458700  0.82816100  0.99329300  1
  C  968  1  0.84863500  0.85000900  0.03012300  1
  C  969  1  0.84019500  0.87040200  0.01662200  1
  C  970  1  0.84118600  0.86889000  0.99332200  1
  C  971  1  0.85021400  0.84678500  0.98232200  1
  C  972  1  0.85848100  0.82624300  0.99588900  1
  C  975  1  0.85767800  0.82817600  0.01901900  1
  C  981  1  0.53342300  0.71570600  0.66452900  1
  C  982  1  0.51800400  0.72514600  0.64739300  1
  C  983  1  0.49111000  0.72472500  0.64906900  1
  C  984  1  0.47903900  0.71536600  0.66809500  1
  C  985  1  0.49452400  0.70606800  0.68551700  1
  C  988  1  0.52140600  0.70657100  0.68359200  1
  C  994  1  0.47884400  0.29661900  0.66451000  1
  C  995  1  0.49425100  0.28714100  0.64737300  1
  C  996  1  0.52114500  0.28757800  0.64902600  1
  C  997  1  0.53323200  0.29694100  0.66803800  1
  C  998  1  0.51775600  0.30624000  0.68547400  1
  C  1001  1  0.49087300  0.30572400  0.68357200  1
  C  1007  1  0.47884200  0.71566600  0.34777200  1
  C  1008  1  0.49425600  0.72512300  0.36491300  1
  C  1009  1  0.52115000  0.72469600  0.36325400  1
  C  1010  1  0.53321700  0.71531000  0.34424200  1
  C  1011  1  0.51775000  0.70603900  0.32679600  1
  C  1014  1  0.49086700  0.70655400  0.32870800  1
  C  1020  1  0.53341800  0.29657300  0.34774600  1
  C  1021  1  0.51799900  0.28713600  0.36488200  1
  C  1022  1  0.49110500  0.28754500  0.36320600  1
  C  1023  1  0.47903400  0.29691600  0.34418300  1
  C  1024  1  0.49451900  0.30621900  0.32676300  1
  C  1027  1  0.52140200  0.30570600  0.32868100  1
  C  1033  1  0.71371400  0.53326800  0.66681900  1
  C  1034  1  0.69336600  0.51803600  0.67426100  1
  C  1035  1  0.69498400  0.49131600  0.67360800  1
  C  1036  1  0.71681700  0.47884300  0.66538900  1
  C  1037  1  0.73785000  0.49419500  0.65845200  1
  C  1040  1  0.73602100  0.52118500  0.65921200  1
  C  1046  1  0.71372000  0.47901100  0.34543800  1
  C  1047  1  0.69336500  0.49424700  0.33801300  1
  C  1048  1  0.69498200  0.52096900  0.33866600  1
  C  1049  1  0.71681100  0.53344100  0.34688900  1
  C  1050  1  0.73784700  0.51808800  0.35381500  1
  C  1053  1  0.73602100  0.49109800  0.35305500  1
  C  1059  1  0.29855600  0.47902800  0.66679100  1
  C  1060  1  0.31889900  0.49426000  0.67424400  1
  C  1061  1  0.31727900  0.52098000  0.67359100  1
  C  1062  1  0.29544700  0.53345400  0.66537900  1
  C  1063  1  0.27442000  0.51810100  0.65843100  1
  C  1066  1  0.27624100  0.49111100  0.65919900  1
  C  1072  1  0.29855200  0.53325500  0.34548600  1
  C  1073  1  0.31890000  0.51802300  0.33804000  1
  C  1074  1  0.31728000  0.49130300  0.33869400  1
  C  1075  1  0.29544100  0.47882700  0.34689700  1
  C  1076  1  0.27440700  0.49418000  0.35383300  1
  C  1079  1  0.27623900  0.52117000  0.35308100  1
  C  1085  1  0.66370600  0.66232400  0.53011800  1
  C  1086  1  0.67205300  0.64187900  0.51662200  1
  C  1087  1  0.67107400  0.64338900  0.49331800  1
  C  1088  1  0.66211300  0.66553400  0.48233600  1
  C  1089  1  0.65378000  0.68605400  0.49588800  1
  C  1092  1  0.65460000  0.68412400  0.51901400  1
  C  1098  1  0.34847500  0.66235100  0.48221000  1
  C  1099  1  0.34021300  0.64184800  0.49567300  1
  C  1100  1  0.34117900  0.64336800  0.51897500  1
  C  1101  1  0.35015800  0.66549400  0.52997200  1
  C  1102  1  0.35845200  0.68604600  0.51642500  1
  C  1105  1  0.35766000  0.68412200  0.49329500  1
  C  1111  1  0.66363300  0.35000300  0.48215700  1
  C  1112  1  0.67205400  0.37041000  0.49565700  1
  C  1113  1  0.67107900  0.36890000  0.51895700  1
  C  1114  1  0.66211900  0.34675900  0.52993600  1
  C  1115  1  0.65378300  0.32623000  0.51638900  1
  C  1118  1  0.65457400  0.32817500  0.49325700  1
  C  1124  1  0.34848700  0.34993500  0.53006700  1
  C  1125  1  0.34022300  0.37042900  0.51659500  1
  C  1126  1  0.34122100  0.36891700  0.49329200  1
  C  1127  1  0.35015200  0.34675500  0.48231100  1
  C  1128  1  0.35847500  0.32623000  0.49586200  1
  C  1131  1  0.35768200  0.32815900  0.51899000  1
  C  1137  1  0.17103400  0.29353100  0.62018200  1
  C  1138  1  0.14823600  0.28344500  0.62834700  1
  C  1139  1  0.12952200  0.30212400  0.62828600  1
  C  1140  1  0.14003600  0.32463600  0.62006200  1
  C  1141  1  0.12464300  0.34668400  0.61817100  1
  C  1142  1  0.09841700  0.34611500  0.62435600  1
  C  1143  1  0.08847700  0.32293100  0.63290100  1
  C  1144  1  0.10385900  0.30098000  0.63490300  1
  C  1145  1  0.14664700  0.25798900  0.63514400  1
  C  1146  1  0.16843900  0.24255200  0.63362600  1
  C  1147  1  0.19196800  0.25187300  0.62514900  1
  C  1148  1  0.19304300  0.27791900  0.61855200  1
  C  1149  1  0.17294200  0.32605700  0.59081800  1
  C  1150  1  0.19172300  0.34493400  0.58955300  1
  C  1151  1  0.19890400  0.35214400  0.61074000  1
  C  1152  1  0.18490400  0.33808900  0.62605300  1
  C  1153  1  0.21703800  0.37007500  0.61778700  1
  C  1154  1  0.22124900  0.37357200  0.64035500  1
  C  1155  1  0.20784700  0.35939500  0.65657500  1
  C  1156  1  0.18917600  0.34163200  0.64887400  1
  C  1157  1  0.16279500  0.31513600  0.57133200  1
  C  1158  1  0.17155800  0.32283200  0.55015500  1
  C  1159  1  0.19031000  0.34250400  0.54972000  1
  C  1160  1  0.20040600  0.35341100  0.56902900  1
  C  1173  1  0.16724300  0.32065700  0.61424300  1
  C  1174  1  0.21264500  0.36390500  0.67904700  1
  C  1175  1  0.16150100  0.31224300  0.53051900  1
  C  1176  1  0.21281200  0.23544500  0.62275200  1
  C  1177  1  0.08313900  0.36768600  0.62119700  1
  C  1182  1  0.84123200  0.02502690  0.62020900  1
  C  1183  1  0.86403100  0.03511490  0.62837000  1
  C  1184  1  0.88274600  0.01643490  0.62831300  1
  C  1185  1  0.87223300  0.99392300  0.62008600  1
  C  1186  1  0.88762600  0.97187600  0.61819500  1
  C  1187  1  0.91385200  0.97245000  0.62437700  1
  C  1188  1  0.92379000  0.99562700  0.63292600  1
  C  1189  1  0.90840900  0.01757990  0.63492400  1
  C  1190  1  0.86561800  0.06056990  0.63517100  1
  C  1191  1  0.84382600  0.07600490  0.63365600  1
  C  1192  1  0.82029700  0.06668390  0.62517600  1
  C  1193  1  0.81922500  0.04064190  0.61857500  1
  C  1194  1  0.83932400  0.99250400  0.59084200  1
  C  1195  1  0.82054100  0.97362900  0.58957800  1
  C  1196  1  0.81336400  0.96641600  0.61076500  1
  C  1197  1  0.82736300  0.98047100  0.62607700  1
  C  1198  1  0.79523100  0.94848300  0.61780900  1
  C  1199  1  0.79101700  0.94498500  0.64037600  1
  C  1200  1  0.80441300  0.95916500  0.65659800  1
  C  1201  1  0.82309100  0.97692400  0.64889800  1
  C  1202  1  0.84947100  0.00342193  0.57135200  1
  C  1203  1  0.84070400  0.99572200  0.55017700  1
  C  1204  1  0.82195300  0.97604900  0.54974600  1
  C  1205  1  0.81185700  0.96514700  0.56905800  1
  C  1218  1  0.84502500  0.99790300  0.61426700  1
  C  1219  1  0.79962500  0.95462800  0.67906600  1
  C  1220  1  0.85078200  0.00626593  0.53053400  1
  C  1221  1  0.79945000  0.08311090  0.62279100  1
  C  1222  1  0.92913000  0.95089500  0.62123600  1
  C  1227  1  0.84122800  0.29354300  0.31107900  1
  C  1228  1  0.86402600  0.28345800  0.30291600  1
  C  1229  1  0.88274000  0.30213800  0.30297500  1
  C  1230  1  0.87222500  0.32465100  0.31119900  1
  C  1231  1  0.88761600  0.34670100  0.31308300  1
  C  1232  1  0.91384400  0.34613100  0.30690300  1
  C  1233  1  0.92378400  0.32294600  0.29835900  1
  C  1234  1  0.90840400  0.30099300  0.29636000  1
  C  1235  1  0.86561500  0.25800200  0.29611700  1
  C  1236  1  0.84382300  0.24256700  0.29763200  1
  C  1237  1  0.82029100  0.25188700  0.30610800  1
  C  1238  1  0.81921900  0.27793200  0.31270700  1
  C  1239  1  0.83931300  0.32606400  0.34044300  1
  C  1240  1  0.82053700  0.34494800  0.34170700  1
  C  1241  1  0.81335500  0.35215500  0.32052000  1
  C  1242  1  0.82735100  0.33809500  0.30520900  1
  C  1243  1  0.79522300  0.37008600  0.31347400  1
  C  1244  1  0.79101200  0.37358400  0.29090700  1
  C  1245  1  0.80440900  0.35940100  0.27468600  1
  C  1246  1  0.82308700  0.34164500  0.28238800  1
  C  1247  1  0.84946200  0.31514900  0.35993100  1
  C  1248  1  0.84069400  0.32284400  0.38110600  1
  C  1249  1  0.82194300  0.34251900  0.38153900  1
  C  1250  1  0.81185000  0.35342400  0.36222800  1
  C  1263  1  0.84501800  0.32066900  0.31701800  1
  C  1264  1  0.79963400  0.36394000  0.25221700  1
  C  1265  1  0.85076800  0.31228900  0.40074500  1
  C  1266  1  0.79944600  0.23546000  0.30849600  1
  C  1267  1  0.92912400  0.36770300  0.31006700  1
  C  1272  1  0.17102900  0.02504390  0.31110400  1
  C  1273  1  0.14823100  0.03512890  0.30294100  1
  C  1274  1  0.12951700  0.01644890  0.30299800  1
  C  1275  1  0.14003100  0.99393600  0.31122400  1
  C  1276  1  0.12463800  0.97188900  0.31311400  1
  C  1277  1  0.09841300  0.97245600  0.30692900  1
  C  1278  1  0.08847400  0.99564000  0.29838400  1
  C  1279  1  0.10385500  0.01759290  0.29638300  1
  C  1280  1  0.14664200  0.06058490  0.29614000  1
  C  1281  1  0.16843400  0.07602190  0.29765800  1
  C  1282  1  0.19196100  0.06670090  0.30613900  1
  C  1283  1  0.19303700  0.04065490  0.31273300  1
  C  1284  1  0.17293500  0.99251800  0.34046800  1
  C  1285  1  0.19171900  0.97364300  0.34173300  1
  C  1286  1  0.19889600  0.96642800  0.32054700  1
  C  1287  1  0.18489900  0.98048400  0.30523400  1
  C  1288  1  0.21703400  0.94850000  0.31350300  1
  C  1289  1  0.22124100  0.94499100  0.29093600  1
  C  1290  1  0.20783000  0.95915700  0.27471400  1
  C  1291  1  0.18916800  0.97693100  0.28241300  1
  C  1292  1  0.16278800  0.00343893  0.35995400  1
  C  1293  1  0.17154500  0.99573800  0.38113000  1
  C  1294  1  0.19030100  0.97606800  0.38156500  1
  C  1295  1  0.20039800  0.96516200  0.36225600  1
  C  1308  1  0.16723800  0.99791800  0.31704300  1
  C  1309  1  0.21261600  0.95462000  0.25224600  1
  C  1310  1  0.16148800  0.00632593  0.40076600  1
  C  1311  1  0.21281000  0.08312590  0.30852200  1
  C  1312  1  0.08313500  0.95088300  0.31009000  1
  C  1317  1  0.14027000  0.32444100  0.31109200  1
  C  1318  1  0.13021700  0.30161200  0.30298700  1
  C  1319  1  0.14889900  0.28291700  0.30316400  1
  C  1320  1  0.17145500  0.29335600  0.31135700  1
  C  1321  1  0.19352700  0.27791500  0.31318600  1
  C  1322  1  0.19301800  0.25170700  0.30689300  1
  C  1323  1  0.16973700  0.24208300  0.29831200  1
  C  1324  1  0.14773000  0.25733700  0.29647400  1
  C  1325  1  0.10478900  0.29993900  0.29613400  1
  C  1326  1  0.08935000  0.32173300  0.29739100  1
  C  1327  1  0.09864200  0.34545700  0.30553700  1
  C  1328  1  0.12462500  0.34649100  0.31243500  1
  C  1329  1  0.17291100  0.32624800  0.34050400  1
  C  1330  1  0.19182200  0.34500300  0.34165400  1
  C  1331  1  0.19897300  0.35214000  0.32047300  1
  C  1332  1  0.18487800  0.33813700  0.30520400  1
  C  1333  1  0.21694300  0.37022600  0.31343400  1
  C  1334  1  0.22043100  0.37441700  0.29087400  1
  C  1335  1  0.20623100  0.36101300  0.27467000  1
  C  1336  1  0.18845400  0.34235500  0.28238000  1
  C  1337  1  0.16235500  0.31595400  0.36009000  1
  C  1338  1  0.17059100  0.32451400  0.38119000  1
  C  1339  1  0.18991900  0.34359800  0.38145500  1
  C  1340  1  0.20047800  0.35378200  0.36207400  1
  C  1353  1  0.16741300  0.32057300  0.31708900  1
  C  1354  1  0.21076500  0.36580200  0.25220500  1
  C  1355  1  0.16078000  0.31427100  0.40100900  1
  C  1356  1  0.08188200  0.36613500  0.30794500  1
  C  1357  1  0.21489400  0.23648500  0.30927200  1
  C  1362  1  0.87198200  0.99414700  0.31111400  1
  C  1363  1  0.88203600  0.01697490  0.30300800  1
  C  1364  1  0.86335800  0.03567190  0.30319500  1
  C  1365  1  0.84080100  0.02523290  0.31138400  1
  C  1366  1  0.81872500  0.04067190  0.31320400  1
  C  1367  1  0.81923900  0.06688090  0.30691100  1
  C  1368  1  0.84252100  0.07650290  0.29833100  1
  C  1369  1  0.86452800  0.06124890  0.29649600  1
  C  1370  1  0.90746200  0.01864790  0.29615000  1
  C  1371  1  0.92290500  0.99685800  0.29742000  1
  C  1372  1  0.91361300  0.97313500  0.30556300  1
  C  1373  1  0.88762700  0.97209800  0.31245800  1
  C  1374  1  0.83934200  0.99234000  0.34052800  1
  C  1375  1  0.82042600  0.97358900  0.34167900  1
  C  1376  1  0.81328100  0.96644900  0.32049700  1
  C  1377  1  0.82738200  0.98044600  0.30523000  1
  C  1378  1  0.79531300  0.94836000  0.31345700  1
  C  1379  1  0.79182600  0.94417200  0.29089500  1
  C  1380  1  0.80602100  0.95758400  0.27469300  1
  C  1381  1  0.82380500  0.97623300  0.28240600  1
  C  1382  1  0.84989700  0.00263093  0.36011600  1
  C  1383  1  0.84166100  0.99406800  0.38121600  1
  C  1384  1  0.82233000  0.97498700  0.38148200  1
  C  1385  1  0.81177100  0.96480600  0.36209900  1
  C  1398  1  0.84484000  0.99801600  0.31711300  1
  C  1399  1  0.80150800  0.95279000  0.25222700  1
  C  1400  1  0.85147500  0.00430393  0.40103500  1
  C  1401  1  0.93038600  0.95247600  0.30800900  1
  C  1402  1  0.79736400  0.08210590  0.30928500  1
  C  1407  1  0.14027800  0.99413000  0.62019900  1
  C  1408  1  0.13022400  0.01695990  0.62830300  1
  C  1409  1  0.14890500  0.03565490  0.62812200  1
  C  1410  1  0.17145900  0.02521790  0.61992700  1
  C  1411  1  0.19353300  0.04065690  0.61810000  1
  C  1412  1  0.19302300  0.06686590  0.62439400  1
  C  1413  1  0.16974300  0.07648890  0.63297600  1
  C  1414  1  0.14773500  0.06123590  0.63481300  1
  C  1415  1  0.10479600  0.01863290  0.63515900  1
  C  1416  1  0.08935600  0.99684000  0.63390000  1
  C  1417  1  0.09864400  0.97312200  0.62574100  1
  C  1418  1  0.12463300  0.97208100  0.61886000  1
  C  1419  1  0.17291800  0.99232400  0.59078400  1
  C  1420  1  0.19183000  0.97357000  0.58963200  1
  C  1421  1  0.19897900  0.96643300  0.61081300  1
  C  1422  1  0.18488600  0.98043700  0.62608200  1
  C  1423  1  0.21694900  0.94834500  0.61785100  1
  C  1424  1  0.22044300  0.94416000  0.64041200  1
  C  1425  1  0.20626200  0.95758000  0.65661600  1
  C  1426  1  0.18846600  0.97622100  0.64890600  1
  C  1427  1  0.16236500  0.00261993  0.57119600  1
  C  1428  1  0.17060500  0.99406100  0.55009600  1
  C  1429  1  0.18993100  0.97497700  0.54983000  1
  C  1430  1  0.20048900  0.96479300  0.56921200  1
  C  1443  1  0.16742000  0.99799800  0.61419900  1
  C  1444  1  0.21080200  0.95280000  0.67907900  1
  C  1445  1  0.16078900  0.00429993  0.53027800  1
  C  1446  1  0.08188300  0.95245100  0.62332200  1
  C  1447  1  0.21489800  0.08208890  0.62201300  1
  C  1452  1  0.87198900  0.32442700  0.62017400  1
  C  1453  1  0.88204100  0.30159800  0.62827800  1
  C  1454  1  0.86336300  0.28290000  0.62809100  1
  C  1455  1  0.84080500  0.29334000  0.61990500  1
  C  1456  1  0.81873100  0.27790000  0.61808000  1
  C  1457  1  0.81924400  0.25169200  0.62437400  1
  C  1458  1  0.84252600  0.24206900  0.63295400  1
  C  1459  1  0.86453300  0.25732300  0.63478800  1
  C  1460  1  0.90746900  0.29992500  0.63513600  1
  C  1461  1  0.92291000  0.32171600  0.63386900  1
  C  1462  1  0.91361800  0.34544200  0.62572900  1
  C  1463  1  0.88763300  0.34647500  0.61883200  1
  C  1464  1  0.83935100  0.32623400  0.59075800  1
  C  1465  1  0.82043800  0.34498800  0.58960800  1
  C  1466  1  0.81328700  0.35212400  0.61078900  1
  C  1467  1  0.82738800  0.33812700  0.62605600  1
  C  1468  1  0.79531900  0.37021100  0.61782900  1
  C  1469  1  0.79183300  0.37440100  0.64039100  1
  C  1470  1  0.80603200  0.36099700  0.65659300  1
  C  1471  1  0.82380700  0.34233800  0.64888200  1
  C  1472  1  0.84990700  0.31594200  0.57117000  1
  C  1473  1  0.84167300  0.32450500  0.55007100  1
  C  1474  1  0.82234200  0.34358700  0.54980600  1
  C  1475  1  0.81178200  0.35376900  0.56918900  1
  C  1488  1  0.84484600  0.32055800  0.61417300  1
  C  1489  1  0.80151200  0.36578500  0.67906000  1
  C  1490  1  0.85148200  0.31426600  0.53025100  1
  C  1491  1  0.93038900  0.36609900  0.62328300  1
  C  1492  1  0.79736700  0.23646800  0.62200100  1
  C  1497  1  0.67105300  0.79357100  0.12025200  1
  C  1498  1  0.64824600  0.78346500  0.12838500  1
  C  1499  1  0.62951600  0.80213000  0.12830000  1
  C  1500  1  0.64001100  0.82463300  0.12004200  1
  C  1501  1  0.62463100  0.84668900  0.11817300  1
  C  1502  1  0.59841200  0.84612800  0.12437500  1
  C  1503  1  0.58847700  0.82294400  0.13292300  1
  C  1504  1  0.60385800  0.80099100  0.13492700  1
  C  1505  1  0.64665300  0.75800500  0.13517500  1
  C  1506  1  0.66844400  0.74256800  0.13365700  1
  C  1507  1  0.69197500  0.75189200  0.12518400  1
  C  1508  1  0.69305300  0.77794600  0.11860100  1
  C  1509  1  0.67298600  0.82603000  0.09084380  1
  C  1510  1  0.69180000  0.84487600  0.08957880  1
  C  1511  1  0.69883200  0.85223500  0.11076500  1
  C  1512  1  0.68471400  0.83829500  0.12607600  1
  C  1513  1  0.71689200  0.87023900  0.11781400  1
  C  1514  1  0.72045700  0.87438700  0.14038300  1
  C  1515  1  0.70631400  0.86095500  0.15660600  1
  C  1516  1  0.68840600  0.84242200  0.14889900  1
  C  1517  1  0.66282300  0.81512400  0.07135580  1
  C  1518  1  0.67158200  0.82282700  0.05017980  1
  C  1519  1  0.69033200  0.84250300  0.04974580  1
  C  1520  1  0.70044300  0.85339500  0.06905680  1
  C  1533  1  0.66722900  0.82068500  0.11426700  1
  C  1534  1  0.71088100  0.86571900  0.17907500  1
  C  1535  1  0.66150300  0.81227200  0.03054080  1
  C  1536  1  0.71281400  0.73545800  0.12278100  1
  C  1537  1  0.58314200  0.86770800  0.12122000  1
  C  1542  1  0.34121300  0.52501600  0.12023100  1
  C  1543  1  0.36402100  0.53512300  0.12835900  1
  C  1544  1  0.38274900  0.51645900  0.12827400  1
  C  1545  1  0.37225500  0.49395400  0.12001800  1
  C  1546  1  0.38763700  0.47189900  0.11814800  1
  C  1547  1  0.41385500  0.47247000  0.12434500  1
  C  1548  1  0.42379000  0.49564600  0.13289700  1
  C  1549  1  0.40840800  0.51760000  0.13489600  1
  C  1550  1  0.36561400  0.56058400  0.13514800  1
  C  1551  1  0.34382100  0.57601900  0.13363500  1
  C  1552  1  0.32029300  0.56669600  0.12515700  1
  C  1553  1  0.31921500  0.54064400  0.11857300  1
  C  1554  1  0.33928600  0.49255700  0.09081880  1
  C  1555  1  0.32047400  0.47371000  0.08955180  1
  C  1556  1  0.31343600  0.46635300  0.11073900  1
  C  1557  1  0.32755000  0.48029300  0.12605200  1
  C  1558  1  0.29537200  0.44835100  0.11778600  1
  C  1559  1  0.29179800  0.44420700  0.14035600  1
  C  1560  1  0.30593200  0.45764500  0.15657800  1
  C  1561  1  0.32384700  0.47617200  0.14887400  1
  C  1562  1  0.34944900  0.50346200  0.07133280  1
  C  1563  1  0.34069600  0.49575700  0.05015480  1
  C  1564  1  0.32194500  0.47608600  0.04971980  1
  C  1565  1  0.31182700  0.46519500  0.06903080  1
  C  1578  1  0.34503800  0.49790100  0.11424300  1
  C  1579  1  0.30135500  0.45288200  0.17904700  1
  C  1580  1  0.35077700  0.50631500  0.03051780  1
  C  1581  1  0.29945000  0.58312800  0.12276300  1
  C  1582  1  0.42912800  0.45091100  0.12120700  1
  C  1587  1  0.34120900  0.79355700  0.81105900  1
  C  1588  1  0.36401400  0.78345000  0.80292600  1
  C  1589  1  0.38274600  0.80211400  0.80301300  1
  C  1590  1  0.37225100  0.82461700  0.81127000  1
  C  1591  1  0.38763100  0.84667600  0.81313100  1
  C  1592  1  0.41384900  0.84610700  0.80693300  1
  C  1593  1  0.42378500  0.82292700  0.79838800  1
  C  1594  1  0.40840300  0.80097400  0.79638700  1
  C  1595  1  0.36560900  0.75799000  0.79614000  1
  C  1596  1  0.34381600  0.74255300  0.79765600  1
  C  1597  1  0.32028700  0.75187900  0.80612900  1
  C  1598  1  0.31920900  0.77793300  0.81271000  1
  C  1599  1  0.33927200  0.82601100  0.84046700  1
  C  1600  1  0.32046200  0.84486100  0.84173200  1
  C  1601  1  0.31343200  0.85222200  0.82054800  1
  C  1602  1  0.32755000  0.83828400  0.80523600  1
  C  1603  1  0.29537000  0.87022400  0.81349700  1
  C  1604  1  0.29180500  0.87437200  0.79092800  1
  C  1605  1  0.30595200  0.86094300  0.77470500  1
  C  1606  1  0.32385600  0.84240700  0.78241200  1
  C  1607  1  0.34944200  0.81511300  0.85995500  1
  C  1608  1  0.34069100  0.82282200  0.88113100  1
  C  1609  1  0.32193300  0.84248900  0.88156600  1
  C  1610  1  0.31181800  0.85337800  0.86225600  1
  C  1623  1  0.34503300  0.82067200  0.81704400  1
  C  1624  1  0.30137700  0.86569800  0.75223600  1
  C  1625  1  0.35076800  0.81225800  0.90076700  1
  C  1626  1  0.29944400  0.73544700  0.80853100  1
  C  1627  1  0.42912400  0.86767000  0.81008200  1
  C  1632  1  0.67104700  0.52500200  0.81103600  1
  C  1633  1  0.64824000  0.53510800  0.80290100  1
  C  1634  1  0.62951300  0.51644300  0.80298500  1
  C  1635  1  0.64000700  0.49393900  0.81124400  1
  C  1636  1  0.62462500  0.47188400  0.81311300  1
  C  1637  1  0.59840900  0.47244700  0.80691200  1
  C  1638  1  0.58847200  0.49562900  0.79836200  1
  C  1639  1  0.60385300  0.51758200  0.79636000  1
  C  1640  1  0.64664800  0.56056800  0.79611200  1
  C  1641  1  0.66843800  0.57600500  0.79763300  1
  C  1642  1  0.69196500  0.56668300  0.80611300  1
  C  1643  1  0.69304700  0.54062700  0.81268700  1
  C  1644  1  0.67297600  0.49254100  0.84044600  1
  C  1645  1  0.69178800  0.47369300  0.84170800  1
  C  1646  1  0.69882200  0.46633600  0.82052300  1
  C  1647  1  0.68471200  0.48027800  0.80521000  1
  C  1648  1  0.71688700  0.44833400  0.81347400  1
  C  1649  1  0.72046400  0.44419300  0.79090600  1
  C  1650  1  0.70633500  0.45763400  0.77468200  1
  C  1651  1  0.68841500  0.47615700  0.78238700  1
  C  1652  1  0.66281400  0.50344300  0.85993500  1
  C  1653  1  0.67156600  0.49573100  0.88111200  1
  C  1654  1  0.69032400  0.47606500  0.88154200  1
  C  1655  1  0.70043600  0.46517800  0.86222900  1
  C  1668  1  0.66722400  0.49788600  0.81702100  1
  C  1669  1  0.71091100  0.45286700  0.75221300  1
  C  1670  1  0.66149200  0.50628800  0.90075400  1
  C  1671  1  0.71280800  0.58311500  0.80850900  1
  C  1672  1  0.58313600  0.45087100  0.81006800  1
  C  1677  1  0.64029800  0.82444500  0.81107200  1
  C  1678  1  0.63022300  0.80160700  0.80299900  1
  C  1679  1  0.64888900  0.78289700  0.80320300  1
  C  1680  1  0.67143600  0.79331400  0.81142800  1
  C  1681  1  0.69351900  0.77788900  0.81323200  1
  C  1682  1  0.69301200  0.75168800  0.80691800  1
  C  1683  1  0.66973100  0.74206800  0.79833700  1
  C  1684  1  0.64772400  0.75732100  0.79650100  1
  C  1685  1  0.60478900  0.79993000  0.79615600  1
  C  1686  1  0.58935200  0.82172500  0.79741000  1
  C  1687  1  0.59864800  0.84544900  0.80555000  1
  C  1688  1  0.62463800  0.84648600  0.81243400  1
  C  1689  1  0.67287300  0.82627500  0.84052800  1
  C  1690  1  0.69175500  0.84505800  0.84167800  1
  C  1691  1  0.69904800  0.85205300  0.82049800  1
  C  1692  1  0.68506800  0.83793300  0.80523100  1
  C  1693  1  0.71709000  0.87006700  0.81345500  1
  C  1694  1  0.72122800  0.87360800  0.79089100  1
  C  1695  1  0.70778000  0.85945400  0.77468900  1
  C  1696  1  0.68922300  0.84157200  0.78240500  1
  C  1697  1  0.66233800  0.81595900  0.86011600  1
  C  1698  1  0.67058400  0.82451000  0.88121500  1
  C  1699  1  0.68991100  0.84359600  0.88148100  1
  C  1700  1  0.70045000  0.85379900  0.86209800  1
  C  1713  1  0.66742900  0.82054400  0.81711400  1
  C  1714  1  0.71255000  0.86401400  0.75222300  1
  C  1715  1  0.66078600  0.81425500  0.90103100  1
  C  1716  1  0.58188400  0.86612500  0.80796400  1
  C  1717  1  0.71489300  0.73647100  0.80928500  1
  C  1722  1  0.37195400  0.49411300  0.81104400  1
  C  1723  1  0.38203000  0.51694900  0.80296800  1
  C  1724  1  0.36336700  0.53566300  0.80318200  1
  C  1725  1  0.34081800  0.52524300  0.81140300  1
  C  1726  1  0.31873400  0.54066900  0.81320500  1
  C  1727  1  0.31924200  0.56687000  0.80689700  1
  C  1728  1  0.34252000  0.57649000  0.79831100  1
  C  1729  1  0.36452900  0.56123600  0.79647400  1
  C  1730  1  0.40746400  0.51862600  0.79612500  1
  C  1731  1  0.42290600  0.49683700  0.79739700  1
  C  1732  1  0.41361000  0.47311500  0.80554100  1
  C  1733  1  0.38761400  0.47207500  0.81241300  1
  C  1734  1  0.33938000  0.49228300  0.84050100  1
  C  1735  1  0.32050000  0.47349800  0.84165400  1
  C  1736  1  0.31320600  0.46650500  0.82047400  1
  C  1737  1  0.32718300  0.48062700  0.80520700  1
  C  1738  1  0.29516300  0.44849100  0.81343000  1
  C  1739  1  0.29102700  0.44494800  0.79086700  1
  C  1740  1  0.30448200  0.45909800  0.77466300  1
  C  1741  1  0.32303100  0.47698600  0.78238100  1
  C  1742  1  0.34991700  0.50259900  0.86008800  1
  C  1743  1  0.34167000  0.49405400  0.88118900  1
  C  1744  1  0.32234500  0.47496600  0.88145600  1
  C  1745  1  0.31180500  0.46476100  0.86207500  1
  C  1758  1  0.34482500  0.49801400  0.81708800  1
  C  1759  1  0.29970600  0.45454800  0.75219600  1
  C  1760  1  0.35147000  0.50431200  0.90100500  1
  C  1761  1  0.43038300  0.45245700  0.80799700  1
  C  1762  1  0.29736300  0.58208700  0.80927200  1
  C  1767  1  0.64030500  0.49412800  0.12021800  1
  C  1768  1  0.63023200  0.51696600  0.12829000  1
  C  1769  1  0.64889700  0.53567600  0.12808300  1
  C  1770  1  0.67144400  0.52525900  0.11985700  1
  C  1771  1  0.69352700  0.54068600  0.11805500  1
  C  1772  1  0.69302000  0.56688600  0.12436800  1
  C  1773  1  0.66973800  0.57650500  0.13295100  1
  C  1774  1  0.64772900  0.56125200  0.13478600  1
  C  1775  1  0.60480000  0.51864500  0.13513700  1
  C  1776  1  0.58935900  0.49685400  0.13387800  1
  C  1777  1  0.59865000  0.47313600  0.12572200  1
  C  1778  1  0.62464600  0.47208700  0.11885700  1
  C  1779  1  0.67287800  0.49229800  0.09075680  1
  C  1780  1  0.69176300  0.47351700  0.08960680  1
  C  1781  1  0.69905600  0.46652200  0.11078600  1
  C  1782  1  0.68507700  0.48064200  0.12605500  1
  C  1783  1  0.71709800  0.44850800  0.11782700  1
  C  1784  1  0.72123400  0.44496300  0.14039000  1
  C  1785  1  0.70778200  0.45911000  0.15659400  1
  C  1786  1  0.68923100  0.47699900  0.14888100  1
  C  1787  1  0.66233900  0.50260900  0.07116880  1
  C  1788  1  0.67058200  0.49405400  0.05006980  1
  C  1789  1  0.68991100  0.47497200  0.04980380  1
  C  1790  1  0.70045500  0.46477200  0.06918680  1
  C  1803  1  0.66743700  0.49803000  0.11417200  1
  C  1804  1  0.71254600  0.45453800  0.17905900  1
  C  1805  1  0.66078400  0.50430500  0.03024980  1
  C  1806  1  0.58188000  0.45246900  0.12329600  1
  C  1807  1  0.71490100  0.58210200  0.12200300  1
  C  1812  1  0.37196000  0.82445800  0.12024200  1
  C  1813  1  0.38203500  0.80162200  0.12831800  1
  C  1814  1  0.36337200  0.78291000  0.12810500  1
  C  1815  1  0.34082400  0.79333000  0.11988300  1
  C  1816  1  0.31874000  0.77790200  0.11807900  1
  C  1817  1  0.31924800  0.75170100  0.12438600  1
  C  1818  1  0.34252500  0.74208400  0.13297600  1
  C  1819  1  0.36453400  0.75733500  0.13481200  1
  C  1820  1  0.40746700  0.79994700  0.13516300  1
  C  1821  1  0.42291100  0.82173600  0.13388800  1
  C  1822  1  0.41361600  0.84545800  0.12574500  1
  C  1823  1  0.38761900  0.84649800  0.11887400  1
  C  1824  1  0.33938900  0.82628800  0.09078280  1
  C  1825  1  0.32050600  0.84507400  0.08963280  1
  C  1826  1  0.31321200  0.85206700  0.11081300  1
  C  1827  1  0.32718800  0.83794500  0.12608000  1
  C  1828  1  0.29517100  0.87008200  0.11785300  1
  C  1829  1  0.29103200  0.87362600  0.14041600  1
  C  1830  1  0.30447800  0.85947100  0.15662000  1
  C  1831  1  0.32303700  0.84159000  0.14890600  1
  C  1832  1  0.34992800  0.81597800  0.07119480  1
  C  1833  1  0.34168200  0.82452900  0.05009580  1
  C  1834  1  0.32235500  0.84361300  0.04982980  1
  C  1835  1  0.31181400  0.85381600  0.06921280  1
  C  1848  1  0.34483100  0.82055700  0.11419800  1
  C  1849  1  0.29970600  0.86403700  0.17908700  1
  C  1850  1  0.35147800  0.81427400  0.03027580  1
  C  1851  1  0.43038900  0.86611600  0.12329200  1
  C  1852  1  0.29736900  0.73648400  0.12201300  1
  C  1857  1  0.24117000  0.39192100  0.70216500  1
  C  1858  1  0.26607500  0.38566900  0.70933500  1
  C  1859  1  0.28026100  0.40238900  0.72294100  1
  C  1860  1  0.27076400  0.42662200  0.72914900  1
  C  1861  1  0.24573900  0.43314000  0.72181700  1
  C  1864  1  0.23172800  0.41614900  0.70827300  1
  C  1870  1  0.77114800  0.92670400  0.70223800  1
  C  1871  1  0.74619900  0.93287900  0.70936600  1
  C  1872  1  0.73200000  0.91616200  0.72296200  1
  C  1873  1  0.74149700  0.89193600  0.72917800  1
  C  1874  1  0.76652300  0.88542300  0.72184400  1
  C  1877  1  0.78052400  0.90242800  0.70830900  1
  C  1883  1  0.77109000  0.39193600  0.22909900  1
  C  1884  1  0.74618900  0.38568600  0.22192700  1
  C  1885  1  0.73200600  0.40241900  0.20833100  1
  C  1886  1  0.74144600  0.42669300  0.20215500  1
  C  1887  1  0.76651000  0.43314800  0.20944800  1
  C  1890  1  0.78053200  0.41615800  0.22298400  1
  C  1896  1  0.24114200  0.92673200  0.22906600  1
  C  1897  1  0.26607600  0.93290400  0.22193100  1
  C  1898  1  0.28026000  0.91616200  0.20834600  1
  C  1899  1  0.27081100  0.89189400  0.20217700  1
  C  1900  1  0.24574900  0.88545400  0.20948100  1
  C  1903  1  0.23174100  0.90245900  0.22301500  1
  C  1909  1  0.23870900  0.39428700  0.22905600  1
  C  1910  1  0.23254300  0.41923300  0.22192100  1
  C  1911  1  0.24927700  0.43342000  0.20832800  1
  C  1912  1  0.27355200  0.42396300  0.20217400  1
  C  1913  1  0.27999200  0.39890600  0.20946800  1
  C  1916  1  0.26297900  0.38490100  0.22299400  1
  C  1922  1  0.77348700  0.92425300  0.22912800  1
  C  1923  1  0.77974100  0.89934800  0.22196700  1
  C  1924  1  0.76301800  0.88516300  0.20836400  1
  C  1925  1  0.73877500  0.89463500  0.20215400  1
  C  1926  1  0.73227400  0.91967600  0.20947800  1
  C  1929  1  0.74926100  0.93369300  0.22302000  1
  C  1935  1  0.23869300  0.92426700  0.70224300  1
  C  1936  1  0.23251900  0.89932900  0.70936900  1
  C  1937  1  0.24924900  0.88513800  0.72295900  1
  C  1938  1  0.27347300  0.89464700  0.72917000  1
  C  1939  1  0.27998000  0.91967100  0.72182500  1
  C  1942  1  0.26297200  0.93366800  0.70828600  1
  C  1948  1  0.77348800  0.39432600  0.70215600  1
  C  1949  1  0.77973000  0.41922900  0.70933500  1
  C  1950  1  0.76299100  0.43340400  0.72293400  1
  C  1951  1  0.73870900  0.42395000  0.72908200  1
  C  1952  1  0.73226400  0.39888900  0.72178900  1
  C  1955  1  0.74926600  0.38487500  0.70826000  1
  C  1961  1  0.03342100  0.36884200  0.62401500  1
  C  1962  1  0.01801000  0.37826800  0.60686600  1
  C  1963  1  0.99111800  0.37785100  0.60852800  1
  C  1964  1  0.97904500  0.36846900  0.62754000  1
  C  1965  1  0.99451100  0.35918400  0.64498400  1
  C  1968  1  0.02139400  0.35970700  0.64307400  1
  C  1974  1  0.97884800  0.94976000  0.62403600  1
  C  1975  1  0.99426100  0.94029000  0.60689500  1
  C  1976  1  0.02115400  0.94069400  0.60855800  1
  C  1977  1  0.03322200  0.95009700  0.62756300  1
  C  1978  1  0.01775600  0.95937100  0.64501100  1
  C  1981  1  0.99087400  0.95885700  0.64310000  1
  C  1987  1  0.97884300  0.36885900  0.30725100  1
  C  1988  1  0.99425800  0.37829500  0.32438800  1
  C  1989  1  0.02115100  0.37788200  0.32271400  1
  C  1990  1  0.03323900  0.36851700  0.30369900  1
  C  1991  1  0.01774800  0.35920400  0.28627900  1
  C  1994  1  0.99086500  0.35972200  0.28818900  1
  C  2000  1  0.03341700  0.94973300  0.30727700  1
  C  2001  1  0.01800200  0.94030900  0.32442100  1
  C  2002  1  0.99111100  0.94072200  0.32274900  1
  C  2003  1  0.97901900  0.95005600  0.30372500  1
  C  2004  1  0.99451000  0.95937100  0.28630400  1
  C  2007  1  0.02139300  0.95886400  0.28821600  1
  C  2013  1  0.21372300  0.18640600  0.62631500  1
  C  2014  1  0.19337100  0.17117100  0.63375100  1
  C  2015  1  0.19498500  0.14444900  0.63309000  1
  C  2016  1  0.21682200  0.13197600  0.62488600  1
  C  2017  1  0.23785300  0.14732600  0.61794400  1
  C  2020  1  0.23602100  0.17431700  0.61869100  1
  C  2026  1  0.21370600  0.13217100  0.30499100  1
  C  2027  1  0.19336300  0.14740100  0.29753500  1
  C  2028  1  0.19497600  0.17412300  0.29819800  1
  C  2029  1  0.21681300  0.18659700  0.30640900  1
  C  2030  1  0.23784100  0.17124400  0.31335200  1
  C  2033  1  0.23601700  0.14425400  0.31259100  1
  C  2039  1  0.79855800  0.13215500  0.62632200  1
  C  2040  1  0.81890100  0.14739000  0.63377200  1
  C  2041  1  0.81728400  0.17411100  0.63311100  1
  C  2042  1  0.79545100  0.18658200  0.62489200  1
  C  2043  1  0.77441300  0.17122900  0.61797100  1
  C  2046  1  0.77624300  0.14423900  0.61872800  1
  C  2052  1  0.79854900  0.18641700  0.30496400  1
  C  2053  1  0.81889200  0.17118400  0.29751100  1
  C  2054  1  0.81727300  0.14446300  0.29816700  1
  C  2055  1  0.79543800  0.13199100  0.30638200  1
  C  2056  1  0.77441300  0.14734600  0.31333100  1
  C  2059  1  0.77623700  0.17433500  0.31256300  1
  C  2065  1  0.16378800  0.31549700  0.48957300  1
  C  2066  1  0.17207300  0.29500700  0.47610500  1
  C  2067  1  0.17108300  0.29651200  0.45280300  1
  C  2068  1  0.16214000  0.31866100  0.44182100  1
  C  2069  1  0.15380800  0.33920000  0.45536000  1
  C  2072  1  0.15460700  0.33727200  0.47848900  1
  C  2078  1  0.84855600  0.31547100  0.44166700  1
  C  2079  1  0.84019600  0.29502700  0.45515800  1
  C  2080  1  0.84118900  0.29652100  0.47846000  1
  C  2081  1  0.85012800  0.31866800  0.48944200  1
  C  2082  1  0.85847300  0.33919800  0.47590300  1
  C  2085  1  0.85767000  0.33726500  0.45277500  1
  C  2091  1  0.16377300  0.00307693  0.44171300  1
  C  2092  1  0.17203800  0.02357390  0.45518000  1
  C  2093  1  0.17104000  0.02206290  0.47848200  1
  C  2094  1  0.16206200  0.99993600  0.48948400  1
  C  2095  1  0.15379500  0.97938400  0.47592500  1
  C  2098  1  0.15458700  0.98130600  0.45279700  1
  C  2104  1  0.84863500  0.00315393  0.48962700  1
  C  2105  1  0.84019500  0.02354690  0.47612600  1
  C  2106  1  0.84118600  0.02203490  0.45282600  1
  C  2107  1  0.85021400  0.99993000  0.44182600  1
  C  2108  1  0.85848100  0.97938800  0.45539300  1
  C  2111  1  0.85767800  0.98132100  0.47852300  1
  C  2117  1  0.53342300  0.86885100  0.12403300  1
  C  2118  1  0.51800400  0.87829100  0.10689700  1
  C  2119  1  0.49111000  0.87787000  0.10857300  1
  C  2120  1  0.47903900  0.86851100  0.12759900  1
  C  2121  1  0.49452400  0.85921300  0.14502100  1
  C  2124  1  0.52140600  0.85971600  0.14309600  1
  C  2130  1  0.47884400  0.44976400  0.12401400  1
  C  2131  1  0.49425100  0.44028600  0.10687700  1
  C  2132  1  0.52114500  0.44072300  0.10853000  1
  C  2133  1  0.53323200  0.45008600  0.12754200  1
  C  2134  1  0.51775600  0.45938500  0.14497800  1
  C  2137  1  0.49087300  0.45886900  0.14307600  1
  C  2143  1  0.47884200  0.86881100  0.80727600  1
  C  2144  1  0.49425600  0.87826800  0.82441700  1
  C  2145  1  0.52115000  0.87784100  0.82275800  1
  C  2146  1  0.53321700  0.86845500  0.80374600  1
  C  2147  1  0.51775000  0.85918400  0.78630000  1
  C  2150  1  0.49086700  0.85969900  0.78821200  1
  C  2156  1  0.53341800  0.44971800  0.80725000  1
  C  2157  1  0.51799900  0.44028100  0.82438600  1
  C  2158  1  0.49110500  0.44069000  0.82271000  1
  C  2159  1  0.47903400  0.45006100  0.80368700  1
  C  2160  1  0.49451900  0.45936400  0.78626700  1
  C  2163  1  0.52140200  0.45885100  0.78818500  1
  C  2169  1  0.71371400  0.68641300  0.12632300  1
  C  2170  1  0.69336600  0.67118100  0.13376500  1
  C  2171  1  0.69498400  0.64446100  0.13311200  1
  C  2172  1  0.71681700  0.63198800  0.12489300  1
  C  2173  1  0.73785000  0.64734000  0.11795600  1
  C  2176  1  0.73602100  0.67433000  0.11871600  1
  C  2182  1  0.71372000  0.63215600  0.80494200  1
  C  2183  1  0.69336500  0.64739200  0.79751700  1
  C  2184  1  0.69498200  0.67411400  0.79817000  1
  C  2185  1  0.71681100  0.68658600  0.80639300  1
  C  2186  1  0.73784700  0.67123300  0.81331900  1
  C  2189  1  0.73602100  0.64424300  0.81255900  1
  C  2195  1  0.29855600  0.63217300  0.12629500  1
  C  2196  1  0.31889900  0.64740500  0.13374800  1
  C  2197  1  0.31727900  0.67412500  0.13309500  1
  C  2198  1  0.29544700  0.68659900  0.12488300  1
  C  2199  1  0.27442000  0.67124600  0.11793500  1
  C  2202  1  0.27624100  0.64425600  0.11870300  1
  C  2208  1  0.29855200  0.68640000  0.80499000  1
  C  2209  1  0.31890000  0.67116800  0.79754400  1
  C  2210  1  0.31728000  0.64444800  0.79819800  1
  C  2211  1  0.29544100  0.63197200  0.80640100  1
  C  2212  1  0.27440700  0.64732500  0.81333700  1
  C  2215  1  0.27623900  0.67431500  0.81258500  1
  C  2221  1  0.66370600  0.81546900  0.98962200  1
  C  2222  1  0.67205300  0.79502400  0.97612600  1
  C  2223  1  0.67107400  0.79653400  0.95282200  1
  C  2224  1  0.66211300  0.81867900  0.94184000  1
  C  2225  1  0.65378000  0.83919900  0.95539200  1
  C  2228  1  0.65460000  0.83726900  0.97851800  1
  C  2234  1  0.34847500  0.81549600  0.94171400  1
  C  2235  1  0.34021300  0.79499300  0.95517700  1
  C  2236  1  0.34117900  0.79651300  0.97847900  1
  C  2237  1  0.35015800  0.81863900  0.98947600  1
  C  2238  1  0.35845200  0.83919100  0.97592900  1
  C  2241  1  0.35766000  0.83726700  0.95279900  1
  C  2247  1  0.66363300  0.50314800  0.94166100  1
  C  2248  1  0.67205400  0.52355500  0.95516100  1
  C  2249  1  0.67107900  0.52204500  0.97846100  1
  C  2250  1  0.66211900  0.49990400  0.98944000  1
  C  2251  1  0.65378300  0.47937500  0.97589300  1
  C  2254  1  0.65457400  0.48132000  0.95276100  1
  C  2260  1  0.34848700  0.50308000  0.98957100  1
  C  2261  1  0.34022300  0.52357400  0.97609900  1
  C  2262  1  0.34122100  0.52206200  0.95279600  1
  C  2263  1  0.35015200  0.49990000  0.94181500  1
  C  2264  1  0.35847500  0.47937500  0.95536600  1
  C  2267  1  0.35768200  0.48130400  0.97849400  1
  N  732  1  0.23019900  0.22664500  0.22574900  1
  N  733  1  0.28214800  0.28552400  0.28645500  1
  N  745  1  0.78205300  0.78561900  0.22576600  1
  N  746  1  0.73011000  0.72674200  0.28648200  1
  N  758  1  0.78207200  0.22666800  0.78650300  1
  N  759  1  0.73011900  0.28552900  0.72578800  1
  N  771  1  0.23018800  0.78561300  0.78653100  1
  N  772  1  0.28213300  0.72675400  0.72581200  1
  N  784  1  0.22662900  0.23023300  0.78650600  1
  N  785  1  0.28549600  0.28216400  0.72578600  1
  N  797  1  0.78562500  0.78208900  0.78652400  1
  N  798  1  0.72674800  0.73013800  0.72581400  1
  N  810  1  0.22666400  0.78208100  0.22577900  1
  N  811  1  0.28551400  0.73011900  0.28648600  1
  N  823  1  0.78563300  0.23020200  0.22575400  1
  N  824  1  0.72676900  0.28215100  0.28646400  1
  N  836  1  0.05864400  0.21524500  0.16304500  1
  N  837  1  0.95440400  0.20973000  0.16742200  1
  N  849  1  0.95362500  0.79695900  0.16304800  1
  N  850  1  0.05786700  0.80253600  0.16745300  1
  N  862  1  0.95362000  0.21524900  0.84920900  1
  N  863  1  0.05787100  0.20975300  0.84478600  1
  N  875  1  0.05864000  0.79704200  0.84923500  1
  N  876  1  0.95439500  0.80255700  0.84484000  1
  N  888  1  0.20998600  0.05810400  0.16576100  1
  N  889  1  0.21618800  0.95347400  0.16385500  1
  N  901  1  0.20997900  0.95418000  0.84652100  1
  N  902  1  0.21618300  0.05880900  0.84842600  1
  N  914  1  0.80227900  0.95416300  0.16578400  1
  N  915  1  0.79608100  0.05879300  0.16385300  1
  N  927  1  0.80228000  0.05811800  0.84649300  1
  N  928  1  0.79607500  0.95349100  0.84841900  1
  N  940  1  0.16917000  0.16567400  0.05159800  1
  N  941  1  0.16667600  0.16983200  0.96076600  1
  N  953  1  0.84308400  0.16569400  0.96066100  1
  N  954  1  0.84558900  0.16983800  0.05148900  1
  N  966  1  0.16915700  0.84660500  0.96067900  1
  N  967  1  0.16667100  0.84244100  0.05151100  1
  N  979  1  0.84309400  0.84657600  0.05160800  1
  N  980  1  0.84560300  0.84243400  0.96079300  1
  N  992  1  0.55864600  0.71524300  0.66307000  1
  N  993  1  0.45440000  0.70976600  0.66745000  1
  N  1005  1  0.45362100  0.29697900  0.66302600  1
  N  1006  1  0.55786500  0.30255900  0.66743700  1
  N  1018  1  0.45361900  0.71528100  0.34924900  1
  N  1019  1  0.55786700  0.70974300  0.34482600  1
  N  1031  1  0.55864100  0.29703100  0.34921000  1
  N  1032  1  0.45439700  0.30251700  0.34482800  1
  N  1044  1  0.70998400  0.55811600  0.66578000  1
  N  1045  1  0.71618500  0.45348700  0.66385500  1
  N  1057  1  0.70998100  0.45416700  0.34649000  1
  N  1058  1  0.71617900  0.55879600  0.34842400  1
  N  1070  1  0.30228500  0.45418200  0.66575800  1
  N  1071  1  0.29607900  0.55881100  0.66385500  1
  N  1083  1  0.30227000  0.55810300  0.34652600  1
  N  1084  1  0.29607100  0.45347200  0.34842200  1
  N  1096  1  0.66919000  0.66568300  0.55161900  1
  N  1097  1  0.66666667  0.66982600  0.46078700  1
  N  1109  1  0.34309700  0.66567800  0.46068200  1
  N  1110  1  0.34558800  0.66983900  0.55151100  1
  N  1122  1  0.66917600  0.34658100  0.46066900  1
  N  1123  1  0.66666667  0.34243600  0.55148500  1
  N  1135  1  0.34310100  0.34661100  0.55159500  1
  N  1136  1  0.34558900  0.34245900  0.46076400  1
  N  1868  1  0.23019900  0.37979000  0.68525300  1
  N  1869  1  0.28214800  0.43866900  0.74595900  1
  N  1881  1  0.78205300  0.93876400  0.68527000  1
  N  1882  1  0.73011000  0.87988700  0.74598600  1
  N  1894  1  0.78207200  0.37981300  0.24600700  1
  N  1895  1  0.73011900  0.43867400  0.18529200  1
  N  1907  1  0.23018800  0.93875800  0.24603500  1
  N  1908  1  0.28213300  0.87989900  0.18531600  1
  N  1920  1  0.22662900  0.38337800  0.24601000  1
  N  1921  1  0.28549600  0.43530900  0.18529000  1
  N  1933  1  0.78562500  0.93523400  0.24602800  1
  N  1934  1  0.72674800  0.88328300  0.18531800  1
  N  1946  1  0.22666400  0.93522600  0.68528300  1
  N  1947  1  0.28551400  0.88326400  0.74599000  1
  N  1959  1  0.78563300  0.38334700  0.68525800  1
  N  1960  1  0.72676900  0.43529600  0.74596800  1
  N  1972  1  0.05864400  0.36839000  0.62254900  1
  N  1973  1  0.95440400  0.36287500  0.62692600  1
  N  1985  1  0.95362500  0.95010400  0.62255200  1
  N  1986  1  0.05786700  0.95568100  0.62695700  1
  N  1998  1  0.95362000  0.36839400  0.30871300  1
  N  1999  1  0.05787100  0.36289800  0.30429000  1
  N  2011  1  0.05864000  0.95018700  0.30873900  1
  N  2012  1  0.95439500  0.95570200  0.30434400  1
  N  2024  1  0.20998600  0.21124900  0.62526500  1
  N  2025  1  0.21618800  0.10661900  0.62335900  1
  N  2037  1  0.20997900  0.10732500  0.30602500  1
  N  2038  1  0.21618300  0.21195400  0.30793000  1
  N  2050  1  0.80227900  0.10730800  0.62528800  1
  N  2051  1  0.79608100  0.21193800  0.62335700  1
  N  2063  1  0.80228000  0.21126300  0.30599700  1
  N  2064  1  0.79607500  0.10663600  0.30792300  1
  N  2076  1  0.16917000  0.31881900  0.51110200  1
  N  2077  1  0.16667600  0.32297700  0.42027000  1
  N  2089  1  0.84308400  0.31883900  0.42016500  1
  N  2090  1  0.84558900  0.32298300  0.51099300  1
  N  2102  1  0.16915700  0.99975000  0.42018300  1
  N  2103  1  0.16667100  0.99558600  0.51101500  1
  N  2115  1  0.84309400  0.99972100  0.51111200  1
  N  2116  1  0.84560300  0.99557900  0.42029700  1
  N  2128  1  0.55864600  0.86838800  0.12257400  1
  N  2129  1  0.45440000  0.86291100  0.12695400  1
  N  2141  1  0.45362100  0.45012400  0.12253000  1
  N  2142  1  0.55786500  0.45570400  0.12694100  1
  N  2154  1  0.45361900  0.86842600  0.80875300  1
  N  2155  1  0.55786700  0.86288800  0.80433000  1
  N  2167  1  0.55864100  0.45017600  0.80871400  1
  N  2168  1  0.45439700  0.45566200  0.80433200  1
  N  2180  1  0.70998400  0.71126100  0.12528400  1
  N  2181  1  0.71618500  0.60663200  0.12335900  1
  N  2193  1  0.70998100  0.60731200  0.80599400  1
  N  2194  1  0.71617900  0.71194100  0.80792800  1
  N  2206  1  0.30228500  0.60732700  0.12526200  1
  N  2207  1  0.29607900  0.71195600  0.12335900  1
  N  2219  1  0.30227000  0.71124800  0.80603000  1
  N  2220  1  0.29607100  0.60661700  0.80792600  1
  N  2232  1  0.66919000  0.81882800  0.01112280  1
  N  2233  1  0.66666667  0.82297100  0.92029100  1
  N  2245  1  0.34309700  0.81882300  0.92018600  1
  N  2246  1  0.34558800  0.82298400  0.01101480  1
  N  2258  1  0.66917600  0.49972600  0.92017300  1
  N  2259  1  0.66666667  0.49558100  0.01098880  1
  N  2271  1  0.34310100  0.49975600  0.01109880  1
  N  2272  1  0.34558900  0.49560400  0.92026800  1
  O  730  1  0.23332800  0.30225300  0.26714700  1
  O  743  1  0.77892700  0.71000900  0.26715400  1
  O  756  1  0.77893600  0.30225300  0.74510000  1
  O  769  1  0.23332900  0.71004800  0.74515900  1
  O  782  1  0.30224600  0.23333900  0.74513600  1
  O  795  1  0.71001800  0.77894800  0.74513900  1
  O  808  1  0.30224700  0.77893200  0.26713100  1
  O  821  1  0.71002000  0.23331700  0.26713600  1
  O  834  1  0.98560900  0.19571900  0.20459200  1
  O  847  1  0.02665600  0.81654700  0.20462000  1
  O  860  1  0.02664100  0.19573100  0.80766100  1
  O  873  1  0.98561500  0.81656400  0.80769100  1
  O  886  1  0.26025600  0.98521300  0.14994000  1
  O  899  1  0.26025800  0.02707100  0.86232300  1
  O  912  1  0.75201200  0.02705200  0.14996100  1
  O  925  1  0.75199800  0.98523000  0.86230500  1
  O  938  1  0.14592600  0.20937800  0.98838900  1
  O  951  1  0.86630600  0.20939500  0.02386200  1
  O  964  1  0.14592700  0.80290700  0.02388500  1
  O  977  1  0.86629800  0.80289000  0.98843200  1
  O  990  1  0.48562300  0.69573400  0.70462600  1
  O  1003  1  0.52665500  0.31656200  0.70458800  1
  O  1016  1  0.52664800  0.69572100  0.30768000  1
  O  1029  1  0.48562000  0.31655500  0.30765600  1
  O  1042  1  0.76026400  0.48522500  0.64997600  1
  O  1055  1  0.76025000  0.52705600  0.36231900  1
  O  1068  1  0.25200600  0.52707200  0.64995200  1
  O  1081  1  0.25200500  0.48521100  0.36233700  1
  O  1094  1  0.64595400  0.70939900  0.48842400  1
  O  1107  1  0.36632900  0.70937200  0.52389000  1
  O  1120  1  0.64595700  0.30288500  0.52385100  1
  O  1133  1  0.36634500  0.30290000  0.48839700  1
  O  1866  1  0.23332800  0.45539800  0.72665100  1
  O  1879  1  0.77892700  0.86315400  0.72665800  1
  O  1892  1  0.77893600  0.45539800  0.20460400  1
  O  1905  1  0.23332900  0.86319300  0.20466300  1
  O  1918  1  0.30224600  0.38648400  0.20464000  1
  O  1931  1  0.71001800  0.93209300  0.20464300  1
  O  1944  1  0.30224700  0.93207700  0.72663500  1
  O  1957  1  0.71002000  0.38646200  0.72664000  1
  O  1970  1  0.98560900  0.34886400  0.66409600  1
  O  1983  1  0.02665600  0.96969200  0.66412400  1
  O  1996  1  0.02664100  0.34887600  0.26716500  1
  O  2009  1  0.98561500  0.96970900  0.26719500  1
  O  2022  1  0.26025600  0.13835800  0.60944400  1
  O  2035  1  0.26025800  0.18021600  0.32182700  1
  O  2048  1  0.75201200  0.18019700  0.60946500  1
  O  2061  1  0.75199800  0.13837500  0.32180900  1
  O  2074  1  0.14592600  0.36252300  0.44789300  1
  O  2087  1  0.86630600  0.36254000  0.48336600  1
  O  2100  1  0.14592700  0.95605200  0.48338900  1
  O  2113  1  0.86629800  0.95603500  0.44793600  1
  O  2126  1  0.48562300  0.84887900  0.16413000  1
  O  2139  1  0.52665500  0.46970700  0.16409200  1
  O  2152  1  0.52664800  0.84886600  0.76718400  1
  O  2165  1  0.48562000  0.46970000  0.76716000  1
  O  2178  1  0.76026400  0.63837000  0.10948000  1
  O  2191  1  0.76025000  0.68020100  0.82182300  1
  O  2204  1  0.25200600  0.68021700  0.10945600  1
  O  2217  1  0.25200500  0.63835600  0.82184100  1
  O  2230  1  0.64595400  0.86254400  0.94792800  1
  O  2243  1  0.36632900  0.86251700  0.98339400  1
  O  2256  1  0.64595700  0.45603000  0.98335500  1
  O  2269  1  0.36634500  0.45604500  0.94790100  1
