# generated using pymatgen
data_H8C13N5O
_symmetry_space_group_name_H-M   'P 1'
_cell_length_a   31.32290000
_cell_length_b   41.64070000
_cell_length_c   56.91590000
_cell_angle_alpha   90.00000000
_cell_angle_beta   90.42660000
_cell_angle_gamma   90.00000000
_symmetry_Int_Tables_number   1
_chemical_formula_structural   H8C13N5O
_chemical_formula_sum   'H256 C416 N160 O32'
_cell_volume   74233.77653556
_cell_formula_units_Z   32
loop_
 _symmetry_equiv_pos_site_id
 _symmetry_equiv_pos_as_xyz
  1  'x, y, z'
loop_
 _atom_site_type_symbol
 _atom_site_label
 _atom_site_symmetry_multiplicity
 _atom_site_fract_x
 _atom_site_fract_y
 _atom_site_fract_z
 _atom_site_occupancy
  H  7  1  0.95822300  0.19311700  0.36259200  1
  H  8  1  0.07080900  0.19154100  0.40369100  1
  H  9  1  0.96448700  0.13922100  0.42462900  1
  H  16  1  0.99478200  0.21629200  0.33466400  1
  H  17  1  0.10067300  0.27313200  0.31911600  1
  H  18  1  0.09097500  0.23344400  0.38583800  1
  H  29  1  0.45812800  0.90564500  0.63978000  1
  H  30  1  0.57080300  0.90756100  0.59969200  1
  H  31  1  0.46444000  0.95991400  0.57794900  1
  H  38  1  0.49526800  0.88289800  0.66813000  1
  H  39  1  0.60069500  0.82521400  0.68393400  1
  H  40  1  0.59006100  0.86484800  0.61713400  1
  H  51  1  0.52538700  0.91904300  0.35149500  1
  H  52  1  0.46179600  0.88693700  0.41222700  1
  H  53  1  0.55565700  0.95819200  0.41720500  1
  H  60  1  0.51043600  0.86801100  0.33871500  1
  H  61  1  0.39153000  0.82604700  0.32400600  1
  H  62  1  0.40671100  0.88108000  0.38484900  1
  H  73  1  0.02544700  0.17980900  0.65139300  1
  H  74  1  0.96140300  0.21193600  0.59028500  1
  H  75  1  0.05553800  0.14091900  0.58582500  1
  H  82  1  0.01055000  0.23087300  0.66404900  1
  H  83  1  0.89160900  0.27248800  0.67818700  1
  H  84  1  0.90637800  0.21754600  0.61739100  1
  H  95  1  0.00630400  0.93095200  0.64630200  1
  H  96  1  0.95140700  0.87180300  0.59417600  1
  H  97  1  0.00087100  0.96141700  0.57597600  1
  H  104  1  0.01027700  0.87566200  0.66554000  1
  H  105  1  0.90111000  0.82450500  0.68684100  1
  H  106  1  0.89961300  0.87281900  0.62276300  1
  H  117  1  0.50650900  0.16814100  0.35643700  1
  H  118  1  0.45208400  0.22708300  0.40838200  1
  H  119  1  0.50124800  0.13723700  0.42662900  1
  H  126  1  0.51026100  0.22343600  0.33729400  1
  H  127  1  0.40105600  0.27497800  0.31562900  1
  H  128  1  0.40009200  0.22627600  0.37953400  1
  H  139  1  0.50685700  0.15674800  0.65070900  1
  H  140  1  0.53123000  0.21937900  0.59387300  1
  H  141  1  0.48181100  0.12758100  0.58124500  1
  H  148  1  0.49341000  0.21399100  0.66766500  1
  H  149  1  0.59874800  0.27353500  0.68265500  1
  H  150  1  0.59472500  0.22221800  0.61956900  1
  H  161  1  0.00703400  0.94230600  0.35227500  1
  H  162  1  0.03154500  0.87946600  0.40917300  1
  H  163  1  0.98222200  0.97124400  0.42160900  1
  H  170  1  0.99313800  0.88512900  0.33520200  1
  H  171  1  0.09822100  0.82558100  0.32060500  1
  H  172  1  0.09496800  0.87662500  0.38379000  1
  H  183  1  0.97492700  0.68013900  0.85495900  1
  H  184  1  0.06830300  0.70287700  0.90617400  1
  H  185  1  0.96322000  0.64656700  0.92411700  1
  H  192  1  0.99728200  0.72598400  0.83770200  1
  H  193  1  0.11159200  0.77058200  0.81845000  1
  H  194  1  0.11138800  0.70834500  0.87583400  1
  H  205  1  0.47494400  0.41869100  0.14791700  1
  H  206  1  0.56754300  0.39624900  0.09687500  1
  H  207  1  0.46218900  0.45274900  0.07892500  1
  H  214  1  0.49722500  0.37290700  0.16514400  1
  H  215  1  0.61143500  0.32782800  0.18486200  1
  H  216  1  0.61089900  0.39003600  0.12744500  1
  H  227  1  0.52402400  0.42025900  0.84990900  1
  H  228  1  0.45655400  0.38744000  0.90912700  1
  H  229  1  0.54940600  0.45901500  0.91634000  1
  H  236  1  0.51169400  0.36875700  0.83735900  1
  H  237  1  0.39666300  0.32217300  0.82108700  1
  H  238  1  0.40351100  0.38094200  0.88044300  1
  H  249  1  0.02407300  0.67859500  0.15290400  1
  H  250  1  0.95612200  0.71150100  0.09332200  1
  H  251  1  0.04934800  0.64026300  0.08654100  1
  H  258  1  0.01181400  0.73014100  0.16536900  1
  H  259  1  0.89671700  0.77628800  0.18119100  1
  H  260  1  0.90314400  0.71766300  0.12179500  1
  H  271  1  0.98938300  0.43174300  0.14741200  1
  H  272  1  0.94907300  0.37295900  0.09107400  1
  H  273  1  0.99743500  0.46407200  0.07761200  1
  H  280  1  0.99094800  0.38076700  0.16726700  1
  H  281  1  0.90719800  0.30265800  0.17498900  1
  H  282  1  0.89846000  0.35918200  0.11508500  1
  H  293  1  0.48942200  0.66735600  0.85527700  1
  H  294  1  0.44864300  0.72583800  0.91134700  1
  H  295  1  0.49707500  0.63471000  0.92507900  1
  H  302  1  0.49099600  0.71815000  0.83548700  1
  H  303  1  0.40800000  0.79668600  0.82705600  1
  H  304  1  0.39851200  0.74013800  0.88683200  1
  H  315  1  0.50773500  0.65873000  0.15096300  1
  H  316  1  0.53457300  0.72031200  0.09397300  1
  H  317  1  0.49349600  0.62619000  0.08140000  1
  H  324  1  0.49008000  0.71643100  0.16653600  1
  H  325  1  0.59225700  0.77797900  0.18356400  1
  H  326  1  0.59621900  0.72421400  0.12171000  1
  H  337  1  0.00638600  0.43996100  0.85192300  1
  H  338  1  0.03556500  0.37868700  0.90899400  1
  H  339  1  0.99138200  0.47194900  0.92145100  1
  H  346  1  0.98976300  0.38241400  0.83623600  1
  H  347  1  0.09204800  0.32123800  0.81959500  1
  H  348  1  0.09657800  0.37492100  0.88150500  1
  H  359  1  0.98000000  0.10619200  0.51470800  1
  H  363  1  0.01049300  0.21761100  0.44983500  1
  H  364  1  0.03720800  0.25034900  0.45794000  1
  H  366  1  0.07467000  0.14443600  0.46318900  1
  H  368  1  0.98060000  0.13143800  0.55428800  1
  H  375  1  0.48025600  0.99290800  0.48781800  1
  H  379  1  0.51050000  0.88156500  0.55302200  1
  H  380  1  0.53730200  0.84884000  0.54520300  1
  H  382  1  0.57467200  0.95484900  0.54029200  1
  H  384  1  0.48112800  0.96766100  0.44826700  1
  H  391  1  0.01656400  0.97812400  0.49349800  1
  H  395  1  0.98992900  0.85614300  0.54860500  1
  H  396  1  0.97423400  0.82197900  0.53608900  1
  H  398  1  0.91948100  0.91344500  0.53416400  1
  H  400  1  0.04085600  0.95661600  0.45412500  1
  H  407  1  0.51665900  0.12056700  0.50954100  1
  H  411  1  0.49005400  0.24251700  0.45416100  1
  H  412  1  0.47415800  0.27664700  0.46651800  1
  H  414  1  0.41968500  0.18501600  0.46787100  1
  H  416  1  0.54059400  0.14211200  0.54915000  1
  H  423  1  0.98693100  0.60887800  0.01446600  1
  H  427  1  0.00107800  0.72747800  0.95405100  1
  H  428  1  0.01930300  0.76225600  0.96441100  1
  H  430  1  0.07552400  0.66957300  0.96513500  1
  H  432  1  0.97714000  0.63120200  0.05487300  1
  H  439  1  0.48737900  0.49030600  0.98807300  1
  H  443  1  0.50080100  0.37158800  0.04843300  1
  H  444  1  0.51914300  0.33682200  0.03828700  1
  H  446  1  0.57562000  0.42827500  0.03924300  1
  H  448  1  0.47737300  0.46798700  0.94758100  1
  H  455  1  0.02345100  0.47911300  0.99257100  1
  H  459  1  0.99443400  0.35862000  0.04894900  1
  H  460  1  0.98025600  0.32392300  0.03666900  1
  H  462  1  0.92416100  0.41547300  0.03104200  1
  H  464  1  0.04939900  0.45690100  0.95370000  1
  H  471  1  0.52311100  0.61954500  0.01037400  1
  H  475  1  0.49412200  0.74002600  0.95377500  1
  H  476  1  0.47999400  0.77473700  0.96593300  1
  H  478  1  0.42372100  0.68316800  0.97113000  1
  H  480  1  0.54964500  0.64184500  0.04931300  1
  H  487  1  0.00840800  0.25184200  0.22144200  1
  H  491  1  0.02466700  0.33605600  0.30578000  1
  H  492  1  0.99318600  0.36741900  0.31102100  1
  H  494  1  0.98293400  0.28416400  0.30962800  1
  H  496  1  0.98143400  0.28966400  0.19154400  1
  H  503  1  0.50952000  0.84700000  0.78133200  1
  H  507  1  0.52480000  0.76251100  0.69721600  1
  H  508  1  0.49299800  0.73131100  0.69177300  1
  H  510  1  0.48355400  0.81452000  0.69298900  1
  H  512  1  0.48219100  0.80937800  0.81105200  1
  H  519  1  0.47877500  0.84095600  0.22312100  1
  H  523  1  0.48383500  0.76261900  0.31185200  1
  H  524  1  0.51765200  0.73233800  0.31601600  1
  H  526  1  0.52618900  0.82246700  0.30811500  1
  H  528  1  0.51576500  0.80462600  0.19441500  1
  H  535  1  0.97862100  0.25793700  0.77947300  1
  H  539  1  0.98387300  0.33613700  0.69072900  1
  H  540  1  0.01757400  0.36650200  0.68687500  1
  H  542  1  0.02632200  0.27650800  0.69485000  1
  H  544  1  0.01530700  0.29440900  0.80852000  1
  H  551  1  0.00748800  0.84907300  0.78243100  1
  H  555  1  0.98126500  0.76887700  0.69559900  1
  H  556  1  0.00873500  0.73549600  0.69036700  1
  H  558  1  0.03210000  0.82275700  0.69486200  1
  H  560  1  0.04339500  0.80814400  0.80988100  1
  H  567  1  0.50693700  0.24986100  0.22047800  1
  H  571  1  0.48162900  0.33028500  0.30708200  1
  H  572  1  0.50938600  0.36354600  0.31248600  1
  H  574  1  0.53218800  0.27602300  0.30813700  1
  H  576  1  0.54313500  0.29055900  0.19326700  1
  H  583  1  0.49973100  0.24704400  0.78039600  1
  H  587  1  0.52489200  0.33287600  0.69685300  1
  H  588  1  0.49573400  0.36562500  0.69192300  1
  H  590  1  0.47950000  0.28150800  0.69254200  1
  H  592  1  0.46352000  0.28588400  0.80883200  1
  H  599  1  0.99934100  0.85190600  0.22234800  1
  H  603  1  0.02514000  0.76622300  0.30609800  1
  H  604  1  0.99624800  0.73334000  0.31080100  1
  H  606  1  0.97944200  0.81722600  0.31010900  1
  H  608  1  0.96366400  0.81285800  0.19358800  1
  H  615  1  0.01655800  0.07195000  0.36093200  1
  H  619  1  0.82894000  0.09005200  0.35684100  1
  H  620  1  0.79413400  0.06975200  0.37315100  1
  H  622  1  0.86925700  0.12812400  0.37983800  1
  H  624  1  0.01053100  0.00900400  0.35437600  1
  H  631  1  0.51705800  0.02704800  0.64133700  1
  H  635  1  0.32971400  0.00817700  0.64583700  1
  H  636  1  0.29416400  0.02871800  0.62989300  1
  H  638  1  0.36927400  0.97089100  0.62199700  1
  H  640  1  0.51118300  0.08983500  0.64827100  1
  H  647  1  0.48295100  0.04332600  0.35724000  1
  H  651  1  0.67038100  0.02286400  0.35585600  1
  H  652  1  0.70392600  0.03476800  0.37694900  1
  H  654  1  0.62391900  0.97956800  0.36121000  1
  H  656  1  0.48935500  0.10400300  0.36159900  1
  H  663  1  0.98330100  0.05553100  0.64564800  1
  H  667  1  0.17082100  0.07597200  0.64699000  1
  H  668  1  0.20372500  0.06422300  0.62582000  1
  H  670  1  0.12407100  0.11924300  0.64212500  1
  H  672  1  0.98939600  0.99495200  0.64094100  1
  H  679  1  0.01681300  0.56494000  0.85996000  1
  H  683  1  0.83183600  0.59401500  0.85205000  1
  H  684  1  0.79388500  0.57580400  0.86752500  1
  H  686  1  0.87424700  0.62899200  0.87612100  1
  H  688  1  0.99350200  0.50054600  0.84673900  1
  H  695  1  0.51681500  0.53492300  0.14151900  1
  H  699  1  0.33243700  0.50393500  0.15121200  1
  H  700  1  0.29345300  0.52216900  0.13622300  1
  H  702  1  0.37394100  0.47004700  0.12614500  1
  H  704  1  0.48473500  0.60110100  0.15741000  1
  H  711  1  0.47776600  0.54162400  0.85453000  1
  H  715  1  0.66598200  0.52473900  0.85455900  1
  H  716  1  0.69875100  0.53846600  0.87542800  1
  H  718  1  0.62155600  0.48083900  0.86213100  1
  H  720  1  0.48374300  0.60360400  0.85629500  1
  H  727  1  0.97830500  0.55733700  0.14838300  1
  H  731  1  0.16655800  0.57425800  0.14835200  1
  H  732  1  0.19872500  0.56063600  0.12743100  1
  H  734  1  0.12180900  0.61817100  0.14109500  1
  H  736  1  0.98408000  0.49540400  0.14632500  1
  H  743  1  0.21506700  0.23483700  0.35016500  1
  H  747  1  0.33677300  0.34112300  0.37480600  1
  H  748  1  0.33227700  0.36361300  0.39882200  1
  H  750  1  0.35527100  0.28055200  0.38438000  1
  H  752  1  0.14874600  0.27628500  0.39050200  1
  H  759  1  0.71451900  0.86364700  0.65268600  1
  H  763  1  0.83649400  0.75818800  0.62769100  1
  H  764  1  0.83129700  0.73555900  0.60374800  1
  H  766  1  0.85402500  0.81867900  0.61797400  1
  H  768  1  0.64718000  0.82172900  0.61264100  1
  H  775  1  0.27827300  0.87491300  0.35864500  1
  H  779  1  0.16347300  0.76215300  0.37676000  1
  H  780  1  0.17120600  0.73642600  0.39874000  1
  H  782  1  0.14262000  0.82299000  0.39078800  1
  H  784  1  0.35180700  0.82387400  0.39107300  1
  H  791  1  0.77801100  0.22353100  0.64379800  1
  H  795  1  0.66327100  0.33685800  0.62636600  1
  H  796  1  0.67012300  0.36246700  0.60428800  1
  H  798  1  0.64133800  0.27595300  0.61253000  1
  H  800  1  0.85043600  0.27424100  0.61091100  1
  H  807  1  0.27256300  0.71365000  0.85109600  1
  H  811  1  0.29181500  0.85630400  0.85937900  1
  H  812  1  0.26269600  0.87879800  0.87742200  1
  H  814  1  0.33903600  0.82166900  0.88380700  1
  H  816  1  0.19001500  0.70965900  0.85914300  1
  H  823  1  0.77215900  0.38515200  0.15181800  1
  H  827  1  0.79334300  0.24257000  0.14318400  1
  H  828  1  0.76313400  0.21983300  0.12561600  1
  H  830  1  0.83773000  0.27799500  0.11792200  1
  H  832  1  0.68941600  0.38869900  0.14470600  1
  H  839  1  0.27793400  0.36894200  0.85043200  1
  H  843  1  0.16221900  0.25979400  0.87618800  1
  H  844  1  0.17050200  0.23618300  0.89935300  1
  H  846  1  0.14379600  0.32150000  0.88803200  1
  H  848  1  0.35140400  0.31970100  0.88545700  1
  H  855  1  0.77771100  0.72965800  0.15208700  1
  H  859  1  0.66187300  0.83944300  0.12689900  1
  H  860  1  0.66930200  0.86292200  0.10364100  1
  H  862  1  0.64246100  0.77765500  0.11519300  1
  H  864  1  0.85010400  0.77864900  0.11671200  1
  C  1  1  0.01824700  0.19780900  0.38007600  1
  C  2  1  0.97614000  0.18579400  0.37663400  1
  C  3  1  0.95719800  0.16343600  0.39207900  1
  C  4  1  0.97850600  0.15469800  0.41303900  1
  C  5  1  0.01986100  0.16639300  0.41755200  1
  C  6  1  0.03958300  0.18606300  0.40058500  1
  C  10  1  0.03852700  0.22008000  0.36366300  1
  C  11  1  0.02216800  0.22678900  0.34063200  1
  C  12  1  0.04377400  0.24705900  0.32464900  1
  C  13  1  0.08360800  0.25990900  0.33102900  1
  C  14  1  0.10015700  0.25521400  0.35366700  1
  C  15  1  0.07730700  0.23613500  0.36970200  1
  C  23  1  0.51814600  0.90110600  0.62277600  1
  C  24  1  0.47604500  0.91309200  0.62591500  1
  C  25  1  0.45714100  0.93555500  0.61038500  1
  C  26  1  0.47847100  0.94440700  0.58962800  1
  C  27  1  0.51981900  0.93272200  0.58541700  1
  C  28  1  0.53954400  0.91299300  0.60251100  1
  C  32  1  0.53837800  0.87868600  0.63924600  1
  C  33  1  0.52238900  0.87215300  0.66224400  1
  C  34  1  0.54400000  0.85168100  0.67826700  1
  C  35  1  0.58353800  0.83851800  0.67197000  1
  C  36  1  0.59969900  0.84306400  0.64936100  1
  C  37  1  0.57675400  0.86228600  0.63326800  1
  C  45  1  0.48801400  0.89984500  0.37915400  1
  C  46  1  0.51921600  0.92025500  0.36909400  1
  C  47  1  0.54322800  0.94220500  0.38265600  1
  C  48  1  0.53601900  0.94418600  0.40702500  1
  C  49  1  0.50482000  0.92476800  0.41783100  1
  C  50  1  0.48215900  0.90231400  0.40389100  1
  C  54  1  0.46362600  0.87768600  0.36478600  1
  C  55  1  0.47966600  0.86382500  0.34367300  1
  C  56  1  0.45362000  0.84497300  0.32857600  1
  C  57  1  0.41109700  0.83909000  0.33495700  1
  C  58  1  0.39497400  0.85074900  0.35624300  1
  C  59  1  0.42067800  0.87052500  0.37061400  1
  C  67  1  0.98784500  0.19898800  0.62351300  1
  C  68  1  0.01917500  0.17861700  0.63375400  1
  C  69  1  0.04323700  0.15677100  0.62033100  1
  C  70  1  0.03587200  0.15481600  0.59591000  1
  C  71  1  0.00457300  0.17422500  0.58492600  1
  C  72  1  0.98184600  0.19656800  0.59873900  1
  C  76  1  0.96349400  0.22109300  0.63774100  1
  C  77  1  0.97971600  0.23500200  0.65892500  1
  C  78  1  0.95374700  0.25378500  0.67388600  1
  C  79  1  0.91111900  0.25952200  0.66731200  1
  C  80  1  0.89481700  0.24786800  0.64593300  1
  C  81  1  0.92044800  0.22814600  0.63169500  1
  C  89  1  0.97824100  0.89694200  0.62314100  1
  C  90  1  0.00024800  0.92564400  0.62904500  1
  C  91  1  0.01049200  0.94875900  0.61165600  1
  C  92  1  0.99816000  0.94331700  0.58807300  1
  C  93  1  0.97673100  0.91491000  0.58167600  1
  C  94  1  0.96857400  0.89171100  0.59904300  1
  C  98  1  0.95935000  0.87649100  0.64064200  1
  C  99  1  0.97993600  0.86781600  0.66207600  1
  C  100  1  0.95873100  0.84877200  0.67906700  1
  C  101  1  0.91685000  0.83803800  0.67457300  1
  C  102  1  0.89629200  0.84524500  0.65327300  1
  C  103  1  0.91692600  0.86536900  0.63707800  1
  C  111  1  0.47861500  0.20203800  0.37951500  1
  C  112  1  0.50055800  0.17335100  0.37367100  1
  C  113  1  0.51077800  0.15010700  0.39105600  1
  C  114  1  0.49840600  0.15538000  0.41455100  1
  C  115  1  0.47720700  0.18381500  0.42092300  1
  C  116  1  0.46906900  0.20712700  0.40356700  1
  C  120  1  0.45963200  0.22260000  0.36195300  1
  C  121  1  0.47999400  0.23133300  0.34063700  1
  C  122  1  0.45867100  0.25052200  0.32359800  1
  C  123  1  0.41689200  0.26136000  0.32793500  1
  C  124  1  0.39655500  0.25408300  0.34912200  1
  C  125  1  0.41728800  0.23378700  0.36533400  1
  C  133  1  0.52120200  0.19211600  0.62497900  1
  C  134  1  0.50642900  0.16186000  0.63312900  1
  C  135  1  0.49184900  0.13812900  0.61716300  1
  C  136  1  0.49249000  0.14461600  0.59290700  1
  C  137  1  0.50832600  0.17390900  0.58422400  1
  C  138  1  0.52096600  0.19778700  0.60034700  1
  C  142  1  0.53975400  0.21541600  0.64057100  1
  C  143  1  0.52170600  0.22396000  0.66254500  1
  C  144  1  0.54271700  0.24585300  0.67779800  1
  C  145  1  0.58240200  0.25883300  0.67126300  1
  C  146  1  0.60032200  0.25151800  0.64938800  1
  C  147  1  0.57936200  0.22949300  0.63448000  1
  C  155  1  0.02141300  0.90683800  0.37804500  1
  C  156  1  0.00666300  0.93713800  0.36984500  1
  C  157  1  0.99218000  0.96083100  0.38574600  1
  C  158  1  0.99285400  0.95424400  0.40999300  1
  C  159  1  0.00868400  0.92491200  0.41873800  1
  C  160  1  0.02126700  0.90108200  0.40266500  1
  C  164  1  0.03976800  0.88354600  0.36253100  1
  C  165  1  0.02145600  0.87509500  0.34045200  1
  C  166  1  0.04224700  0.85322000  0.32527200  1
  C  167  1  0.08200100  0.84021600  0.33196900  1
  C  168  1  0.10018300  0.84741600  0.35395100  1
  C  169  1  0.07941600  0.86940100  0.36879900  1
  C  177  1  0.02680600  0.69419800  0.87702600  1
  C  178  1  0.98766300  0.67851800  0.87149400  1
  C  179  1  0.96473300  0.66068500  0.88835800  1
  C  180  1  0.98042200  0.65838900  0.91156300  1
  C  181  1  0.01937900  0.67302100  0.91761200  1
  C  182  1  0.04163300  0.69087900  0.90060100  1
  C  186  1  0.04973000  0.71374600  0.86015200  1
  C  187  1  0.02922100  0.72900000  0.84066500  1
  C  188  1  0.05134100  0.74992000  0.82542600  1
  C  189  1  0.09509700  0.75568100  0.82949000  1
  C  190  1  0.11696100  0.74031100  0.84789400  1
  C  191  1  0.09437800  0.71931300  0.86274300  1
  C  199  1  0.52653000  0.40475300  0.12598700  1
  C  200  1  0.48750300  0.42045100  0.13145600  1
  C  201  1  0.46437600  0.43847000  0.11460800  1
  C  202  1  0.47972600  0.44096000  0.09150800  1
  C  203  1  0.51860300  0.42645500  0.08554200  1
  C  204  1  0.54108900  0.40829300  0.10247500  1
  C  208  1  0.54945000  0.38495000  0.14289600  1
  C  209  1  0.52908800  0.36974100  0.16229000  1
  C  210  1  0.55124100  0.34874800  0.17763900  1
  C  211  1  0.59491000  0.34281800  0.17376800  1
  C  212  1  0.61662000  0.35807700  0.15543600  1
  C  213  1  0.59399700  0.37915500  0.14047900  1
  C  221  1  0.48471300  0.40090100  0.87668200  1
  C  222  1  0.51640600  0.42151300  0.86732800  1
  C  223  1  0.53933900  0.44341000  0.88148400  1
  C  224  1  0.53034900  0.44524400  0.90565900  1
  C  225  1  0.49845100  0.42569400  0.91566100  1
  C  226  1  0.47704800  0.40317500  0.90124100  1
  C  230  1  0.46228200  0.37803400  0.86203000  1
  C  231  1  0.48075400  0.36388200  0.84167600  1
  C  232  1  0.45756900  0.34276500  0.82689200  1
  C  233  1  0.41467900  0.33598400  0.83230000  1
  C  234  1  0.39584000  0.34870000  0.85254600  1
  C  235  1  0.41921600  0.37000800  0.86692200  1
  C  243  1  0.98452100  0.69795900  0.12591900  1
  C  244  1  0.01635400  0.67738700  0.13543500  1
  C  245  1  0.03936100  0.65563500  0.12138900  1
  C  246  1  0.03024000  0.65387900  0.09714400  1
  C  247  1  0.99823000  0.67342700  0.08697100  1
  C  248  1  0.97671200  0.69577300  0.10130600  1
  C  252  1  0.96212800  0.72073700  0.14047600  1
  C  253  1  0.98078900  0.73492500  0.16091800  1
  C  254  1  0.95767400  0.75595000  0.17561000  1
  C  255  1  0.91466900  0.76257600  0.17002800  1
  C  256  1  0.89563800  0.74984800  0.14968300  1
  C  257  1  0.91895100  0.72863000  0.13539400  1
  C  265  1  0.96630400  0.39799300  0.12237500  1
  C  266  1  0.98610100  0.42701900  0.12987000  1
  C  267  1  0.99959300  0.45066500  0.11352600  1
  C  268  1  0.99222500  0.44578200  0.08929900  1
  C  269  1  0.97328000  0.41725500  0.08123100  1
  C  270  1  0.96235500  0.39351900  0.09767900  1
  C  274  1  0.94823000  0.37455200  0.13836000  1
  C  275  1  0.96539400  0.36792600  0.16111200  1
  C  276  1  0.95020000  0.34200700  0.17491300  1
  C  277  1  0.91695200  0.32255000  0.16588800  1
  C  278  1  0.89815400  0.32903600  0.14399700  1
  C  279  1  0.91302200  0.35532000  0.13095500  1
  C  287  1  0.46608100  0.70097000  0.88014900  1
  C  288  1  0.48597100  0.67198900  0.87279200  1
  C  289  1  0.49934800  0.64825700  0.88920900  1
  C  290  1  0.49173400  0.65300000  0.91336700  1
  C  291  1  0.47279200  0.68150400  0.92132400  1
  C  292  1  0.46188600  0.70528600  0.90481800  1
  C  296  1  0.44827500  0.72456000  0.86402800  1
  C  297  1  0.46560500  0.73115700  0.84144700  1
  C  298  1  0.45067300  0.75714600  0.82750700  1
  C  299  1  0.41760400  0.77677100  0.83625800  1
  C  300  1  0.39860800  0.77032500  0.85794600  1
  C  301  1  0.41318500  0.74394200  0.87110700  1
  C  309  1  0.52307900  0.69356600  0.12514000  1
  C  310  1  0.50903500  0.66316300  0.13331000  1
  C  311  1  0.49814100  0.63832700  0.11734800  1
  C  312  1  0.50190200  0.64391300  0.09306500  1
  C  313  1  0.51621200  0.67365100  0.08435800  1
  C  314  1  0.52518900  0.69849400  0.10045200  1
  C  318  1  0.53909300  0.71768200  0.14092700  1
  C  319  1  0.51862500  0.72668300  0.16217300  1
  C  320  1  0.53682300  0.74997700  0.17742500  1
  C  321  1  0.57722900  0.76289700  0.17191000  1
  C  322  1  0.59799800  0.75465500  0.15101900  1
  C  323  1  0.57906200  0.73193000  0.13589100  1
  C  331  1  0.02306000  0.40531500  0.87778600  1
  C  332  1  0.00810400  0.43552100  0.86957800  1
  C  333  1  0.99641400  0.46007600  0.88551000  1
  C  334  1  0.00032800  0.45443300  0.90981100  1
  C  335  1  0.01580100  0.42497600  0.91855200  1
  C  336  1  0.02552600  0.40036300  0.90248000  1
  C  340  1  0.03915600  0.38132900  0.86204400  1
  C  341  1  0.01844100  0.37227500  0.84071400  1
  C  342  1  0.03655000  0.34904500  0.82553600  1
  C  343  1  0.07709600  0.33625000  0.83120700  1
  C  344  1  0.09809400  0.34449900  0.85220100  1
  C  345  1  0.07926500  0.36718100  0.86724800  1
  C  353  1  0.01714400  0.15761400  0.47557200  1
  C  355  1  0.98877700  0.12814400  0.50830600  1
  C  356  1  0.99324000  0.15505500  0.52320900  1
  C  358  1  0.01900900  0.18557300  0.48998700  1
  C  360  1  0.03510400  0.21589700  0.48294900  1
  C  365  1  0.04637900  0.15246100  0.45782800  1
  C  367  1  0.98920800  0.15249300  0.54748700  1
  C  369  1  0.51727200  0.94154900  0.52734200  1
  C  371  1  0.48904200  0.97097000  0.49431100  1
  C  372  1  0.49361100  0.94405200  0.47946000  1
  C  374  1  0.51925100  0.91358400  0.51295200  1
  C  376  1  0.53533600  0.88327500  0.52016300  1
  C  381  1  0.54639500  0.94674600  0.54537700  1
  C  383  1  0.48962700  0.94658300  0.45514200  1
  C  385  1  0.98163500  0.91751000  0.52534900  1
  C  387  1  0.01136900  0.95462100  0.49783000  1
  C  388  1  0.01705200  0.92969800  0.48135200  1
  C  390  1  0.99004100  0.89179500  0.50958300  1
  C  392  1  0.97902000  0.85913500  0.51336500  1
  C  397  1  0.94858800  0.91545700  0.54103000  1
  C  399  1  0.02615800  0.93613900  0.45812700  1
  C  401  1  0.48179800  0.18112400  0.47732100  1
  C  403  1  0.51142000  0.14406100  0.50515500  1
  C  404  1  0.51689800  0.16899300  0.52169300  1
  C  406  1  0.48999400  0.20685100  0.49317600  1
  C  408  1  0.47889900  0.23949400  0.48928500  1
  C  413  1  0.44885300  0.18311000  0.46130300  1
  C  415  1  0.52590100  0.16258800  0.54501400  1
  C  417  1  0.01572500  0.66729400  0.97872600  1
  C  419  1  0.99119400  0.63207600  0.00908300  1
  C  420  1  0.98815100  0.65800300  0.02496800  1
  C  422  1  0.00965300  0.69402000  0.99390600  1
  C  424  1  0.01958500  0.72642100  0.98840300  1
  C  429  1  0.04484100  0.66844400  0.96073800  1
  C  431  1  0.98353100  0.65318000  0.04895600  1
  C  433  1  0.51666800  0.43184200  0.02386200  1
  C  435  1  0.49174600  0.46710800  0.99346200  1
  C  436  1  0.48854100  0.44118800  0.97754800  1
  C  438  1  0.51020600  0.40511300  0.00870700  1
  C  440  1  0.51987700  0.37268800  0.01433000  1
  C  445  1  0.54469600  0.43038200  0.04258200  1
  C  447  1  0.48377400  0.44600300  0.95353400  1
  C  449  1  0.98731800  0.41908300  0.02461800  1
  C  451  1  0.01845400  0.45567400  0.99716100  1
  C  452  1  0.02528400  0.43040600  0.98110400  1
  C  454  1  0.99717000  0.39303100  0.00940400  1
  C  456  1  0.98630300  0.36039700  0.01345000  1
  C  461  1  0.95234600  0.41738200  0.03902300  1
  C  463  1  0.03476800  0.43646000  0.95785000  1
  C  465  1  0.48688100  0.67957000  0.97805800  1
  C  467  1  0.51808600  0.64298100  0.00574800  1
  C  468  1  0.52503000  0.66826200  0.02183800  1
  C  470  1  0.49680000  0.70562400  0.99334000  1
  C  472  1  0.48596500  0.73826000  0.98920400  1
  C  477  1  0.45189900  0.68128700  0.96337000  1
  C  479  1  0.53481200  0.66223900  0.04513800  1
  C  481  1  0.99611400  0.28366500  0.27411300  1
  C  483  1  0.00212100  0.26946500  0.23343900  1
  C  484  1  0.98896800  0.30047500  0.22644000  1
  C  486  1  0.98379000  0.31530400  0.26733500  1
  C  488  1  0.97493400  0.34111600  0.28280300  1
  C  493  1  0.99979500  0.27327300  0.29719900  1
  C  495  1  0.98067400  0.30769200  0.20306500  1
  C  497  1  0.49679100  0.81514700  0.72859500  1
  C  499  1  0.50304500  0.82938800  0.76930600  1
  C  500  1  0.48965200  0.79845200  0.77624200  1
  C  502  1  0.48420900  0.78358100  0.73532000  1
  C  504  1  0.47506200  0.75778500  0.71981800  1
  C  509  1  0.50043400  0.82547300  0.70551700  1
  C  511  1  0.48136700  0.79130500  0.79956500  1
  C  513  1  0.49876100  0.81160500  0.27596700  1
  C  515  1  0.48721000  0.82400600  0.23529700  1
  C  516  1  0.50221500  0.79342500  0.22855300  1
  C  518  1  0.51288800  0.78034700  0.26958200  1
  C  520  1  0.52647000  0.75602700  0.28541600  1
  C  525  1  0.49958800  0.82382600  0.29854200  1
  C  527  1  0.51096300  0.78621600  0.20529200  1
  C  529  1  0.99885900  0.28723600  0.72680500  1
  C  531  1  0.98705300  0.27488700  0.76736700  1
  C  532  1  0.00186500  0.30552300  0.77422500  1
  C  534  1  0.01278000  0.31854600  0.73329700  1
  C  536  1  0.02634000  0.34287800  0.71757900  1
  C  541  1  0.99979100  0.27498600  0.70425100  1
  C  543  1  0.01049300  0.31276600  0.79756200  1
  C  545  1  0.01293300  0.81739000  0.72931700  1
  C  547  1  0.01076500  0.83136200  0.77013500  1
  C  548  1  0.02074500  0.79951800  0.77658000  1
  C  550  1  0.02205500  0.78498900  0.73548200  1
  C  552  1  0.02805700  0.75912500  0.71961000  1
  C  557  1  0.00998500  0.82858800  0.70655900  1
  C  559  1  0.03142600  0.79116100  0.79940300  1
  C  561  1  0.51270300  0.28161600  0.27360300  1
  C  563  1  0.51038800  0.26757900  0.23278100  1
  C  564  1  0.52065300  0.29936100  0.22638200  1
  C  566  1  0.52211500  0.31395700  0.26747800  1
  C  568  1  0.52837900  0.33981200  0.28338000  1
  C  573  1  0.50980100  0.27044900  0.29634800  1
  C  575  1  0.53131000  0.30763200  0.20362000  1
  C  577  1  0.49372000  0.28121300  0.72803600  1
  C  579  1  0.49570500  0.26526000  0.76854300  1
  C  580  1  0.48447700  0.29652900  0.77571400  1
  C  582  1  0.48300500  0.31303300  0.73503300  1
  C  584  1  0.47618600  0.33960500  0.71985800  1
  C  589  1  0.49758300  0.27133300  0.70491500  1
  C  591  1  0.47436600  0.30363100  0.79875400  1
  C  593  1  0.99340900  0.81776700  0.27467500  1
  C  595  1  0.99544900  0.83367900  0.23417600  1
  C  596  1  0.98458200  0.80233500  0.22691600  1
  C  598  1  0.98306800  0.78587500  0.26759200  1
  C  600  1  0.97645600  0.75927600  0.28271600  1
  C  605  1  0.99713500  0.82766300  0.29783000  1
  C  607  1  0.97457900  0.79517400  0.20379000  1
  C  609  1  0.92041300  0.09785300  0.37579800  1
  C  611  1  0.98485000  0.07027800  0.36487000  1
  C  612  1  0.96430800  0.04027800  0.36680600  1
  C  614  1  0.89917200  0.06763400  0.37693900  1
  C  616  1  0.85578700  0.06267300  0.38264800  1
  C  621  1  0.90071400  0.12702400  0.38112000  1
  C  623  1  0.98553000  0.01126800  0.36489900  1
  C  625  1  0.42046800  0.00110900  0.62659000  1
  C  627  1  0.48518900  0.02869600  0.63753300  1
  C  628  1  0.46444300  0.05866900  0.63590300  1
  C  630  1  0.39904200  0.03129100  0.62578100  1
  C  632  1  0.35541100  0.03623400  0.62028200  1
  C  637  1  0.40073700  0.97197400  0.62100500  1
  C  639  1  0.48562900  0.08769900  0.63793300  1
  C  641  1  0.57653300  0.01087200  0.37001700  1
  C  643  1  0.51409200  0.04271000  0.36272800  1
  C  644  1  0.53548900  0.07066400  0.37040400  1
  C  646  1  0.59871300  0.03899500  0.37738500  1
  C  648  1  0.64167000  0.04023100  0.38519400  1
  C  653  1  0.59518200  0.98083100  0.36822200  1
  C  655  1  0.51559200  0.10030500  0.37120800  1
  C  657  1  0.07654600  0.08804700  0.63297700  1
  C  659  1  0.01428200  0.05618000  0.64014000  1
  C  660  1  0.03543800  0.02827600  0.63233400  1
  C  662  1  0.09849300  0.05998200  0.62546600  1
  C  664  1  0.14121900  0.05879800  0.61762200  1
  C  669  1  0.09527500  0.11805500  0.63494400  1
  C  671  1  0.01551100  0.99863800  0.63144200  1
  C  673  1  0.92248800  0.59596900  0.87291100  1
  C  675  1  0.98477600  0.56506900  0.86326100  1
  C  676  1  0.96090800  0.53644600  0.86409100  1
  C  678  1  0.89814100  0.56703600  0.87334400  1
  C  680  1  0.85393200  0.56464400  0.87803100  1
  C  685  1  0.90549400  0.62621400  0.87755900  1
  C  687  1  0.97920200  0.50663600  0.86159900  1
  C  689  1  0.42209300  0.50320200  0.12952400  1
  C  691  1  0.48456900  0.53451800  0.13863700  1
  C  692  1  0.46005000  0.56284300  0.13871900  1
  C  694  1  0.39727000  0.53191200  0.12974500  1
  C  696  1  0.35279600  0.53407100  0.12545300  1
  C  701  1  0.40515900  0.47289000  0.12486900  1
  C  703  1  0.47761900  0.59281200  0.14150900  1
  C  705  1  0.57234500  0.51174200  0.86856900  1
  C  707  1  0.50887200  0.54191400  0.86009100  1
  C  708  1  0.52916400  0.57063900  0.86707100  1
  C  710  1  0.59340000  0.54066800  0.87523000  1
  C  712  1  0.63617200  0.54319200  0.88320300  1
  C  717  1  0.59197600  0.48193700  0.86801300  1
  C  719  1  0.50821700  0.59985800  0.86719200  1
  C  721  1  0.07250000  0.58730000  0.13442700  1
  C  723  1  0.00926000  0.55707700  0.14281800  1
  C  724  1  0.02936600  0.52839400  0.13575700  1
  C  726  1  0.09338000  0.55841500  0.12767800  1
  C  728  1  0.13592500  0.55593700  0.11967900  1
  C  733  1  0.09215400  0.61709500  0.13508200  1
  C  735  1  0.00844000  0.49915800  0.13555200  1
  C  737  1  0.29465000  0.27911100  0.37017100  1
  C  739  1  0.22930400  0.25332200  0.35908400  1
  C  740  1  0.20584700  0.27526200  0.37274500  1
  C  742  1  0.27142800  0.30164900  0.38387500  1
  C  744  1  0.28925700  0.32745800  0.39693200  1
  C  749  1  0.33844500  0.27571300  0.36990900  1
  C  751  1  0.16224600  0.27292300  0.37495000  1
  C  753  1  0.79382800  0.81996900  0.63231800  1
  C  755  1  0.72861200  0.84523000  0.64374100  1
  C  756  1  0.70485800  0.82303600  0.63026100  1
  C  758  1  0.77032000  0.79716700  0.61880500  1
  C  760  1  0.78793400  0.77143700  0.60572500  1
  C  765  1  0.83758300  0.82367400  0.63241300  1
  C  767  1  0.66115400  0.82512500  0.62817800  1
  C  769  1  0.20265500  0.82555200  0.37626900  1
  C  771  1  0.26567300  0.85498300  0.36646800  1
  C  772  1  0.29133600  0.83167400  0.37763900  1
  C  774  1  0.22800900  0.80186900  0.38775600  1
  C  776  1  0.21252900  0.77375000  0.39889300  1
  C  781  1  0.15875900  0.82735100  0.37614800  1
  C  783  1  0.33519900  0.83358300  0.37790400  1
  C  785  1  0.70195600  0.27329700  0.62674100  1
  C  787  1  0.76518300  0.24350000  0.63603800  1
  C  788  1  0.79047600  0.26664000  0.62463100  1
  C  790  1  0.72692300  0.29679100  0.61500100  1
  C  792  1  0.71113200  0.32495800  0.60392900  1
  C  797  1  0.65806100  0.27171000  0.62712700  1
  C  799  1  0.83430700  0.26459400  0.62414800  1
  C  801  1  0.30273300  0.78591100  0.86900200  1
  C  803  1  0.26899000  0.73667300  0.85699100  1
  C  804  1  0.22837700  0.74998000  0.86107700  1
  C  806  1  0.26173300  0.79953700  0.87308700  1
  C  808  1  0.25306600  0.83104000  0.88120600  1
  C  813  1  0.34061300  0.80175400  0.87434500  1
  C  815  1  0.19074000  0.73343600  0.85752100  1
  C  817  1  0.80201400  0.31302800  0.13372800  1
  C  819  1  0.76847800  0.36205200  0.14607300  1
  C  820  1  0.72777800  0.34845700  0.14247400  1
  C  822  1  0.76094400  0.29907300  0.13018800  1
  C  824  1  0.75217700  0.26749300  0.12218300  1
  C  829  1  0.83970000  0.29759300  0.12772500  1
  C  831  1  0.69021400  0.36490500  0.14619000  1
  C  833  1  0.20239400  0.32242700  0.87180700  1
  C  835  1  0.26542500  0.34992400  0.85941500  1
  C  836  1  0.29123000  0.32782100  0.87178100  1
  C  838  1  0.22789900  0.29968300  0.88417000  1
  C  840  1  0.21246300  0.27294400  0.89700900  1
  C  845  1  0.15861000  0.32500600  0.87284600  1
  C  847  1  0.33513200  0.32987400  0.87233900  1
  C  849  1  0.70165000  0.77663400  0.13119600  1
  C  851  1  0.76497000  0.74872400  0.14315500  1
  C  852  1  0.79040500  0.77062500  0.13058100  1
  C  854  1  0.72679500  0.79916500  0.11861000  1
  C  856  1  0.71102700  0.82594900  0.10581900  1
  C  861  1  0.65780200  0.77428500  0.13036100  1
  C  863  1  0.83426900  0.76841800  0.12983500  1
  N  19  1  0.14038700  0.26331200  0.35716100  1
  N  20  1  0.03054100  0.25444300  0.30312800  1
  N  21  1  0.04388200  0.15708100  0.43556100  1
  N  22  1  0.91772800  0.15367700  0.38775300  1
  N  41  1  0.63984400  0.83489400  0.64594800  1
  N  42  1  0.53102900  0.84440400  0.69975400  1
  N  43  1  0.54383400  0.94210200  0.56762000  1
  N  44  1  0.41769300  0.94534400  0.61441700  1
  N  63  1  0.35409300  0.84642400  0.36032400  1
  N  64  1  0.46465700  0.83370300  0.30764800  1
  N  65  1  0.50184800  0.92402800  0.44121700  1
  N  66  1  0.57888600  0.95347800  0.37342800  1
  N  85  1  0.85383000  0.25205900  0.64179100  1
  N  86  1  0.96488300  0.26503100  0.69489100  1
  N  87  1  0.00156400  0.17499800  0.56152100  1
  N  88  1  0.07897100  0.14544600  0.62972200  1
  N  107  1  0.85608100  0.83653700  0.65032000  1
  N  108  1  0.97411600  0.84033100  0.69987400  1
  N  109  1  0.95042000  0.91410000  0.56346400  1
  N  110  1  0.02737600  0.97730300  0.61652000  1
  N  129  1  0.35640700  0.26282400  0.35199000  1
  N  130  1  0.47386100  0.25896300  0.30286600  1
  N  131  1  0.45083300  0.18450400  0.43889000  1
  N  132  1  0.52762500  0.12159100  0.38622500  1
  N  151  1  0.64017200  0.26004400  0.64547300  1
  N  152  1  0.52940700  0.25370400  0.69908200  1
  N  153  1  0.50864500  0.17965500  0.56126200  1
  N  154  1  0.47657200  0.10953300  0.62280400  1
  N  173  1  0.14014600  0.83894300  0.35785200  1
  N  174  1  0.02879400  0.84548700  0.30388700  1
  N  175  1  0.00897000  0.91910000  0.44169500  1
  N  176  1  0.97695800  0.98947600  0.38007000  1
  N  195  1  0.15694000  0.74913900  0.85185300  1
  N  196  1  0.03365800  0.76154100  0.80584600  1
  N  197  1  0.03597200  0.67094900  0.93886400  1
  N  198  1  0.92492400  0.65204900  0.88379200  1
  N  217  1  0.65648400  0.34912200  0.15159700  1
  N  218  1  0.53366300  0.33722000  0.19713900  1
  N  219  1  0.53313900  0.42832600  0.06399300  1
  N  220  1  0.42458300  0.44700700  0.11891600  1
  N  239  1  0.35469300  0.34403300  0.85553500  1
  N  240  1  0.47308600  0.33273000  0.80642400  1
  N  241  1  0.49464200  0.42396200  0.93888500  1
  N  242  1  0.57586000  0.45455300  0.87327400  1
  N  261  1  0.85440200  0.75438900  0.14665100  1
  N  262  1  0.97328300  0.76604100  0.19617200  1
  N  263  1  0.99438000  0.67520900  0.06371100  1
  N  264  1  0.07598200  0.64448400  0.12975300  1
  N  283  1  0.87820600  0.30569600  0.13269000  1
  N  284  1  0.96597800  0.33513800  0.19622600  1
  N  285  1  0.95105300  0.41642200  0.06146100  1
  N  286  1  0.01665000  0.47880300  0.11925700  1
  N  305  1  0.37889300  0.79382100  0.86904100  1
  N  306  1  0.46651200  0.76392300  0.80631900  1
  N  307  1  0.45058700  0.68228900  0.94092100  1
  N  308  1  0.51650900  0.62017200  0.88357000  1
  N  327  1  0.63818700  0.76331000  0.14838900  1
  N  328  1  0.52013500  0.75759300  0.19823600  1
  N  329  1  0.51709000  0.67911400  0.06134300  1
  N  330  1  0.48355700  0.60948500  0.12292300  1
  N  349  1  0.13836000  0.33592400  0.85485500  1
  N  350  1  0.01975400  0.34140600  0.80462400  1
  N  351  1  0.01698500  0.41950000  0.94156600  1
  N  352  1  0.98082700  0.48863200  0.87982500  1
  N  354  1  0.00284500  0.13020000  0.48586000  1
  N  357  1  0.00803300  0.18241500  0.51303500  1
  N  362  1  0.02836100  0.22846300  0.46134400  1
  N  370  1  0.50299100  0.96894100  0.51689800  1
  N  373  1  0.50838300  0.91671100  0.48979400  1
  N  378  1  0.52845900  0.87071700  0.54170400  1
  N  386  1  0.99196900  0.94774300  0.51844300  1
  N  389  1  0.00611600  0.89955000  0.48817900  1
  N  394  1  0.97982100  0.84486800  0.53470800  1
  N  402  1  0.49216500  0.15090800  0.48433900  1
  N  405  1  0.50593100  0.19912100  0.51474900  1
  N  410  1  0.47980600  0.25376800  0.46795200  1
  N  418  1  0.00678200  0.63758000  0.98726500  1
  N  421  1  0.99747000  0.68764400  0.01634800  1
  N  426  1  0.01424200  0.73945600  0.96681600  1
  N  434  1  0.50751800  0.46158900  0.01537200  1
  N  437  1  0.49782500  0.41151800  0.98621000  1
  N  442  1  0.51420400  0.35963600  0.03584400  1
  N  450  1  0.99776100  0.44918300  0.01745400  1
  N  453  1  0.01432600  0.40036000  0.98816700  1
  N  458  1  0.98564200  0.34680700  0.03502500  1
  N  466  1  0.49732100  0.64947000  0.98530600  1
  N  469  1  0.51406300  0.69830700  0.01469300  1
  N  474  1  0.48533900  0.75184800  0.96762400  1
  N  482  1  0.00484000  0.26238500  0.25664400  1
  N  485  1  0.98016000  0.32168300  0.24391400  1
  N  490  1  0.99899300  0.34813500  0.30195600  1
  N  498  1  0.50575300  0.83641400  0.74611000  1
  N  501  1  0.48060100  0.77726100  0.75872300  1
  N  506  1  0.49901600  0.75058300  0.70086000  1
  N  514  1  0.48659700  0.83188300  0.25841400  1
  N  517  1  0.51466600  0.77336300  0.24619200  1
  N  522  1  0.50863200  0.75066900  0.30663000  1
  N  530  1  0.98665100  0.26696200  0.74425400  1
  N  533  1  0.01435700  0.32558000  0.75669600  1
  N  538  1  0.00859100  0.34815900  0.69618500  1
  N  546  1  0.00752500  0.83895800  0.74701400  1
  N  549  1  0.02629900  0.77815400  0.75878000  1
  N  554  1  0.00491200  0.75483100  0.69970000  1
  N  562  1  0.50710300  0.26004100  0.25588600  1
  N  565  1  0.52639900  0.32072900  0.24420500  1
  N  570  1  0.50536900  0.34422300  0.30313400  1
  N  578  1  0.49962900  0.25894400  0.74528100  1
  N  581  1  0.47829300  0.31865200  0.75845000  1
  N  586  1  0.50023300  0.34591900  0.70076700  1
  N  594  1  0.99918800  0.84004500  0.25747200  1
  N  597  1  0.97852500  0.78020300  0.24413600  1
  N  602  1  0.00058000  0.75306800  0.30199400  1
  N  610  1  0.96241200  0.09741400  0.36966900  1
  N  613  1  0.92245600  0.04068000  0.37288400  1
  N  618  1  0.82349700  0.07599700  0.37013500  1
  N  626  1  0.46269700  0.00157900  0.63257900  1
  N  629  1  0.42236100  0.05824500  0.62997200  1
  N  634  1  0.32368000  0.02252000  0.63274000  1
  N  642  1  0.53522400  0.01426200  0.36289000  1
  N  645  1  0.57677000  0.06719500  0.37751900  1
  N  650  1  0.67476800  0.03069800  0.37177600  1
  N  658  1  0.03543700  0.08461700  0.64010300  1
  N  661  1  0.07652200  0.03179200  0.62522000  1
  N  666  1  0.17472200  0.06825900  0.63103500  1
  N  674  1  0.96479100  0.59328700  0.86784500  1
  N  677  1  0.91883900  0.53885200  0.86935800  1
  N  682  1  0.82402400  0.58021100  0.86511300  1
  N  690  1  0.46472100  0.50620600  0.13399500  1
  N  693  1  0.41770900  0.56018000  0.13394800  1
  N  698  1  0.32376900  0.51797600  0.13838300  1
  N  706  1  0.53101600  0.51393900  0.86119600  1
  N  709  1  0.57043200  0.56838800  0.87448000  1
  N  714  1  0.66982600  0.53356200  0.87024200  1
  N  722  1  0.03137200  0.58506400  0.14179500  1
  N  725  1  0.07043300  0.53069400  0.12835200  1
  N  730  1  0.16995000  0.56551600  0.13264400  1
  N  738  1  0.27216500  0.25591300  0.35870800  1
  N  741  1  0.22814500  0.29817900  0.38459200  1
  N  746  1  0.32328000  0.34487400  0.38987000  1
  N  754  1  0.77152100  0.84300900  0.64387200  1
  N  757  1  0.72696100  0.80027400  0.61832200  1
  N  762  1  0.82244000  0.75427800  0.61269200  1
  N  770  1  0.22299000  0.85106100  0.36649500  1
  N  773  1  0.27115900  0.80637600  0.38781000  1
  N  778  1  0.17853800  0.75660300  0.39117100  1
  N  786  1  0.72254900  0.24767800  0.63636500  1
  N  789  1  0.77001400  0.29204300  0.61461000  1
  N  794  1  0.67766400  0.34228500  0.61184600  1
  N  802  1  0.30407600  0.75497000  0.86123200  1
  N  805  1  0.22708300  0.78071200  0.86902200  1
  N  810  1  0.27172900  0.85760800  0.87228700  1
  N  818  1  0.80349200  0.34400700  0.14141400  1
  N  821  1  0.72634500  0.31768400  0.13460500  1
  N  826  1  0.77217500  0.24110100  0.13065200  1
  N  834  1  0.22267100  0.34654500  0.86027500  1
  N  837  1  0.27105800  0.30387800  0.88356400  1
  N  842  1  0.17785200  0.25547600  0.89064500  1
  N  850  1  0.72221700  0.75239100  0.14260100  1
  N  853  1  0.76992400  0.79468800  0.11892400  1
  N  858  1  0.67687500  0.84362400  0.11234500  1
  O  361  1  0.05271300  0.23538500  0.49941700  1
  O  377  1  0.55305800  0.86378200  0.50387800  1
  O  393  1  0.97114400  0.84019000  0.49449100  1
  O  409  1  0.47083500  0.25842000  0.50807800  1
  O  425  1  0.03112200  0.74646200  0.00607000  1
  O  441  1  0.53158100  0.35265500  0.99679100  1
  O  457  1  0.98016600  0.34080800  0.99474100  1
  O  473  1  0.47987600  0.75785900  0.00786400  1
  O  489  1  0.94452700  0.36258000  0.27642700  1
  O  505  1  0.44445100  0.73651000  0.72599000  1
  O  521  1  0.55577200  0.73449000  0.27794700  1
  O  537  1  0.05549100  0.36450400  0.72532000  1
  O  553  1  0.05499100  0.73518200  0.72599400  1
  O  569  1  0.55547500  0.36362700  0.27717100  1
  O  585  1  0.44745500  0.36218200  0.72630100  1
  O  601  1  0.94790800  0.73657000  0.27603800  1
  O  617  1  0.84604700  0.03858900  0.39765200  1
  O  633  1  0.34494900  0.06059500  0.60558600  1
  O  649  1  0.65072100  0.05750100  0.40474700  1
  O  665  1  0.14968500  0.04166400  0.59799800  1
  O  681  1  0.84054300  0.54116300  0.89267200  1
  O  697  1  0.33836200  0.55770200  0.11112800  1
  O  713  1  0.64430400  0.56170500  0.90225900  1
  O  729  1  0.14351200  0.53751700  0.10057100  1
  O  745  1  0.26810900  0.33803000  0.41609900  1
  O  761  1  0.76611600  0.76062800  0.58668300  1
  O  777  1  0.23581200  0.76106500  0.41675500  1
  O  793  1  0.73360800  0.33746300  0.58587700  1
  O  809  1  0.22048300  0.83525400  0.89639100  1
  O  825  1  0.71843700  0.26296100  0.10755200  1
  O  841  1  0.23637400  0.26174400  0.91515100  1
  O  857  1  0.73418000  0.83694500  0.08750700  1
