data_image0
_chemical_formula_structural       Zn8O24NHNHONHONHNHC2NHC7HC4HCHC6HC4HCHC3HC3HC3HC2HC3HC3HC3HC2HC2HCHCHC3HCHCHCHC3HCHC2HCHCHCHCHC3HC3HC2HCHC3HC2HC2HC2HCHC2HCHCHC2HCHCHCHCHC3HCHC5HCHC3HC2HCHCHCHCHCHCHCHCHCHCHC2HC2HCHC2HC2HC3HCHCHCHCHCHC3HC2HCHCHC2HCHCHCHC2HC2HCHCHZn8O24NHNHONHONHNHC2NHC7HC4HCHC6HC4HCHC3HC3HC3HC2HC3HC3HC3HC2HC2HCHCHC3HCHCHCHC3HCHC2HCHCHCHCHC3HC3HC2HCHC3HC2HC2HC2HCHC2HCHCHC2HCHCHCHCHC3HCHC5HCHC3HC2HCHCHCHCHCHCHCHCHCHCHC2HC2HCHC2HC2HC3HCHCHCHCHCHC3HC2HCHCHC2HCHCHCHC2HC2HCHCHZn8O24NHNHONHONHNHC2NHC7HC4HCHC6HC4HCHC3HC3HC3HC2HC3HC3HC3HC2HC2HCHCHC3HCHCHCHC3HCHC2HCHCHCHCHC3HC3HC2HCHC3HC2HC2HC2HCHC2HCHCHC2HCHCHCHCHC3HCHC5HCHC3HC2HCHCHCHCHCHCHCHCHCHCHC2HC2HCHC2HC2HC3HCHCHCHCHCHC3HC2HCHCHC2HCHCHCHC2HC2HCHCHZn8O24NHNHONHONHNHC2NHC7HC4HCHC6HC4HCHC3HC3HC3HC2HC3HC3HC3HC2HC2HCHCHC3HCHCHCHC3HCHC2HCHCHCHCHC3HC3HC2HCHC3HC2HC2HC2HCHC2HCHCHC2HCHCHCHCHC3HCHC5HCHC3HC2HCHCHCHCHCHCHCHCHCHCHC2HC2HCHC2HC2HC3HCHCHCHCHCHC3HC2HCHCHC2HCHCHCHC2HC2HCHCH
_chemical_formula_sum              "Zn32 O104 N24 H360 C624"
_cell_length_a       15.4739
_cell_length_b       57.1814
_cell_length_c       24.7469
_cell_angle_alpha    90.0
_cell_angle_beta     94.60200000000002
_cell_angle_gamma    90.0

_space_group_name_H-M_alt    "P 1"
_space_group_IT_number       1

loop_
  _space_group_symop_operation_xyz
  'x, y, z'

loop_
  _atom_site_type_symbol
  _atom_site_label
  _atom_site_symmetry_multiplicity
  _atom_site_fract_x
  _atom_site_fract_y
  _atom_site_fract_z
  _atom_site_occupancy
  Zn  Zn1       1.0  0.54571  0.4567499999999999  0.7523599999999998  1.0000
  Zn  Zn2       1.0  0.44595  0.4847599999999999  0.8411699999999998  1.0000
  Zn  Zn3       1.0  0.37276  0.4836099999999999  0.7207099999999999  1.0000
  Zn  Zn4       1.0  0.54171  0.51377  0.7448199999999999  1.0000
  Zn  Zn5       1.0  0.86546  0.6534199999999998  0.27606  1.0000
  Zn  Zn6       1.0  0.95962  0.6787999999999998  0.17664  1.0000
  Zn  Zn7       1.0  0.035019999999999996  0.6812799999999998  0.30069  1.0000
  Zn  Zn8       1.0  0.85872  0.70739  0.26746  1.0000
  O   O1        1.0  0.6692  0.46761999999999987  0.74126  1.0000
  O   O2        1.0  0.2695  0.48005  0.76077  1.0000
  O   O3        1.0  0.9889999999999999  0.95759  0.33068  1.0000
  O   O4        1.0  0.323  0.4802999999999999  0.84796  1.0000
  O   O5        1.0  0.9822  0.9661199999999998  0.10533  1.0000
  O   O6        1.0  0.1336  0.9614299999999998  0.33960999999999997  1.0000
  O   O7        1.0  0.9006  0.6477399999999998  0.15335  1.0000
  O   O8        1.0  0.93  0.6804699999999998  0.25436  1.0000
  O   O9        1.0  0.911  0.9471799999999998  0.16736999999999996  1.0000
  O   O10       1.0  0.4796  0.48626999999999987  0.7682599999999999  1.0000
  O   O11       1.0  0.0807  0.66243  0.1948  1.0000
  O   O12       1.0  0.7398  0.6982699999999998  0.28684  1.0000
  O   O13       1.0  0.1405  0.6844499999999999  0.26298  1.0000
  O   O14       1.0  0.7601  0.6611299999999998  0.31239  1.0000
  O   O15       1.0  0.9297  0.6332699999999998  0.3294499999999999  1.0000
  O   O16       1.0  0.6489  0.50558  0.71679  1.0000
  O   O17       1.0  0.8465  0.69877  0.14886  1.0000
  O   O18       1.0  0.8253  0.63288  0.21784999999999996  1.0000
  O   O19       1.0  0.0607  0.6510299999999998  0.3379  1.0000
  O   O20       1.0  0.3391  0.51402  0.68512  1.0000
  O   O21       1.0  0.559  0.5350899999999998  0.80812  1.0000
  O   O22       1.0  0.8288  0.7284599999999998  0.20677  1.0000
  O   O23       1.0  0.47  0.53007  0.6871499999999999  1.0000
  O   O24       1.0  0.02949999999999999  0.70456  0.356  1.0000
  N   N1        1.0  0.6673  0.5004099999999998  0.9289499999999998  1.0000
  H   H1        1.0  0.6187  0.4926999999999999  0.9209999999999998  1.0000
  N   N2        1.0  0.7317  0.6698799999999998  0.08507999999999999  1.0000
  H   H2        1.0  0.7801999999999998  0.677  0.0967  1.0000
  O   O25       1.0  0.6089  0.5585299999999997  0.7453  1.0000
  N   N3        1.0  0.253  0.4962799999999999  0.55  1.0000
  H   H3        1.0  0.3039  0.4893999999999999  0.5542  1.0000
  O   O26       1.0  0.9049999999999998  0.72389  0.3307999999999999  1.0000
  N   N4        1.0  0.1459  0.66572  0.46479999999999994  1.0000
  H   H4        1.0  0.09459999999999999  0.6723999999999998  0.4604999999999999  1.0000
  N   N5        1.0  0.6785  0.8320299999999999  0.8606999999999999  1.0000
  H   H5        1.0  0.6564999999999999  0.8310999999999997  0.8267999999999998  1.0000
  C   C1        1.0  0.7441  0.49675  0.9054  1.0000
  C   C2        1.0  0.2881  0.65728  0.4562  1.0000
  N   N6        1.0  0.1124  0.8359799999999997  0.651  1.0000
  H   H6        1.0  0.1291  0.8361999999999998  0.6858  1.0000
  C   C3        1.0  0.2617  0.48159999999999986  0.8109799999999999  1.0000
  C   C4        1.0  0.6934  0.48654999999999987  0.72023  1.0000
  C   C5        1.0  0.1804  0.49125  0.5784  1.0000
  C   C6        1.0  0.7807999999999999  0.48691  0.6984  1.0000
  C   C7        1.0  0.8083  0.51201  0.92964  1.0000
  C   C8        1.0  0.003700000000000003  0.49234999999999995  0.8596  1.0000
  C   C9        1.0  0.8318  0.4671299999999999  0.69861  1.0000
  H   H7        1.0  0.8126  0.4530999999999999  0.7143  1.0000
  C   C10       1.0  0.9136  0.4949199999999999  0.8753499999999999  1.0000
  C   C11       1.0  0.6788  0.5182999999999998  0.9674  1.0000
  C   C12       1.0  0.1112  0.50555  0.5597  1.0000
  C   C13       1.0  0.1732  0.4750299999999999  0.6207  1.0000
  H   H8        1.0  0.22009999999999996  0.4651999999999999  0.6334  1.0000
  C   C14       1.0  0.8468  0.4806299999999999  0.8499  1.0000
  H   H9        1.0  0.8607999999999999  0.4702  0.822  1.0000
  C   C15       1.0  0.6343  0.6474499999999997  0.0349  1.0000
  C   C16       1.0  0.3888  0.52994  0.6753  1.0000
  C   C17       1.0  0.7659  0.52629  0.9681099999999999  1.0000
  C   C18       1.0  0.8884  0.9351  0.0769  1.0000
  C   C19       1.0  0.21759999999999996  0.67135  0.43679999999999997  1.0000
  C   C20       1.0  0.793  0.5455  0.0  1.0000
  H   H10       1.0  0.8501  0.5514999999999998  0.9991999999999999  1.0000
  C   C21       1.0  0.02309999999999998  0.4885699999999999  0.6254  1.0000
  C   C22       1.0  0.9391  0.4880399999999999  0.6528  1.0000
  C   C23       1.0  0.047199999999999985  0.61342  0.3745999999999999  1.0000
  C   C24       1.0  0.10219999999999999  0.4865999999999999  0.7890999999999999  1.0000
  H   H11       1.0  0.11129999999999998  0.4849999999999999  0.7517999999999999  1.0000
  C   C25       1.0  0.1575  0.4876999999999999  0.8825999999999999  1.0000
  H   H12       1.0  0.2047  0.4866999999999999  0.9095  1.0000
  C   C26       1.0  0.0608  0.9533399999999997  0.3547  1.0000
  C   C27       1.0  0.1726  0.48528999999999994  0.8277999999999998  1.0000
  C   C28       1.0  0.019899999999999977  0.4901799999999999  0.8043999999999999  1.0000
  H   H13       1.0  0.9729  0.4912  0.7773  1.0000
  C   C29       1.0  0.1418  0.5209099999999998  0.5183  1.0000
  C   C30       1.0  0.5919  0.6564899999999998  0.08169999999999998  1.0000
  C   C31       1.0  0.8933  0.51075  0.9151  1.0000
  H   H14       1.0  0.9368999999999998  0.5206  0.9322  1.0000
  C   C32       1.0  0.075  0.8480999999999997  0.5652  1.0000
  C   C33       1.0  0.7625  0.5758899999999998  0.0676  1.0000
  C   C34       1.0  0.6209  0.52755  0.0008  1.0000
  H   H15       1.0  0.5639  0.5215  0.0016999999999999997  1.0000
  C   C35       1.0  0.2584  0.6420299999999998  0.4967  1.0000
  C   C36       1.0  0.3682  0.6591299999999998  0.43399999999999994  1.0000
  H   H16       1.0  0.4151  0.6494  0.4471  1.0000
  C   C37       1.0  0.8204  0.61332  0.1347  1.0000
  C   C38       1.0  0.7342  0.5556999999999997  0.0331  1.0000
  C   C39       1.0  0.9108  0.9364799999999998  0.023099999999999992  1.0000
  H   H17       1.0  0.9508  0.9479999999999997  0.013  1.0000
  C   C40       1.0  0.9305  0.9504099999999998  0.1203  1.0000
  C   C41       1.0  0.49  0.6669699999999997  0.1453  1.0000
  C   C42       1.0  0.03170000000000001  0.504  0.5827  1.0000
  H   H18       1.0  0.984  0.5134  0.5693  1.0000
  C   C43       1.0  0.06839999999999999  0.9368599999999998  0.4013999999999999  1.0000
  C   C44       1.0  0.1571  0.55238  0.4552  1.0000
  C   C45       1.0  0.09319999999999999  0.4742099999999999  0.6425899999999999  1.0000
  H   H19       1.0  0.0858  0.4633  0.6708  1.0000
  C   C46       1.0  0.1196  0.5734099999999999  0.4277  1.0000
  C   C47       1.0  0.107  0.5392599999999999  0.4884  1.0000
  H   H20       1.0  0.0476  0.5431  0.4902  1.0000
  C   C48       1.0  0.3529  0.55103  0.6463  1.0000
  C   C49       1.0  0.07529999999999998  0.4914999999999999  0.8979999999999998  1.0000
  H   H21       1.0  0.06689999999999997  0.4935999999999999  0.9352999999999998  1.0000
  C   C50       1.0  0.9115  0.46764  0.6758999999999998  1.0000
  H   H22       1.0  0.9467  0.4539999999999999  0.6761999999999999  1.0000
  C   C51       1.0  0.2666  0.55102  0.6233  1.0000
  H   H23       1.0  0.23229999999999998  0.5373  0.6255999999999999  1.0000
  C   C52       1.0  0.2822  0.5906  0.5919  1.0000
  C   C53       1.0  0.4633999999999999  0.67659  0.36869999999999997  1.0000
  C   C54       1.0  0.8110999999999998  0.5074699999999999  0.6764999999999999  1.0000
  H   H24       1.0  0.7767  0.5211999999999998  0.6767  1.0000
  C   C55       1.0  0.0002000000000000048  0.9216599999999998  0.4093  1.0000
  H   H25       1.0  0.9492  0.9222999999999998  0.3852  1.0000
  C   C56       1.0  0.5175  0.65704  0.3698  1.0000
  H   H26       1.0  0.4978  0.6426999999999998  0.3837  1.0000
  C   C57       1.0  0.0652  0.8644599999999998  0.5235  1.0000
  H   H27       1.0  0.043199999999999995  0.8596999999999999  0.4882  1.0000
  C   C58       1.0  0.3795999999999999  0.6750199999999997  0.3931  1.0000
  C   C59       1.0  0.3998  0.6679599999999999  0.16279999999999997  1.0000
  C   C60       1.0  0.2315  0.5704199999999998  0.5976  1.0000
  H   H28       1.0  0.1725  0.5702999999999998  0.5836  1.0000
  C   C61       1.0  0.1352  0.61278  0.3931  1.0000
  H   H29       1.0  0.17089999999999997  0.6259999999999998  0.3883999999999999  1.0000
  C   C62       1.0  0.6458  0.6082499999999997  0.9124  1.0000
  C   C63       1.0  0.6052  0.5876  0.9265999999999999  1.0000
  H   H30       1.0  0.5896  0.5854  0.9627  1.0000
  C   C64       1.0  0.7365  0.57758  0.1208  1.0000
  H   H31       1.0  0.6991  0.5661  0.134  1.0000
  C   C65       1.0  0.6501  0.5463899999999999  0.0332  1.0000
  H   H32       1.0  0.6112  0.5531999999999998  0.05649999999999999  1.0000
  C   C66       1.0  0.14289999999999994  0.9360099999999998  0.4376  1.0000
  H   H33       1.0  0.18999999999999997  0.9463  0.4331  1.0000
  C   C67       1.0  0.8903  0.50819  0.6544  1.0000
  H   H34       1.0  0.911  0.5223999999999998  0.6405  1.0000
  C   C68       1.0  0.010299999999999997  0.6344699999999999  0.3453  1.0000
  C   C69       1.0  0.8492  0.6327  0.17029999999999998  1.0000
  C   C70       1.0  0.032  0.57452  0.409  1.0000
  H   H35       1.0  0.9961  0.5613999999999998  0.414  1.0000
  C   C71       1.0  0.6567  0.6695899999999998  0.1112  1.0000
  C   C72       1.0  0.6287  0.6786199999999998  0.32809999999999995  1.0000
  C   C73       1.0  0.9959  0.59397  0.3835  1.0000
  H   H36       1.0  0.9358999999999997  0.5942  0.37189999999999995  1.0000
  C   C74       1.0  0.16919999999999996  0.6479599999999998  0.5001  1.0000
  C   C75       1.0  0.3072  0.6894499999999998  0.3753  1.0000
  H   H37       1.0  0.3148  0.7005999999999998  0.3475999999999999  1.0000
  C   C76       1.0  0.1476  0.9202399999999997  0.4797  1.0000
  H   H38       1.0  0.1985  0.9196999999999997  0.5038  1.0000
  C   C77       1.0  0.0876  0.88778  0.5334  1.0000
  C   C78       1.0  0.22909999999999997  0.5143199999999999  0.5136  1.0000
  C   C79       1.0  0.4038  0.57073  0.6398  1.0000
  H   H39       1.0  0.4629999999999999  0.5706999999999999  0.6534  1.0000
  C   C80       1.0  0.0791  0.9050699999999998  0.4876  1.0000
  C   C81       1.0  0.7747  0.6529599999999998  0.9981  1.0000
  H   H40       1.0  0.8301000000000001  0.6602  0.9991  1.0000
  C   C82       1.0  0.7788  0.8863199999999998  0.9585999999999999  1.0000
  C   C83       1.0  0.2275  0.68805  0.39569999999999994  1.0000
  H   H41       1.0  0.1809  0.6978999999999997  0.3828  1.0000
  C   C84       1.0  0.719  0.65737  0.0381  1.0000
  C   C85       1.0  0.763  0.48136  0.8639999999999999  1.0000
  H   H42       1.0  0.7193  0.4718  0.8463999999999998  1.0000
  C   C86       1.0  0.588  0.5705299999999999  0.8888  1.0000
  H   H43       1.0  0.5597  0.5566  0.8985  1.0000
  C   C87       1.0  0.5921999999999997  0.55492  0.7927999999999998  1.0000
  C   C88       1.0  0.005299999999999998  0.9057399999999998  0.4513  1.0000
  H   H44       1.0  0.9586  0.8952999999999998  0.4554999999999999  1.0000
  C   C89       1.0  0.6401  0.67998  0.1603  1.0000
  H   H45       1.0  0.6845  0.688  0.1816  1.0000
  C   C90       1.0  0.844  0.6114199999999997  0.08139999999999999  1.0000
  H   H46       1.0  0.8799  0.6230999999999998  0.0674  1.0000
  C   C91       1.0  0.612  0.5734099999999999  0.8355  1.0000
  C   C92       1.0  0.8159  0.5929899999999999  0.049  1.0000
  H   H47       1.0  0.8336  0.5919999999999997  0.0132  1.0000
  C   C93       1.0  0.574  0.6982999999999998  0.32659999999999995  1.0000
  H   H48       1.0  0.5927999999999998  0.7124999999999999  0.3116  1.0000
  C   C94       1.0  0.7653  0.59578  0.1533  1.0000
  H   H49       1.0  0.7479  0.5967  0.18919999999999998  1.0000
  C   C95       1.0  0.3681  0.59061  0.6134  1.0000
  H   H50       1.0  0.4027  0.6042  0.6102  1.0000
  C   C96       1.0  0.5581  0.6782999999999998  0.1768  1.0000
  H   H51       1.0  0.5464  0.685  0.21059999999999995  1.0000
  C   C97       1.0  0.2302  0.67149  0.19759999999999997  1.0000
  C   C98       1.0  0.24389999999999998  0.61099  0.561  1.0000
  C   C99       1.0  0.295  0.6236499999999999  0.5279  1.0000
  H   H52       1.0  0.3545  0.6197999999999998  0.5264  1.0000
  C   C100      1.0  0.5096  0.65524  0.0984  1.0000
  H   H53       1.0  0.4662  0.6464  0.07819999999999999  1.0000
  C   C101      1.0  0.1441  0.6726499999999997  0.2198  1.0000
  C   C102      1.0  0.7303  0.82155  0.9455999999999999  1.0000
  C   C103      1.0  0.8003  0.73555  0.11349999999999998  1.0000
  C   C104      1.0  0.7156  0.67954  0.3081  1.0000
  C   C105      1.0  0.1184  0.8944199999999998  0.5853  1.0000
  H   H54       1.0  0.1344  0.9103  0.5917  1.0000
  C   C106      1.0  0.6004  0.6582299999999998  0.3507  1.0000
  H   H55       1.0  0.6372  0.6448999999999998  0.3533  1.0000
  C   C107      1.0  0.8281  0.7199499999999998  0.1599  1.0000
  C   C108      1.0  0.8128  0.9045  0.999  1.0000
  C   C109      1.0  0.4947  0.6971999999999998  0.3464  1.0000
  H   H56       1.0  0.4593  0.7107999999999998  0.345  1.0000
  C   C110      1.0  0.6654  0.6265  0.9549999999999997  1.0000
  C   C111      1.0  0.24199999999999997  0.5448599999999998  0.4493  1.0000
  H   H57       1.0  0.27539999999999987  0.5529999999999998  0.4248  1.0000
  C   C112      1.0  0.6097  0.6316699999999998  0.9931999999999999  1.0000
  H   H58       1.0  0.5541  0.6246  0.9915999999999998  1.0000
  C   C113      1.0  0.8738999999999998  0.92089  0.9848  1.0000
  H   H59       1.0  0.8904  0.9214  0.9487  1.0000
  C   C114      1.0  0.7748  0.8635299999999998  0.9762  1.0000
  H   H60       1.0  0.7944  0.8596999999999999  0.0124  1.0000
  C   C115      1.0  0.7871  0.9039999999999999  0.050499999999999996  1.0000
  H   H61       1.0  0.7436  0.8932  0.059199999999999996  1.0000
  C   C116      1.0  0.771  0.7587599999999998  0.1236  1.0000
  H   H62       1.0  0.7679  0.7640999999999998  0.1597  1.0000
  C   C117      1.0  0.8238  0.9190299999999998  0.09059999999999999  1.0000
  H   H63       1.0  0.8058  0.9185  0.1264  1.0000
  C   C118      1.0  0.3323  0.6540499999999999  0.1406  1.0000
  H   H64       1.0  0.3432  0.6431  0.1132  1.0000
  C   C119      1.0  0.1194  0.63563  0.5354  1.0000
  H   H65       1.0  0.0604  0.6396999999999998  0.5387  1.0000
  C   C120      1.0  0.1266  0.8787199999999997  0.6284999999999998  1.0000
  H   H66       1.0  0.1454  0.8837999999999998  0.664  1.0000
  C   C121      1.0  0.7475  0.63773  0.9567  1.0000
  H   H67       1.0  0.7845999999999999  0.6346999999999999  0.9286999999999997  1.0000
  C   C122      1.0  0.7421  0.84605  0.9412999999999998  1.0000
  C   C123      1.0  0.1702  0.59305  0.4181  1.0000
  H   H68       1.0  0.2304  0.5926999999999998  0.4291  1.0000
  C   C124      1.0  0.707  0.8521999999999997  0.8876  1.0000
  C   C125      1.0  0.2798  0.5257299999999999  0.4782  1.0000
  H   H69       1.0  0.3375  0.5209  0.4737  1.0000
  C   C126      1.0  0.6725  0.7898199999999997  0.8886  1.0000
  H   H70       1.0  0.6486  0.7842999999999998  0.8544  1.0000
  C   C127      1.0  0.10639999999999998  0.8551499999999997  0.6177999999999999  1.0000
  C   C128      1.0  0.03829999999999997  0.8065399999999998  0.5288  1.0000
  H   H71       1.0  0.022099999999999988  0.8108999999999997  0.4922999999999999  1.0000
  C   C129      1.0  0.036900000000000016  0.7826  0.5443  1.0000
  C   C130      1.0  0.7464  0.8917499999999998  0.9056  1.0000
  H   H72       1.0  0.7486  0.9075  0.8938  1.0000
  C   C131      1.0  0.7292999999999997  0.7821  0.9812999999999997  1.0000
  C   C132      1.0  0.0632  0.8233399999999998  0.5666  1.0000
  C   C133      1.0  0.7479000000000001  0.8056399999999998  0.9891  1.0000
  H   H73       1.0  0.7722  0.8110999999999998  0.0232  1.0000
  C   C134      1.0  0.7115  0.8750399999999998  0.8699  1.0000
  H   H74       1.0  0.6910999999999999  0.8792  0.8339  1.0000
  C   C135      1.0  0.1578  0.6174299999999998  0.5656  1.0000
  H   H75       1.0  0.1247  0.6090999999999998  0.59  1.0000
  C   C136      1.0  0.9297  0.7531799999999997  0.42  1.0000
  H   H76       1.0  0.8807  0.7556999999999998  0.395  1.0000
  C   C137      1.0  0.7475  0.7732099999999998  0.0805  1.0000
  H   H77       1.0  0.7284999999999998  0.7886999999999997  0.0873  1.0000
  C   C138      1.0  0.2952  0.6869299999999998  0.2162  1.0000
  H   H78       1.0  0.2822  0.6987  0.24139999999999998  1.0000
  C   C139      1.0  0.9812  0.7343999999999998  0.4133  1.0000
  C   C140      1.0  0.7509  0.76568  0.0269  1.0000
  C   C141      1.0  0.8036  0.7282399999999998  0.0608  1.0000
  H   H79       1.0  0.8215  0.7127  0.0538  1.0000
  C   C142      1.0  0.0137  0.7650499999999999  0.5024  1.0000
  C   C143      1.0  0.6531  0.59398  0.8221  1.0000
  H   H80       1.0  0.6707  0.5961  0.7864999999999998  1.0000
  C   C144      1.0  0.08979999999999999  0.7934  0.6371  1.0000
  H   H81       1.0  0.10609999999999997  0.7891999999999998  0.6735999999999998  1.0000
  C   C145      1.0  0.06639999999999999  0.7761099999999999  0.5977  1.0000
  H   H82       1.0  0.0706  0.76  0.6072  1.0000
  C   C146      1.0  0.691  0.81344  0.8971  1.0000
  C   C147      1.0  0.9465999999999998  0.76897  0.46279999999999993  1.0000
  H   H83       1.0  0.9117  0.7826  0.4647  1.0000
  C   C148      1.0  0.7809  0.74324  0.0176  1.0000
  H   H84       1.0  0.7861  0.7381  0.9814999999999999  1.0000
  C   C149      1.0  0.2501  0.6558299999999998  0.1575  1.0000
  H   H85       1.0  0.20559999999999998  0.6461  0.1412  1.0000
  C   C150      1.0  0.6682  0.6112499999999997  0.8600999999999998  1.0000
  H   H86       1.0  0.6945  0.6254999999999997  0.8502  1.0000
  C   C151      1.0  0.0882  0.8162199999999997  0.6212  1.0000
  C   C152      1.0  0.6902  0.7747  0.9315999999999999  1.0000
  H   H87       1.0  0.6752  0.7586999999999998  0.9271  1.0000
  C   C153      1.0  0.9704  0.7198299999999997  0.3632  1.0000
  C   C154      1.0  0.3773  0.68575  0.1998  1.0000
  H   H88       1.0  0.4196  0.6968  0.2129  1.0000
  C   C155      1.0  0.0626  0.7445399999999998  0.498  1.0000
  H   H89       1.0  0.10590000000000001  0.7406  0.5259  1.0000
  C   C156      1.0  0.047900000000000005  0.72984  0.4528  1.0000
  H   H90       1.0  0.08409999999999998  0.7165999999999998  0.4491999999999999  1.0000
  Zn  Zn9       1.0  0.95429  0.9567499999999999  0.24764  1.0000
  Zn  Zn10      1.0  0.05405  0.98476  0.15883  1.0000
  Zn  Zn11      1.0  0.12724  0.9836099999999998  0.27929  1.0000
  Zn  Zn12      1.0  0.9582899999999998  0.013769999999999996  0.25518  1.0000
  Zn  Zn13      1.0  0.63454  0.15342  0.7239399999999999  1.0000
  Zn  Zn14      1.0  0.54038  0.1788  0.82336  1.0000
  Zn  Zn15      1.0  0.4649799999999999  0.18127999999999994  0.69931  1.0000
  Zn  Zn16      1.0  0.64128  0.20739  0.73254  1.0000
  O   O27       1.0  0.8308  0.9676199999999998  0.25874  1.0000
  O   O28       1.0  0.2305  0.9800499999999998  0.23923  1.0000
  O   O29       1.0  0.511  0.45758999999999994  0.66932  1.0000
  O   O30       1.0  0.177  0.9802999999999997  0.15203999999999998  1.0000
  O   O31       1.0  0.5178  0.46612  0.89467  1.0000
  O   O32       1.0  0.3664  0.4614299999999999  0.66039  1.0000
  O   O33       1.0  0.5994  0.14774  0.8466499999999999  1.0000
  O   O34       1.0  0.57  0.18046999999999994  0.7456399999999999  1.0000
  O   O35       1.0  0.589  0.4471799999999999  0.8326299999999999  1.0000
  O   O36       1.0  0.0204  0.9862699999999998  0.23174  1.0000
  O   O37       1.0  0.4193  0.16243  0.8052  1.0000
  O   O38       1.0  0.7602  0.19827  0.71316  1.0000
  O   O39       1.0  0.3595  0.18445  0.73702  1.0000
  O   O40       1.0  0.7399  0.16112999999999994  0.68761  1.0000
  O   O41       1.0  0.5703  0.13327  0.6705499999999999  1.0000
  O   O42       1.0  0.8511  0.005579999999999998  0.28321  1.0000
  O   O43       1.0  0.6535  0.19876999999999995  0.8511399999999999  1.0000
  O   O44       1.0  0.6747  0.13288  0.7821499999999998  1.0000
  O   O45       1.0  0.4393  0.15102999999999997  0.6621  1.0000
  O   O46       1.0  0.1609  0.014019999999999996  0.31488  1.0000
  O   O47       1.0  0.941  0.03508999999999999  0.19187999999999997  1.0000
  O   O48       1.0  0.6712  0.22845999999999994  0.79323  1.0000
  O   O49       1.0  0.03  0.030069999999999996  0.31285  1.0000
  O   O50       1.0  0.4705  0.20456  0.644  1.0000
  N   N7        1.0  0.8326999999999999  0.0004099999999999999  0.07105  1.0000
  H   H91       1.0  0.8813  0.9926999999999998  0.079  1.0000
  N   N8        1.0  0.7683  0.16988  0.91492  1.0000
  H   H92       1.0  0.7198  0.17699999999999994  0.9032999999999999  1.0000
  O   O51       1.0  0.8911  0.058529999999999985  0.2547  1.0000
  N   N9        1.0  0.24699999999999994  0.99628  0.4499999999999999  1.0000
  H   H93       1.0  0.1961  0.9893999999999997  0.4458  1.0000
  O   O52       1.0  0.595  0.22388999999999995  0.6691999999999999  1.0000
  N   N10       1.0  0.3541  0.16572  0.5352  1.0000
  H   H94       1.0  0.4054  0.17239999999999994  0.5395  1.0000
  N   N11       1.0  0.8215  0.3320299999999999  0.1393  1.0000
  H   H95       1.0  0.8435  0.3310999999999999  0.1732  1.0000
  C   C157      1.0  0.7559  0.9967499999999998  0.09459999999999999  1.0000
  C   C158      1.0  0.2119  0.15727999999999998  0.5438  1.0000
  N   N12       1.0  0.3876  0.33598  0.349  1.0000
  H   H96       1.0  0.3709  0.3361999999999999  0.3142  1.0000
  C   C159      1.0  0.2383  0.9815999999999998  0.18901999999999997  1.0000
  C   C160      1.0  0.8066  0.9865499999999998  0.27977  1.0000
  C   C161      1.0  0.3196  0.9912499999999997  0.4216  1.0000
  C   C162      1.0  0.7192  0.9869099999999997  0.3016  1.0000
  C   C163      1.0  0.6917  0.01201  0.07036  1.0000
  C   C164      1.0  0.4963  0.9923499999999997  0.1404  1.0000
  C   C165      1.0  0.6682  0.9671299999999998  0.30139  1.0000
  H   H97       1.0  0.6874  0.9530999999999997  0.2857  1.0000
  C   C166      1.0  0.5864  0.9949199999999998  0.12464999999999998  1.0000
  C   C167      1.0  0.8212  0.0183  0.0326  1.0000
  C   C168      1.0  0.3888  0.00555  0.44029999999999997  1.0000
  C   C169      1.0  0.3268  0.9750299999999997  0.3793  1.0000
  H   H98       1.0  0.2799  0.9652  0.3665999999999999  1.0000
  C   C170      1.0  0.6532  0.9806299999999998  0.1501  1.0000
  H   H99       1.0  0.6392  0.9701999999999997  0.178  1.0000
  C   C171      1.0  0.8657  0.14744999999999994  0.9651  1.0000
  C   C172      1.0  0.11120000000000001  0.029939999999999994  0.3247  1.0000
  C   C173      1.0  0.7341  0.026289999999999994  0.03189  1.0000
  C   C174      1.0  0.6116  0.4350999999999999  0.9231  1.0000
  C   C175      1.0  0.2824  0.17135  0.5632  1.0000
  C   C176      1.0  0.707  0.045499999999999985  0.0  1.0000
  H   H100      1.0  0.6499  0.0515  0.0008  1.0000
  C   C177      1.0  0.47689999999999994  0.9885699999999997  0.3745999999999999  1.0000
  C   C178      1.0  0.5608999999999997  0.98804  0.3472  1.0000
  C   C179      1.0  0.45279999999999987  0.11342  0.6254  1.0000
  C   C180      1.0  0.3978  0.9865999999999998  0.2109  1.0000
  H   H101      1.0  0.3887  0.985  0.2482  1.0000
  C   C181      1.0  0.3425  0.9877  0.1174  1.0000
  H   H102      1.0  0.2953  0.9866999999999998  0.0905  1.0000
  C   C182      1.0  0.4392  0.4533399999999999  0.6453  1.0000
  C   C183      1.0  0.3274  0.9852899999999998  0.1722  1.0000
  C   C184      1.0  0.4801  0.99018  0.19559999999999997  1.0000
  H   H103      1.0  0.5271  0.9911999999999997  0.2227  1.0000
  C   C185      1.0  0.35819999999999996  0.02091  0.4817  1.0000
  C   C186      1.0  0.9081  0.15648999999999993  0.9182999999999999  1.0000
  C   C187      1.0  0.6067  0.01075  0.08489999999999999  1.0000
  H   H104      1.0  0.5631  0.020599999999999993  0.0678  1.0000
  C   C188      1.0  0.425  0.3481  0.4348  1.0000
  C   C189      1.0  0.7375  0.07589  0.9324  1.0000
  C   C190      1.0  0.8791  0.027549999999999995  0.9991999999999999  1.0000
  H   H105      1.0  0.9360999999999998  0.0215  0.9982999999999997  1.0000
  C   C191      1.0  0.2416  0.14203  0.5033  1.0000
  C   C192      1.0  0.1318  0.15912999999999994  0.566  1.0000
  H   H106      1.0  0.0849  0.14939999999999995  0.5529  1.0000
  C   C193      1.0  0.6796  0.11331999999999998  0.8653  1.0000
  C   C194      1.0  0.7658  0.055699999999999986  0.9668999999999999  1.0000
  C   C195      1.0  0.5892  0.43647999999999987  0.9768999999999999  1.0000
  H   H107      1.0  0.5492  0.448  0.987  1.0000
  C   C196      1.0  0.5695  0.45040999999999987  0.8796999999999998  1.0000
  C   C197      1.0  0.009999999999999983  0.16696999999999998  0.8546999999999999  1.0000
  C   C198      1.0  0.46829999999999994  0.004  0.4173  1.0000
  H   H108      1.0  0.516  0.0134  0.4307  1.0000
  C   C199      1.0  0.4315999999999999  0.43685999999999997  0.5986  1.0000
  C   C200      1.0  0.3429  0.05238  0.5448  1.0000
  C   C201      1.0  0.4068  0.9742099999999998  0.35741  1.0000
  H   H109      1.0  0.4142  0.9632999999999998  0.3292  1.0000
  C   C202      1.0  0.3804  0.07340999999999999  0.5723  1.0000
  C   C203      1.0  0.393  0.03925999999999999  0.5116  1.0000
  H   H110      1.0  0.4523999999999999  0.043099999999999986  0.5098  1.0000
  C   C204      1.0  0.1471  0.051029999999999985  0.3537  1.0000
  C   C205      1.0  0.4247  0.9914999999999998  0.102  1.0000
  H   H111      1.0  0.4331  0.9936  0.0647  1.0000
  C   C206      1.0  0.5885  0.9676399999999998  0.3241  1.0000
  H   H112      1.0  0.5533  0.9539999999999998  0.3238  1.0000
  C   C207      1.0  0.2334  0.05101999999999999  0.3767  1.0000
  H   H113      1.0  0.2677  0.0373  0.37439999999999996  1.0000
  C   C208      1.0  0.2178  0.09059999999999997  0.4081  1.0000
  C   C209      1.0  0.036600000000000014  0.17658999999999994  0.6313  1.0000
  C   C210      1.0  0.6889  0.007469999999999998  0.3235  1.0000
  H   H114      1.0  0.7233  0.021199999999999993  0.3233  1.0000
  C   C211      1.0  0.4998  0.42166  0.5907  1.0000
  H   H115      1.0  0.5507999999999997  0.4222999999999999  0.6147999999999999  1.0000
  C   C212      1.0  0.9825  0.15703999999999996  0.6302  1.0000
  H   H116      1.0  0.00220000000000001  0.1427  0.6163  1.0000
  C   C213      1.0  0.43479999999999996  0.36445999999999995  0.47649999999999987  1.0000
  H   H117      1.0  0.4568  0.3596999999999999  0.5118  1.0000
  C   C214      1.0  0.1204  0.17501999999999995  0.6069  1.0000
  C   C215      1.0  0.10019999999999998  0.16796  0.8372  1.0000
  C   C216      1.0  0.2685  0.07042  0.40239999999999987  1.0000
  H   H118      1.0  0.3274999999999999  0.07029999999999999  0.4164  1.0000
  C   C217      1.0  0.3648  0.11277999999999998  0.6069  1.0000
  H   H119      1.0  0.3291  0.126  0.6116  1.0000
  C   C218      1.0  0.8542  0.10825  0.0876  1.0000
  C   C219      1.0  0.8948  0.08759999999999997  0.0734  1.0000
  H   H120      1.0  0.9104  0.08539999999999998  0.0373  1.0000
  C   C220      1.0  0.7635  0.07757999999999998  0.8792  1.0000
  H   H121      1.0  0.8009  0.0661  0.8659999999999999  1.0000
  C   C221      1.0  0.8499  0.04638999999999999  0.9668  1.0000
  H   H122      1.0  0.8888  0.05319999999999999  0.9435  1.0000
  C   C222      1.0  0.35710000000000003  0.4360099999999999  0.5624  1.0000
  H   H123      1.0  0.31  0.44629999999999986  0.5669  1.0000
  C   C223      1.0  0.6096999999999999  0.008189999999999998  0.3455999999999999  1.0000
  H   H124      1.0  0.589  0.022399999999999993  0.3595  1.0000
  C   C224      1.0  0.4897  0.13446999999999995  0.6547  1.0000
  C   C225      1.0  0.6508  0.13269999999999996  0.8296999999999999  1.0000
  C   C226      1.0  0.468  0.07452  0.591  1.0000
  H   H125      1.0  0.5038999999999998  0.0614  0.586  1.0000
  C   C227      1.0  0.8433  0.16958999999999994  0.8888  1.0000
  C   C228      1.0  0.8713  0.17861999999999995  0.6719  1.0000
  C   C229      1.0  0.5041  0.09397  0.6165  1.0000
  H   H126      1.0  0.5641  0.09419999999999998  0.6281  1.0000
  C   C230      1.0  0.3308  0.14795999999999995  0.4999  1.0000
  C   C231      1.0  0.1928  0.18945  0.6247  1.0000
  H   H127      1.0  0.1852  0.20059999999999995  0.6524  1.0000
  C   C232      1.0  0.3524  0.42024  0.5203  1.0000
  H   H128      1.0  0.3015  0.4196999999999999  0.4962  1.0000
  C   C233      1.0  0.4124  0.3877799999999999  0.4666  1.0000
  C   C234      1.0  0.2709  0.014319999999999996  0.4864  1.0000
  C   C235      1.0  0.0962  0.07073  0.3602  1.0000
  H   H129      1.0  0.03699999999999997  0.0707  0.3465999999999999  1.0000
  C   C236      1.0  0.4208999999999999  0.40507  0.5124  1.0000
  C   C237      1.0  0.7253  0.15295999999999996  0.0019  1.0000
  H   H130      1.0  0.6699  0.1602  0.0008999999999999999  1.0000
  C   C238      1.0  0.7212  0.3863199999999999  0.0414  1.0000
  C   C239      1.0  0.2725  0.18805  0.6043  1.0000
  H   H131      1.0  0.3191  0.19789999999999994  0.6172  1.0000
  C   C240      1.0  0.7809999999999999  0.15737  0.9618999999999999  1.0000
  C   C241      1.0  0.737  0.9813599999999998  0.136  1.0000
  H   H132      1.0  0.7807  0.9717999999999998  0.1536  1.0000
  C   C242      1.0  0.912  0.07052999999999997  0.1112  1.0000
  H   H133      1.0  0.9403  0.056599999999999984  0.10149999999999999  1.0000
  C   C243      1.0  0.9078  0.05491999999999998  0.20719999999999994  1.0000
  C   C244      1.0  0.4947  0.4057399999999999  0.5487  1.0000
  H   H134      1.0  0.5414  0.3953  0.5445  1.0000
  C   C245      1.0  0.8599  0.17997999999999995  0.8396999999999999  1.0000
  H   H135      1.0  0.8154999999999999  0.188  0.8183999999999999  1.0000
  C   C246      1.0  0.6559999999999999  0.11141999999999998  0.9186  1.0000
  H   H136      1.0  0.6201  0.1231  0.9325999999999999  1.0000
  C   C247      1.0  0.888  0.07340999999999999  0.1645  1.0000
  C   C248      1.0  0.6841  0.09299  0.9509999999999997  1.0000
  H   H137      1.0  0.6664  0.09199999999999997  0.9868  1.0000
  C   C249      1.0  0.926  0.1983  0.6734  1.0000
  H   H138      1.0  0.9072  0.21249999999999994  0.6884  1.0000
  C   C250      1.0  0.7347  0.09578  0.8466999999999999  1.0000
  H   H139      1.0  0.7520999999999999  0.0967  0.8107999999999997  1.0000
  C   C251      1.0  0.1319  0.09060999999999997  0.3866  1.0000
  H   H140      1.0  0.0973  0.10419999999999997  0.3898  1.0000
  C   C252      1.0  0.9419  0.1783  0.8232  1.0000
  H   H141      1.0  0.9536  0.18499999999999997  0.7893999999999999  1.0000
  C   C253      1.0  0.2698  0.17148999999999995  0.8023999999999999  1.0000
  C   C254      1.0  0.25609999999999994  0.11099  0.43899999999999995  1.0000
  C   C255      1.0  0.205  0.12364999999999997  0.47209999999999996  1.0000
  H   H142      1.0  0.1455  0.11979999999999998  0.47359999999999997  1.0000
  C   C256      1.0  0.9904  0.15524  0.9016  1.0000
  H   H143      1.0  0.0338  0.1464  0.9218  1.0000
  C   C257      1.0  0.3559  0.17265  0.7802  1.0000
  C   C258      1.0  0.7696999999999998  0.32155  0.05439999999999999  1.0000
  C   C259      1.0  0.6997  0.23554999999999995  0.8865  1.0000
  C   C260      1.0  0.7844  0.17954  0.6918999999999998  1.0000
  C   C261      1.0  0.3816  0.3944199999999999  0.4146999999999999  1.0000
  H   H144      1.0  0.3656  0.41029999999999994  0.4083  1.0000
  C   C262      1.0  0.8996  0.15823  0.6493  1.0000
  H   H145      1.0  0.8627999999999998  0.1449  0.6467  1.0000
  C   C263      1.0  0.6718999999999999  0.21995  0.8400999999999997  1.0000
  C   C264      1.0  0.6872  0.4044999999999999  0.001  1.0000
  C   C265      1.0  0.005299999999999984  0.19719999999999993  0.6535999999999998  1.0000
  H   H146      1.0  0.040700000000000014  0.2108  0.655  1.0000
  C   C266      1.0  0.8346  0.12649999999999997  0.045  1.0000
  C   C267      1.0  0.258  0.04485999999999999  0.5507  1.0000
  H   H147      1.0  0.2246  0.052999999999999985  0.5752  1.0000
  C   C268      1.0  0.8903  0.13166999999999995  0.006799999999999999  1.0000
  H   H148      1.0  0.9459  0.12459999999999997  0.0084  1.0000
  C   C269      1.0  0.6261  0.4208899999999999  0.0152  1.0000
  H   H149      1.0  0.6096  0.42139999999999994  0.051299999999999985  1.0000
  C   C270      1.0  0.7252  0.36353  0.0238  1.0000
  H   H150      1.0  0.7056  0.3596999999999999  0.9875999999999998  1.0000
  C   C271      1.0  0.7129  0.4039999999999999  0.9495  1.0000
  H   H151      1.0  0.7564  0.3931999999999999  0.9408  1.0000
  C   C272      1.0  0.729  0.25876  0.8763999999999997  1.0000
  H   H152      1.0  0.7320999999999999  0.26409999999999995  0.8402999999999999  1.0000
  C   C273      1.0  0.6761999999999998  0.41903  0.9094  1.0000
  H   H153      1.0  0.6942  0.41849999999999987  0.8735999999999999  1.0000
  C   C274      1.0  0.1677  0.15405  0.8594  1.0000
  H   H154      1.0  0.1568  0.14309999999999995  0.8868  1.0000
  C   C275      1.0  0.3806  0.13563  0.4646  1.0000
  H   H155      1.0  0.4396  0.13969999999999996  0.46129999999999993  1.0000
  C   C276      1.0  0.3734  0.37872  0.3715  1.0000
  H   H156      1.0  0.3546  0.38379999999999986  0.336  1.0000
  C   C277      1.0  0.7525  0.13773  0.0433  1.0000
  H   H157      1.0  0.7154  0.1347  0.0713  1.0000
  C   C278      1.0  0.7579  0.3460499999999999  0.0587  1.0000
  C   C279      1.0  0.3298  0.09304999999999997  0.5819  1.0000
  H   H158      1.0  0.2696  0.09269999999999998  0.5709  1.0000
  C   C280      1.0  0.793  0.3522  0.1124  1.0000
  C   C281      1.0  0.2202  0.025729999999999996  0.5218  1.0000
  H   H159      1.0  0.1625  0.0209  0.5263  1.0000
  C   C282      1.0  0.8275  0.28982  0.1114  1.0000
  H   H160      1.0  0.8514  0.2843  0.1456  1.0000
  C   C283      1.0  0.3936  0.35515  0.3822  1.0000
  C   C284      1.0  0.4617  0.30654  0.4712  1.0000
  H   H161      1.0  0.4779  0.3109  0.5077  1.0000
  C   C285      1.0  0.4630999999999999  0.28259999999999996  0.4557  1.0000
  C   C286      1.0  0.7535999999999999  0.3917499999999999  0.09439999999999997  1.0000
  H   H162      1.0  0.7514  0.4074999999999999  0.1062  1.0000
  C   C287      1.0  0.7706999999999999  0.2820999999999999  0.0187  1.0000
  C   C288      1.0  0.4368  0.32334  0.4334  1.0000
  C   C289      1.0  0.7521  0.3056399999999999  0.0109  1.0000
  H   H163      1.0  0.7278  0.3110999999999999  0.9768  1.0000
  C   C290      1.0  0.7885  0.3750399999999999  0.1301  1.0000
  H   H164      1.0  0.8089  0.37919999999999987  0.1661  1.0000
  C   C291      1.0  0.3422  0.11742999999999998  0.4344  1.0000
  H   H165      1.0  0.3753  0.10909999999999997  0.41  1.0000
  C   C292      1.0  0.5703  0.25318  0.58  1.0000
  H   H166      1.0  0.6193  0.25569999999999987  0.6049999999999999  1.0000
  C   C293      1.0  0.7525  0.27320999999999995  0.9195  1.0000
  H   H167      1.0  0.7714999999999999  0.2887  0.9126999999999997  1.0000
  C   C294      1.0  0.2048  0.18692999999999996  0.7838  1.0000
  H   H168      1.0  0.2178  0.19869999999999993  0.7586  1.0000
  C   C295      1.0  0.5188  0.2344  0.5867  1.0000
  C   C296      1.0  0.7490999999999998  0.26567999999999997  0.9731  1.0000
  C   C297      1.0  0.6963999999999998  0.22824  0.9392  1.0000
  H   H169      1.0  0.6785  0.21269999999999994  0.9461999999999999  1.0000
  C   C298      1.0  0.4863  0.26505  0.49759999999999993  1.0000
  C   C299      1.0  0.8469  0.09398  0.1779  1.0000
  H   H170      1.0  0.8293  0.0961  0.21349999999999997  1.0000
  C   C300      1.0  0.41019999999999995  0.2933999999999999  0.36289999999999994  1.0000
  H   H171      1.0  0.3939  0.2891999999999999  0.3264  1.0000
  C   C301      1.0  0.4336  0.27611  0.4023  1.0000
  H   H172      1.0  0.4294  0.25999999999999995  0.3928  1.0000
  C   C302      1.0  0.809  0.31344  0.1029  1.0000
  C   C303      1.0  0.5534  0.26896999999999993  0.5372  1.0000
  H   H173      1.0  0.5883  0.28259999999999996  0.5353  1.0000
  C   C304      1.0  0.7191  0.24323999999999996  0.9824  1.0000
  H   H174      1.0  0.7139  0.23809999999999995  0.0185  1.0000
  C   C305      1.0  0.2499  0.15582999999999997  0.8425  1.0000
  H   H175      1.0  0.2944  0.14609999999999995  0.8588  1.0000
  C   C306      1.0  0.8318  0.11124999999999997  0.1399  1.0000
  H   H176      1.0  0.8055  0.12549999999999997  0.1498  1.0000
  C   C307      1.0  0.4118  0.31622  0.3788  1.0000
  C   C308      1.0  0.8098  0.2747  0.0684  1.0000
  H   H177      1.0  0.8248  0.2587  0.0729  1.0000
  C   C309      1.0  0.5296  0.21983  0.6368  1.0000
  C   C310      1.0  0.12270000000000002  0.18574999999999997  0.8002  1.0000
  H   H178      1.0  0.08039999999999999  0.19679999999999995  0.7870999999999999  1.0000
  C   C311      1.0  0.4374  0.24453999999999995  0.502  1.0000
  H   H179      1.0  0.3941  0.24059999999999998  0.47409999999999997  1.0000
  C   C312      1.0  0.4520999999999999  0.22983999999999993  0.5472  1.0000
  H   H180      1.0  0.4159  0.21659999999999993  0.5508  1.0000
  Zn  Zn17      1.0  0.45428999999999997  0.5432499999999998  0.24764  1.0000
  Zn  Zn18      1.0  0.55405  0.51524  0.15883  1.0000
  Zn  Zn19      1.0  0.62724  0.51639  0.27929  1.0000
  Zn  Zn20      1.0  0.45829  0.4862299999999999  0.25518  1.0000
  Zn  Zn21      1.0  0.13453999999999997  0.34658  0.7239399999999999  1.0000
  Zn  Zn22      1.0  0.04037999999999997  0.3211999999999999  0.82336  1.0000
  Zn  Zn23      1.0  0.96498  0.31871999999999995  0.69931  1.0000
  Zn  Zn24      1.0  0.14128  0.29261  0.73254  1.0000
  O   O53       1.0  0.3308  0.5323799999999999  0.25874  1.0000
  O   O54       1.0  0.7305  0.5199499999999999  0.23923  1.0000
  O   O55       1.0  0.011000000000000006  0.04240999999999999  0.66932  1.0000
  O   O56       1.0  0.6769999999999999  0.5196999999999998  0.15203999999999998  1.0000
  O   O57       1.0  0.0178  0.033879999999999987  0.89467  1.0000
  O   O58       1.0  0.8664  0.038569999999999986  0.66039  1.0000
  O   O59       1.0  0.09939999999999999  0.35226  0.8466499999999999  1.0000
  O   O60       1.0  0.06999999999999999  0.31952999999999987  0.7456399999999999  1.0000
  O   O61       1.0  0.08899999999999998  0.052819999999999985  0.8326299999999999  1.0000
  O   O62       1.0  0.5204  0.51373  0.23174  1.0000
  O   O63       1.0  0.9193  0.33756999999999987  0.8052  1.0000
  O   O64       1.0  0.2602  0.3017299999999999  0.71316  1.0000
  O   O65       1.0  0.8595  0.3155499999999999  0.73702  1.0000
  O   O66       1.0  0.2399  0.3388699999999999  0.68761  1.0000
  O   O67       1.0  0.07029999999999999  0.3667299999999999  0.6705499999999999  1.0000
  O   O68       1.0  0.3511  0.4944199999999999  0.28321  1.0000
  O   O69       1.0  0.15349999999999997  0.30123  0.8511399999999999  1.0000
  O   O70       1.0  0.17469999999999997  0.3671199999999999  0.7821499999999998  1.0000
  O   O71       1.0  0.9393  0.3489699999999999  0.6621  1.0000
  O   O72       1.0  0.6609  0.4859799999999999  0.31488  1.0000
  O   O73       1.0  0.441  0.4649099999999999  0.19187999999999997  1.0000
  O   O74       1.0  0.1712  0.27154  0.79323  1.0000
  O   O75       1.0  0.53  0.4699299999999999  0.31285  1.0000
  O   O76       1.0  0.9705  0.29544  0.644  1.0000
  N   N13       1.0  0.3327  0.49958999999999987  0.07105  1.0000
  H   H181      1.0  0.3813  0.5072999999999999  0.079  1.0000
  N   N14       1.0  0.2683  0.33012  0.91492  1.0000
  H   H182      1.0  0.2198  0.323  0.9032999999999999  1.0000
  O   O77       1.0  0.3911  0.44146999999999986  0.2547  1.0000
  N   N15       1.0  0.747  0.50372  0.4499999999999999  1.0000
  H   H183      1.0  0.6961  0.5106  0.4458  1.0000
  O   O78       1.0  0.09499999999999997  0.27611  0.6691999999999999  1.0000
  N   N16       1.0  0.8541  0.33428  0.5352  1.0000
  H   H184      1.0  0.9053999999999998  0.3276  0.5395  1.0000
  N   N17       1.0  0.3215  0.16797  0.1393  1.0000
  H   H185      1.0  0.3435  0.16889999999999994  0.1732  1.0000
  C   C313      1.0  0.2559  0.5032499999999999  0.09459999999999999  1.0000
  C   C314      1.0  0.7119  0.34272  0.5438  1.0000
  N   N18       1.0  0.8876  0.16401999999999994  0.349  1.0000
  H   H186      1.0  0.8709  0.1638  0.3142  1.0000
  C   C315      1.0  0.7383  0.5183999999999999  0.18901999999999997  1.0000
  C   C316      1.0  0.3065999999999999  0.51345  0.27977  1.0000
  C   C317      1.0  0.8196  0.5087499999999998  0.4216  1.0000
  C   C318      1.0  0.2192  0.5130899999999999  0.3016  1.0000
  C   C319      1.0  0.1917  0.48798999999999987  0.07036  1.0000
  C   C320      1.0  0.9963  0.5076499999999999  0.1404  1.0000
  C   C321      1.0  0.16819999999999996  0.53287  0.30139  1.0000
  H   H187      1.0  0.1874  0.5469  0.2857  1.0000
  C   C322      1.0  0.0864  0.50508  0.12464999999999998  1.0000
  C   C323      1.0  0.3212  0.4816999999999999  0.0326  1.0000
  C   C324      1.0  0.8888  0.4944499999999999  0.44029999999999997  1.0000
  C   C325      1.0  0.8268  0.52497  0.3793  1.0000
  H   H188      1.0  0.7799  0.5348  0.3665999999999999  1.0000
  C   C326      1.0  0.1532  0.51937  0.1501  1.0000
  H   H189      1.0  0.1392  0.5297999999999999  0.178  1.0000
  C   C327      1.0  0.3657  0.35255  0.9651  1.0000
  C   C328      1.0  0.6112  0.4700599999999999  0.3247  1.0000
  C   C329      1.0  0.2341  0.4737099999999999  0.03189  1.0000
  C   C330      1.0  0.1116  0.0649  0.9231  1.0000
  C   C331      1.0  0.7824  0.32865  0.5632  1.0000
  C   C332      1.0  0.207  0.4544999999999999  0.0  1.0000
  H   H190      1.0  0.1499  0.4484999999999999  0.0008  1.0000
  C   C333      1.0  0.9768999999999998  0.5114299999999998  0.3745999999999999  1.0000
  C   C334      1.0  0.0609  0.51196  0.3472  1.0000
  C   C335      1.0  0.9528  0.38657999999999987  0.6254  1.0000
  C   C336      1.0  0.8978  0.5134  0.2109  1.0000
  H   H191      1.0  0.8887  0.515  0.2482  1.0000
  C   C337      1.0  0.8425  0.5123  0.1174  1.0000
  H   H192      1.0  0.7953  0.5133  0.0905  1.0000
  C   C338      1.0  0.9392  0.04666  0.6453  1.0000
  C   C339      1.0  0.8274  0.51471  0.1722  1.0000
  C   C340      1.0  0.9801  0.50982  0.19559999999999997  1.0000
  H   H193      1.0  0.0271  0.5087999999999998  0.2227  1.0000
  C   C341      1.0  0.8582  0.4790899999999999  0.4817  1.0000
  C   C342      1.0  0.4081  0.34350999999999987  0.9182999999999999  1.0000
  C   C343      1.0  0.1067  0.4892499999999999  0.08489999999999999  1.0000
  H   H194      1.0  0.0631  0.4793999999999999  0.0678  1.0000
  C   C344      1.0  0.925  0.1519  0.4348  1.0000
  C   C345      1.0  0.2375  0.4241099999999999  0.9324  1.0000
  C   C346      1.0  0.3791  0.47244999999999987  0.9991999999999999  1.0000
  H   H195      1.0  0.4361  0.4785  0.9982999999999997  1.0000
  C   C347      1.0  0.7416  0.35797  0.5033  1.0000
  C   C348      1.0  0.6318  0.34086999999999995  0.566  1.0000
  H   H196      1.0  0.5849  0.3505999999999999  0.5529  1.0000
  C   C349      1.0  0.17959999999999998  0.3866799999999999  0.8653  1.0000
  C   C350      1.0  0.2658  0.44429999999999986  0.9668999999999999  1.0000
  C   C351      1.0  0.0892  0.06352  0.9768999999999999  1.0000
  H   H197      1.0  0.049199999999999994  0.052  0.987  1.0000
  C   C352      1.0  0.06949999999999998  0.04959  0.8796999999999998  1.0000
  C   C353      1.0  0.51  0.33303  0.8546999999999999  1.0000
  C   C354      1.0  0.9683  0.4959999999999999  0.4173  1.0000
  H   H198      1.0  0.01599999999999999  0.4865999999999999  0.4307  1.0000
  C   C355      1.0  0.9316  0.06314  0.5986  1.0000
  C   C356      1.0  0.8429  0.4476199999999999  0.5448  1.0000
  C   C357      1.0  0.9068  0.52579  0.35741  1.0000
  H   H199      1.0  0.9142  0.5367  0.3292  1.0000
  C   C358      1.0  0.8804  0.4265899999999999  0.5723  1.0000
  C   C359      1.0  0.893  0.46073999999999987  0.5116  1.0000
  H   H200      1.0  0.9524  0.45689999999999986  0.5098  1.0000
  C   C360      1.0  0.6471  0.44896999999999987  0.3537  1.0000
  C   C361      1.0  0.9247  0.5084999999999997  0.102  1.0000
  H   H201      1.0  0.9331  0.5064  0.0647  1.0000
  C   C362      1.0  0.0885  0.5323599999999998  0.3241  1.0000
  H   H202      1.0  0.0533  0.546  0.3238  1.0000
  C   C363      1.0  0.7334  0.4489799999999999  0.3767  1.0000
  H   H203      1.0  0.7676999999999999  0.4626999999999999  0.37439999999999996  1.0000
  C   C364      1.0  0.7177999999999998  0.4094  0.4081  1.0000
  C   C365      1.0  0.5366  0.32341  0.6313  1.0000
  C   C366      1.0  0.1889  0.49253  0.3235  1.0000
  H   H204      1.0  0.2233  0.4787999999999999  0.3233  1.0000
  C   C367      1.0  0.9998  0.07834  0.5907  1.0000
  H   H205      1.0  0.05079999999999999  0.0777  0.6147999999999999  1.0000
  C   C368      1.0  0.4825  0.3429599999999999  0.6302  1.0000
  H   H206      1.0  0.5022  0.3572999999999999  0.6163  1.0000
  C   C369      1.0  0.9348  0.13553999999999997  0.47649999999999987  1.0000
  H   H207      1.0  0.9568  0.1403  0.5118  1.0000
  C   C370      1.0  0.6204  0.3249799999999999  0.6069  1.0000
  C   C371      1.0  0.6002  0.3320399999999999  0.8372  1.0000
  C   C372      1.0  0.7685  0.4295799999999999  0.40239999999999987  1.0000
  H   H208      1.0  0.8275  0.4296999999999999  0.4164  1.0000
  C   C373      1.0  0.8648  0.38722  0.6069  1.0000
  H   H209      1.0  0.8291  0.3739999999999999  0.6116  1.0000
  C   C374      1.0  0.3542  0.3917499999999999  0.0876  1.0000
  C   C375      1.0  0.3948  0.4123999999999999  0.0734  1.0000
  H   H210      1.0  0.4104  0.41459999999999997  0.0373  1.0000
  C   C376      1.0  0.2635  0.4224199999999999  0.8792  1.0000
  H   H211      1.0  0.30089999999999995  0.4338999999999999  0.8659999999999999  1.0000
  C   C377      1.0  0.3499  0.45361  0.9668  1.0000
  H   H212      1.0  0.3888  0.4468  0.9435  1.0000
  C   C378      1.0  0.8571  0.06399  0.5624  1.0000
  H   H213      1.0  0.81  0.053699999999999984  0.5669  1.0000
  C   C379      1.0  0.10969999999999998  0.4918099999999999  0.3455999999999999  1.0000
  H   H214      1.0  0.089  0.4775999999999999  0.3595  1.0000
  C   C380      1.0  0.9897  0.3655299999999999  0.6547  1.0000
  C   C381      1.0  0.1508  0.36729999999999996  0.8296999999999999  1.0000
  C   C382      1.0  0.9679999999999999  0.4254799999999999  0.591  1.0000
  H   H215      1.0  0.0038999999999999933  0.4385999999999999  0.586  1.0000
  C   C383      1.0  0.3433  0.33041  0.8888  1.0000
  C   C384      1.0  0.3713  0.32137999999999994  0.6719  1.0000
  C   C385      1.0  0.004099999999999999  0.4060299999999999  0.6165  1.0000
  H   H216      1.0  0.06409999999999998  0.4057999999999999  0.6281  1.0000
  C   C386      1.0  0.8308  0.35203999999999996  0.4999  1.0000
  C   C387      1.0  0.6928  0.31055  0.6247  1.0000
  H   H217      1.0  0.6852  0.2994  0.6524  1.0000
  C   C388      1.0  0.8524  0.07976  0.5203  1.0000
  H   H218      1.0  0.8015  0.08029999999999997  0.4962  1.0000
  C   C389      1.0  0.9124  0.11221999999999997  0.4666  1.0000
  C   C390      1.0  0.7708999999999999  0.48568  0.4864  1.0000
  C   C391      1.0  0.5962  0.4292699999999999  0.3602  1.0000
  H   H219      1.0  0.537  0.4292999999999999  0.3465999999999999  1.0000
  C   C392      1.0  0.9209  0.09492999999999999  0.5124  1.0000
  C   C393      1.0  0.2253  0.34704  0.0019  1.0000
  H   H220      1.0  0.1699  0.3398  0.0008999999999999999  1.0000
  C   C394      1.0  0.22119999999999995  0.11367999999999998  0.0414  1.0000
  C   C395      1.0  0.7725  0.31195  0.6043  1.0000
  H   H221      1.0  0.8191  0.3021  0.6172  1.0000
  C   C396      1.0  0.281  0.34263  0.9618999999999999  1.0000
  C   C397      1.0  0.237  0.5186399999999999  0.136  1.0000
  H   H222      1.0  0.2807  0.5281999999999999  0.1536  1.0000
  C   C398      1.0  0.412  0.4294699999999999  0.1112  1.0000
  H   H223      1.0  0.4403  0.4433999999999999  0.10149999999999999  1.0000
  C   C399      1.0  0.40779999999999994  0.44508  0.20719999999999994  1.0000
  C   C400      1.0  0.9947  0.09425999999999998  0.5487  1.0000
  H   H224      1.0  0.04139999999999999  0.1047  0.5445  1.0000
  C   C401      1.0  0.3599  0.3200199999999999  0.8396999999999999  1.0000
  H   H225      1.0  0.3155  0.312  0.8183999999999999  1.0000
  C   C402      1.0  0.156  0.38858  0.9186  1.0000
  H   H226      1.0  0.12009999999999998  0.3768999999999999  0.9325999999999999  1.0000
  C   C403      1.0  0.388  0.4265899999999999  0.1645  1.0000
  C   C404      1.0  0.1841  0.40700999999999987  0.9509999999999997  1.0000
  H   H227      1.0  0.1664  0.408  0.9868  1.0000
  C   C405      1.0  0.426  0.3016999999999999  0.6734  1.0000
  H   H228      1.0  0.4072  0.28749999999999987  0.6884  1.0000
  C   C406      1.0  0.2347  0.4042199999999999  0.8466999999999999  1.0000
  H   H229      1.0  0.25209999999999994  0.4032999999999999  0.8107999999999997  1.0000
  C   C407      1.0  0.6319  0.40939  0.3866  1.0000
  H   H230      1.0  0.5973  0.3957999999999999  0.3898  1.0000
  C   C408      1.0  0.44189999999999996  0.3217  0.8232  1.0000
  H   H231      1.0  0.4536  0.315  0.7893999999999999  1.0000
  C   C409      1.0  0.7698  0.32850999999999997  0.8023999999999999  1.0000
  C   C410      1.0  0.7561  0.3890099999999999  0.43899999999999995  1.0000
  C   C411      1.0  0.705  0.3763499999999999  0.47209999999999996  1.0000
  H   H232      1.0  0.6454999999999999  0.3802  0.47359999999999997  1.0000
  C   C412      1.0  0.4904  0.3447599999999999  0.9016  1.0000
  H   H233      1.0  0.5338  0.3536  0.9218  1.0000
  C   C413      1.0  0.8559  0.32735  0.7802  1.0000
  C   C414      1.0  0.2697  0.17844999999999994  0.05439999999999999  1.0000
  C   C415      1.0  0.1997  0.26445  0.8865  1.0000
  C   C416      1.0  0.2844  0.32046  0.6918999999999998  1.0000
  C   C417      1.0  0.8816  0.10557999999999997  0.4146999999999999  1.0000
  H   H234      1.0  0.8656  0.08969999999999997  0.4083  1.0000
  C   C418      1.0  0.39960000000000007  0.3417699999999999  0.6493  1.0000
  H   H235      1.0  0.3628  0.3551  0.6467  1.0000
  C   C419      1.0  0.1719  0.28005  0.8400999999999997  1.0000
  C   C420      1.0  0.1872  0.09549999999999997  0.001  1.0000
  C   C421      1.0  0.5053  0.3027999999999999  0.6535999999999998  1.0000
  H   H236      1.0  0.5406999999999997  0.2891999999999999  0.655  1.0000
  C   C422      1.0  0.3346  0.3734999999999999  0.045  1.0000
  C   C423      1.0  0.758  0.45514  0.5507  1.0000
  H   H237      1.0  0.7246  0.4469999999999999  0.5752  1.0000
  C   C424      1.0  0.3902999999999999  0.3683299999999999  0.006799999999999999  1.0000
  H   H238      1.0  0.4459  0.3753999999999999  0.0084  1.0000
  C   C425      1.0  0.1261  0.07911  0.0152  1.0000
  H   H239      1.0  0.1096  0.07859999999999998  0.051299999999999985  1.0000
  C   C426      1.0  0.2252  0.13647  0.0238  1.0000
  H   H240      1.0  0.20559999999999995  0.1403  0.9875999999999998  1.0000
  C   C427      1.0  0.2129  0.09599999999999999  0.9495  1.0000
  H   H241      1.0  0.2564  0.1068  0.9408  1.0000
  C   C428      1.0  0.22899999999999998  0.24123999999999995  0.8763999999999997  1.0000
  H   H242      1.0  0.2321  0.2359  0.8402999999999999  1.0000
  C   C429      1.0  0.1762  0.08096999999999997  0.9094  1.0000
  H   H243      1.0  0.1942  0.0815  0.8735999999999999  1.0000
  C   C430      1.0  0.6677  0.34594999999999987  0.8594  1.0000
  H   H244      1.0  0.6568  0.3568999999999999  0.8868  1.0000
  C   C431      1.0  0.8806  0.3643699999999999  0.4646  1.0000
  H   H245      1.0  0.9395999999999999  0.36029999999999995  0.46129999999999993  1.0000
  C   C432      1.0  0.8734  0.12127999999999997  0.3715  1.0000
  H   H246      1.0  0.8546  0.1162  0.336  1.0000
  C   C433      1.0  0.2525  0.36227  0.0433  1.0000
  H   H247      1.0  0.2154  0.3652999999999999  0.0713  1.0000
  C   C434      1.0  0.2579  0.15395  0.0587  1.0000
  C   C435      1.0  0.8298  0.40694999999999987  0.5819  1.0000
  H   H248      1.0  0.7696  0.4072999999999999  0.5709  1.0000
  C   C436      1.0  0.293  0.1478  0.1124  1.0000
  C   C437      1.0  0.7202  0.47426999999999997  0.5218  1.0000
  H   H249      1.0  0.6625  0.4790999999999999  0.5263  1.0000
  C   C438      1.0  0.3274999999999999  0.21018  0.1114  1.0000
  H   H250      1.0  0.3514  0.2157  0.1456  1.0000
  C   C439      1.0  0.8936  0.14485  0.3822  1.0000
  C   C440      1.0  0.9617  0.19346  0.4712  1.0000
  H   H251      1.0  0.9778999999999997  0.18909999999999993  0.5077  1.0000
  C   C441      1.0  0.9631  0.21739999999999995  0.4557  1.0000
  C   C442      1.0  0.2536  0.10825  0.09439999999999997  1.0000
  H   H252      1.0  0.2514  0.09249999999999999  0.1062  1.0000
  C   C443      1.0  0.2707  0.2179  0.0187  1.0000
  C   C444      1.0  0.9368  0.17665999999999996  0.4334  1.0000
  C   C445      1.0  0.2521  0.19435999999999995  0.0109  1.0000
  H   H253      1.0  0.2278  0.18889999999999996  0.9768  1.0000
  C   C446      1.0  0.2885  0.12495999999999997  0.1301  1.0000
  H   H254      1.0  0.3089  0.12079999999999998  0.1661  1.0000
  C   C447      1.0  0.8421999999999997  0.38256999999999997  0.4344  1.0000
  H   H255      1.0  0.8753  0.39089999999999997  0.41  1.0000
  C   C448      1.0  0.0703  0.24681999999999996  0.58  1.0000
  H   H256      1.0  0.11929999999999999  0.24429999999999993  0.6049999999999999  1.0000
  C   C449      1.0  0.2525  0.22679  0.9195  1.0000
  H   H257      1.0  0.2715  0.21129999999999993  0.9126999999999997  1.0000
  C   C450      1.0  0.7048  0.3130699999999999  0.7838  1.0000
  H   H258      1.0  0.7177999999999998  0.3013  0.7586  1.0000
  C   C451      1.0  0.018799999999999987  0.26559999999999995  0.5867  1.0000
  C   C452      1.0  0.2491  0.23431999999999997  0.9731  1.0000
  C   C453      1.0  0.1964  0.27175999999999995  0.9392  1.0000
  H   H259      1.0  0.1785  0.2873  0.9461999999999999  1.0000
  C   C454      1.0  0.9863  0.23494999999999994  0.49759999999999993  1.0000
  C   C455      1.0  0.3469  0.4060199999999999  0.1779  1.0000
  H   H260      1.0  0.3293  0.40389999999999987  0.21349999999999997  1.0000
  C   C456      1.0  0.9102  0.20659999999999998  0.36289999999999994  1.0000
  H   H261      1.0  0.8939  0.2108  0.3264  1.0000
  C   C457      1.0  0.9336  0.22388999999999995  0.4023  1.0000
  H   H262      1.0  0.9294  0.24  0.3928  1.0000
  C   C458      1.0  0.309  0.18656  0.1029  1.0000
  C   C459      1.0  0.0534  0.23103  0.5372  1.0000
  H   H263      1.0  0.0883  0.21739999999999995  0.5353  1.0000
  C   C460      1.0  0.2191  0.25676  0.9824  1.0000
  H   H264      1.0  0.2139  0.2619  0.0185  1.0000
  C   C461      1.0  0.7498999999999999  0.34417  0.8425  1.0000
  H   H265      1.0  0.7944  0.3539  0.8588  1.0000
  C   C462      1.0  0.3318  0.3887499999999999  0.1399  1.0000
  H   H266      1.0  0.3055  0.3745  0.1498  1.0000
  C   C463      1.0  0.9118  0.18378  0.3788  1.0000
  C   C464      1.0  0.3098  0.22529999999999997  0.0684  1.0000
  H   H267      1.0  0.3248  0.2413  0.0729  1.0000
  C   C465      1.0  0.029599999999999994  0.28017  0.6368  1.0000
  C   C466      1.0  0.6227  0.31424999999999986  0.8002  1.0000
  H   H268      1.0  0.5804  0.3031999999999999  0.7870999999999999  1.0000
  C   C467      1.0  0.9374  0.25546  0.502  1.0000
  H   H269      1.0  0.8940999999999998  0.25939999999999996  0.47409999999999997  1.0000
  C   C468      1.0  0.9521  0.27016  0.5472  1.0000
  H   H270      1.0  0.9158999999999999  0.2833999999999999  0.5508  1.0000
  Zn  Zn25      1.0  0.04570999999999997  0.04324999999999998  0.7523599999999998  1.0000
  Zn  Zn26      1.0  0.94595  0.015239999999999997  0.8411699999999998  1.0000
  Zn  Zn27      1.0  0.87276  0.01639  0.7207099999999999  1.0000
  Zn  Zn28      1.0  0.04170999999999998  0.9862299999999998  0.7448199999999999  1.0000
  Zn  Zn29      1.0  0.36546  0.84658  0.27606  1.0000
  Zn  Zn30      1.0  0.45962  0.8212  0.17664  1.0000
  Zn  Zn31      1.0  0.53502  0.81872  0.30069  1.0000
  Zn  Zn32      1.0  0.35872  0.7926099999999998  0.26746  1.0000
  O   O79       1.0  0.16919999999999996  0.03238  0.74126  1.0000
  O   O80       1.0  0.7694999999999997  0.01995  0.76077  1.0000
  O   O81       1.0  0.489  0.54241  0.33068  1.0000
  O   O82       1.0  0.823  0.019699999999999992  0.84796  1.0000
  O   O83       1.0  0.4822  0.5338799999999999  0.10533  1.0000
  O   O84       1.0  0.6336  0.53857  0.33960999999999997  1.0000
  O   O85       1.0  0.4005999999999999  0.8522599999999998  0.15335  1.0000
  O   O86       1.0  0.43  0.8195299999999998  0.25436  1.0000
  O   O87       1.0  0.4109999999999999  0.5528199999999998  0.16736999999999996  1.0000
  O   O88       1.0  0.9796  0.013729999999999996  0.7682599999999999  1.0000
  O   O89       1.0  0.5807  0.8375699999999999  0.1948  1.0000
  O   O90       1.0  0.2398  0.80173  0.28684  1.0000
  O   O91       1.0  0.6405  0.81555  0.26298  1.0000
  O   O92       1.0  0.2601  0.8388699999999998  0.31239  1.0000
  O   O93       1.0  0.42969999999999997  0.8667299999999998  0.3294499999999999  1.0000
  O   O94       1.0  0.1489  0.9944199999999997  0.71679  1.0000
  O   O95       1.0  0.34650000000000003  0.8012299999999999  0.14886  1.0000
  O   O96       1.0  0.3253  0.8671199999999998  0.21784999999999996  1.0000
  O   O97       1.0  0.5607  0.84897  0.3379  1.0000
  O   O98       1.0  0.8391  0.9859799999999997  0.68512  1.0000
  O   O99       1.0  0.059  0.9649099999999998  0.80812  1.0000
  O   O100      1.0  0.3288  0.77154  0.20677  1.0000
  O   O101      1.0  0.97  0.9699299999999997  0.6871499999999999  1.0000
  O   O102      1.0  0.5295  0.7954399999999998  0.356  1.0000
  N   N19       1.0  0.1673  0.9995899999999998  0.9289499999999998  1.0000
  H   H271      1.0  0.11869999999999997  0.007299999999999998  0.9209999999999998  1.0000
  N   N20       1.0  0.23169999999999996  0.8301199999999997  0.08507999999999999  1.0000
  H   H272      1.0  0.2802  0.8229999999999997  0.0967  1.0000
  O   O103      1.0  0.1089  0.9414699999999998  0.7453  1.0000
  N   N21       1.0  0.753  0.0037199999999999993  0.55  1.0000
  H   H273      1.0  0.8039  0.010599999999999997  0.5542  1.0000
  O   O104      1.0  0.405  0.7761099999999999  0.3307999999999999  1.0000
  N   N22       1.0  0.6458999999999999  0.8342799999999998  0.46479999999999994  1.0000
  H   H274      1.0  0.5946  0.8275999999999998  0.4604999999999999  1.0000
  N   N23       1.0  0.1785  0.66797  0.8606999999999999  1.0000
  H   H275      1.0  0.15649999999999997  0.6689  0.8267999999999998  1.0000
  C   C469      1.0  0.2441  0.00325  0.9054  1.0000
  C   C470      1.0  0.7881  0.8427199999999998  0.4562  1.0000
  N   N24       1.0  0.6124  0.6640199999999998  0.651  1.0000
  H   H276      1.0  0.6291  0.6637999999999997  0.6858  1.0000
  C   C471      1.0  0.7617  0.0184  0.8109799999999999  1.0000
  C   C472      1.0  0.1934  0.013449999999999997  0.72023  1.0000
  C   C473      1.0  0.6804  0.00875  0.5784  1.0000
  C   C474      1.0  0.2808  0.01309  0.6984  1.0000
  C   C475      1.0  0.3083  0.98799  0.92964  1.0000
  C   C476      1.0  0.5037  0.00765  0.8596  1.0000
  C   C477      1.0  0.3318  0.03287  0.69861  1.0000
  H   H277      1.0  0.3126  0.04689999999999998  0.7143  1.0000
  C   C478      1.0  0.4136  0.005079999999999999  0.8753499999999999  1.0000
  C   C479      1.0  0.1788  0.9816999999999999  0.9674  1.0000
  C   C480      1.0  0.6112  0.9944499999999997  0.5597  1.0000
  C   C481      1.0  0.6732  0.02497  0.6207  1.0000
  H   H278      1.0  0.7201  0.0348  0.6334  1.0000
  C   C482      1.0  0.3468  0.01936999999999999  0.8499  1.0000
  H   H279      1.0  0.3608  0.029799999999999993  0.822  1.0000
  C   C483      1.0  0.1343  0.8525499999999998  0.0349  1.0000
  C   C484      1.0  0.8888000000000001  0.9700599999999998  0.6753  1.0000
  C   C485      1.0  0.2659  0.97371  0.9681099999999999  1.0000
  C   C486      1.0  0.3884  0.5648999999999998  0.0769  1.0000
  C   C487      1.0  0.7175999999999998  0.8286499999999998  0.43679999999999997  1.0000
  C   C488      1.0  0.293  0.9545  0.0  1.0000
  H   H280      1.0  0.3501  0.9484999999999999  0.9991999999999999  1.0000
  C   C489      1.0  0.5231  0.011429999999999997  0.6254  1.0000
  C   C490      1.0  0.4391  0.01196  0.6528  1.0000
  C   C491      1.0  0.5472  0.8865799999999998  0.3745999999999999  1.0000
  C   C492      1.0  0.6022  0.0134  0.7890999999999999  1.0000
  H   H281      1.0  0.6113  0.015  0.7517999999999999  1.0000
  C   C493      1.0  0.6575  0.012299999999999997  0.8825999999999999  1.0000
  H   H282      1.0  0.7047  0.013299999999999998  0.9095  1.0000
  C   C494      1.0  0.5608  0.54666  0.3547  1.0000
  C   C495      1.0  0.6726  0.014709999999999997  0.8277999999999998  1.0000
  C   C496      1.0  0.5198999999999998  0.009819999999999997  0.8043999999999999  1.0000
  H   H283      1.0  0.4728999999999999  0.0088  0.7773  1.0000
  C   C497      1.0  0.6418  0.9790899999999999  0.5183  1.0000
  C   C498      1.0  0.0919  0.84351  0.08169999999999998  1.0000
  C   C499      1.0  0.3933  0.9892499999999997  0.9151  1.0000
  H   H284      1.0  0.4369  0.9794  0.9322  1.0000
  C   C500      1.0  0.575  0.6519  0.5652  1.0000
  C   C501      1.0  0.2625  0.92411  0.0676  1.0000
  C   C502      1.0  0.12089999999999997  0.9724499999999998  0.0008  1.0000
  H   H285      1.0  0.0639  0.9784999999999998  0.0016999999999999997  1.0000
  C   C503      1.0  0.7583999999999997  0.8579699999999998  0.4967  1.0000
  C   C504      1.0  0.8682  0.84087  0.43399999999999994  1.0000
  H   H286      1.0  0.9150999999999998  0.8505999999999998  0.4471  1.0000
  C   C505      1.0  0.32039999999999996  0.8866799999999998  0.1347  1.0000
  C   C506      1.0  0.2342  0.9442999999999998  0.0331  1.0000
  C   C507      1.0  0.4107999999999999  0.56352  0.023099999999999992  1.0000
  H   H287      1.0  0.4508  0.5519999999999999  0.013  1.0000
  C   C508      1.0  0.4305  0.54959  0.1203  1.0000
  C   C509      1.0  0.99  0.8330299999999998  0.1453  1.0000
  C   C510      1.0  0.5317  0.996  0.5827  1.0000
  H   H288      1.0  0.48399999999999993  0.9865999999999998  0.5693  1.0000
  C   C511      1.0  0.5684  0.56314  0.4013999999999999  1.0000
  C   C512      1.0  0.6571  0.9476199999999998  0.4552  1.0000
  C   C513      1.0  0.5931999999999998  0.025789999999999993  0.6425899999999999  1.0000
  H   H289      1.0  0.5858  0.03669999999999999  0.6708  1.0000
  C   C514      1.0  0.6196000000000002  0.92659  0.4277  1.0000
  C   C515      1.0  0.607  0.9607399999999998  0.4884  1.0000
  H   H290      1.0  0.5476  0.9569  0.4902  1.0000
  C   C516      1.0  0.8528999999999998  0.94897  0.6463  1.0000
  C   C517      1.0  0.5753  0.0085  0.8979999999999998  1.0000
  H   H291      1.0  0.5669  0.006399999999999999  0.9352999999999998  1.0000
  C   C518      1.0  0.4114999999999999  0.03236  0.6758999999999998  1.0000
  H   H292      1.0  0.4467  0.045999999999999985  0.6761999999999999  1.0000
  C   C519      1.0  0.7666  0.94898  0.6233  1.0000
  H   H293      1.0  0.7323  0.9627  0.6255999999999999  1.0000
  C   C520      1.0  0.7822  0.9093999999999999  0.5919  1.0000
  C   C521      1.0  0.9634  0.8234099999999999  0.36869999999999997  1.0000
  C   C522      1.0  0.3111  0.9925299999999998  0.6764999999999999  1.0000
  H   H294      1.0  0.2767  0.9787999999999998  0.6767  1.0000
  C   C523      1.0  0.5002  0.5783399999999997  0.4093  1.0000
  H   H295      1.0  0.4492  0.5777  0.3852  1.0000
  C   C524      1.0  0.017499999999999995  0.8429599999999999  0.3698  1.0000
  H   H296      1.0  0.9978  0.8573  0.3837  1.0000
  C   C525      1.0  0.5652  0.63554  0.5235  1.0000
  H   H297      1.0  0.5432  0.6403  0.4882  1.0000
  C   C526      1.0  0.8796  0.8249799999999998  0.3931  1.0000
  C   C527      1.0  0.8998  0.83204  0.16279999999999997  1.0000
  C   C528      1.0  0.7315  0.92958  0.5976  1.0000
  H   H298      1.0  0.6725  0.9297  0.5836  1.0000
  C   C529      1.0  0.6351999999999999  0.8872199999999998  0.3931  1.0000
  H   H299      1.0  0.6709  0.874  0.3883999999999999  1.0000
  C   C530      1.0  0.1458  0.8917499999999998  0.9124  1.0000
  C   C531      1.0  0.10519999999999996  0.9123999999999999  0.9265999999999999  1.0000
  H   H300      1.0  0.08960000000000001  0.9145999999999997  0.9627  1.0000
  C   C532      1.0  0.23649999999999993  0.9224199999999998  0.1208  1.0000
  H   H301      1.0  0.1991  0.9338999999999997  0.134  1.0000
  C   C533      1.0  0.1501  0.9536099999999997  0.0332  1.0000
  H   H302      1.0  0.11119999999999998  0.9467999999999998  0.05649999999999999  1.0000
  C   C534      1.0  0.6429  0.5639899999999998  0.4376  1.0000
  H   H303      1.0  0.69  0.5537  0.4331  1.0000
  C   C535      1.0  0.3902999999999999  0.9918099999999997  0.6544  1.0000
  H   H304      1.0  0.4109999999999999  0.9775999999999998  0.6405  1.0000
  C   C536      1.0  0.5103  0.86553  0.3453  1.0000
  C   C537      1.0  0.3492  0.8672999999999997  0.17029999999999998  1.0000
  C   C538      1.0  0.532  0.9254799999999997  0.409  1.0000
  H   H305      1.0  0.4961  0.9385999999999998  0.414  1.0000
  C   C539      1.0  0.1567  0.8304099999999998  0.1112  1.0000
  C   C540      1.0  0.12869999999999998  0.82138  0.32809999999999995  1.0000
  C   C541      1.0  0.4959  0.9060299999999998  0.3835  1.0000
  H   H306      1.0  0.4359  0.9057999999999998  0.37189999999999995  1.0000
  C   C542      1.0  0.6692  0.85204  0.5001  1.0000
  C   C543      1.0  0.8072  0.81055  0.3753  1.0000
  H   H307      1.0  0.8148  0.7994  0.3475999999999999  1.0000
  C   C544      1.0  0.6476  0.57976  0.4797  1.0000
  H   H308      1.0  0.6985  0.5803  0.5038  1.0000
  C   C545      1.0  0.5876  0.6122199999999999  0.5334  1.0000
  C   C546      1.0  0.7291  0.9856799999999998  0.5136  1.0000
  C   C547      1.0  0.9038  0.9292699999999999  0.6398  1.0000
  H   H309      1.0  0.963  0.9293  0.6534  1.0000
  C   C548      1.0  0.5791  0.5949299999999997  0.4876  1.0000
  C   C549      1.0  0.2747  0.8470399999999998  0.9981  1.0000
  H   H310      1.0  0.3301  0.8397999999999998  0.9991  1.0000
  C   C550      1.0  0.2788  0.61368  0.9585999999999999  1.0000
  C   C551      1.0  0.7275  0.8119499999999997  0.39569999999999994  1.0000
  H   H311      1.0  0.6809  0.8021  0.3828  1.0000
  C   C552      1.0  0.219  0.8426299999999998  0.0381  1.0000
  C   C553      1.0  0.263  0.01864  0.8639999999999999  1.0000
  H   H312      1.0  0.2193  0.028199999999999992  0.8463999999999998  1.0000
  C   C554      1.0  0.088  0.92947  0.8888  1.0000
  H   H313      1.0  0.0597  0.9434  0.8985  1.0000
  C   C555      1.0  0.09219999999999996  0.9450799999999998  0.7927999999999998  1.0000
  C   C556      1.0  0.5053  0.59426  0.4513  1.0000
  H   H314      1.0  0.4586  0.6047  0.4554999999999999  1.0000
  C   C557      1.0  0.1401  0.8200199999999997  0.1603  1.0000
  H   H315      1.0  0.18449999999999994  0.8119999999999998  0.1816  1.0000
  C   C558      1.0  0.344  0.8885799999999998  0.08139999999999999  1.0000
  H   H316      1.0  0.3798999999999999  0.8769  0.0674  1.0000
  C   C559      1.0  0.112  0.92659  0.8355  1.0000
  C   C560      1.0  0.3159  0.90701  0.049  1.0000
  H   H317      1.0  0.3336  0.9079999999999998  0.0132  1.0000
  C   C561      1.0  0.07399999999999995  0.8017  0.32659999999999995  1.0000
  H   H318      1.0  0.0928  0.7875  0.3116  1.0000
  C   C562      1.0  0.2652999999999999  0.9042199999999999  0.1533  1.0000
  H   H319      1.0  0.2479  0.9032999999999998  0.18919999999999998  1.0000
  C   C563      1.0  0.8681  0.9093899999999998  0.6134  1.0000
  H   H320      1.0  0.9027  0.8957999999999999  0.6102  1.0000
  C   C564      1.0  0.0581  0.8216999999999998  0.1768  1.0000
  H   H321      1.0  0.0464  0.8149999999999998  0.21059999999999995  1.0000
  C   C565      1.0  0.7302  0.8285099999999997  0.19759999999999997  1.0000
  C   C566      1.0  0.7439  0.8890099999999997  0.561  1.0000
  C   C567      1.0  0.795  0.87635  0.5279  1.0000
  H   H322      1.0  0.8545  0.8801999999999998  0.5264  1.0000
  C   C568      1.0  0.009600000000000001  0.8447599999999997  0.0984  1.0000
  H   H323      1.0  0.9662  0.8535999999999998  0.07819999999999999  1.0000
  C   C569      1.0  0.6441  0.8273499999999998  0.2198  1.0000
  C   C570      1.0  0.2303  0.6784499999999998  0.9455999999999999  1.0000
  C   C571      1.0  0.3003  0.7644499999999997  0.11349999999999998  1.0000
  C   C572      1.0  0.2156  0.8204599999999999  0.3081  1.0000
  C   C573      1.0  0.6184000000000001  0.6055799999999998  0.5853  1.0000
  H   H324      1.0  0.6343999999999997  0.5896999999999998  0.5917  1.0000
  C   C574      1.0  0.1004  0.8417699999999998  0.3507  1.0000
  H   H325      1.0  0.1372  0.8550999999999997  0.3533  1.0000
  C   C575      1.0  0.32809999999999995  0.78005  0.1599  1.0000
  C   C576      1.0  0.3128  0.5954999999999998  0.999  1.0000
  C   C577      1.0  0.9947  0.8027999999999997  0.3464  1.0000
  H   H326      1.0  0.9593  0.7891999999999998  0.345  1.0000
  C   C578      1.0  0.1654  0.8734999999999999  0.9549999999999997  1.0000
  C   C579      1.0  0.742  0.9551399999999998  0.4493  1.0000
  H   H327      1.0  0.7754  0.9469999999999997  0.4248  1.0000
  C   C580      1.0  0.10969999999999999  0.86833  0.9931999999999999  1.0000
  H   H328      1.0  0.05409999999999997  0.8753999999999997  0.9915999999999998  1.0000
  C   C581      1.0  0.3739  0.5791099999999999  0.9848  1.0000
  H   H329      1.0  0.39039999999999986  0.5785999999999998  0.9487  1.0000
  C   C582      1.0  0.2748  0.6364699999999998  0.9762  1.0000
  H   H330      1.0  0.2944  0.6403  0.0124  1.0000
  C   C583      1.0  0.2871  0.596  0.050499999999999996  1.0000
  H   H331      1.0  0.2436  0.6067999999999999  0.059199999999999996  1.0000
  C   C584      1.0  0.271  0.74124  0.1236  1.0000
  H   H332      1.0  0.2679  0.7358999999999998  0.1597  1.0000
  C   C585      1.0  0.3238  0.5809699999999998  0.09059999999999999  1.0000
  H   H333      1.0  0.3058  0.5814999999999998  0.1264  1.0000
  C   C586      1.0  0.8322999999999998  0.84595  0.1406  1.0000
  H   H334      1.0  0.8431999999999998  0.8568999999999999  0.1132  1.0000
  C   C587      1.0  0.6194  0.8643699999999997  0.5354  1.0000
  H   H335      1.0  0.5604  0.8603  0.5387  1.0000
  C   C588      1.0  0.6266  0.62128  0.6284999999999998  1.0000
  H   H336      1.0  0.6454  0.6162  0.664  1.0000
  C   C589      1.0  0.2475  0.8622699999999999  0.9567  1.0000
  H   H337      1.0  0.2846  0.8653  0.9286999999999997  1.0000
  C   C590      1.0  0.24209999999999995  0.6539499999999998  0.9412999999999998  1.0000
  C   C591      1.0  0.6702  0.9069499999999999  0.4181  1.0000
  H   H338      1.0  0.7304  0.9073  0.4291  1.0000
  C   C592      1.0  0.207  0.6477999999999998  0.8876  1.0000
  C   C593      1.0  0.7797999999999998  0.9742699999999997  0.4782  1.0000
  H   H339      1.0  0.8375  0.9791  0.4737  1.0000
  C   C594      1.0  0.1725  0.71018  0.8886  1.0000
  H   H340      1.0  0.1486  0.7157  0.8544  1.0000
  C   C595      1.0  0.6064  0.6448499999999998  0.6177999999999999  1.0000
  C   C596      1.0  0.5383  0.69346  0.5288  1.0000
  H   H341      1.0  0.5221  0.6890999999999998  0.4922999999999999  1.0000
  C   C597      1.0  0.5369  0.7173999999999998  0.5443  1.0000
  C   C598      1.0  0.2464  0.6082499999999997  0.9056  1.0000
  H   H342      1.0  0.2486  0.5924999999999998  0.8938  1.0000
  C   C599      1.0  0.2293  0.7178999999999999  0.9812999999999997  1.0000
  C   C600      1.0  0.5632  0.67666  0.5666  1.0000
  C   C601      1.0  0.2479  0.6943599999999998  0.9891  1.0000
  H   H343      1.0  0.2722  0.6888999999999997  0.0232  1.0000
  C   C602      1.0  0.2115  0.6249599999999997  0.8699  1.0000
  H   H344      1.0  0.1911  0.6207999999999999  0.8339  1.0000
  C   C603      1.0  0.6578  0.88257  0.5656  1.0000
  H   H345      1.0  0.6246999999999999  0.8909  0.59  1.0000
  C   C604      1.0  0.4297  0.74682  0.42  1.0000
  H   H346      1.0  0.3807  0.7442999999999997  0.395  1.0000
  C   C605      1.0  0.2475  0.72679  0.0805  1.0000
  H   H347      1.0  0.2285  0.7112999999999998  0.0873  1.0000
  C   C606      1.0  0.7952  0.81307  0.2162  1.0000
  H   H348      1.0  0.7822  0.8012999999999999  0.24139999999999998  1.0000
  C   C607      1.0  0.4812  0.7656  0.4133  1.0000
  C   C608      1.0  0.2509  0.7343199999999998  0.0269  1.0000
  C   C609      1.0  0.3036  0.77176  0.0608  1.0000
  H   H349      1.0  0.3215  0.7872999999999999  0.0538  1.0000
  C   C610      1.0  0.5137  0.73495  0.5024  1.0000
  C   C611      1.0  0.1531  0.9060199999999998  0.8221  1.0000
  H   H350      1.0  0.1707  0.9038999999999998  0.7864999999999998  1.0000
  C   C612      1.0  0.5898  0.7065999999999998  0.6371  1.0000
  H   H351      1.0  0.6061  0.7107999999999998  0.6735999999999998  1.0000
  C   C613      1.0  0.5664  0.72389  0.5977  1.0000
  H   H352      1.0  0.5706  0.7399999999999999  0.6072  1.0000
  C   C614      1.0  0.191  0.6865599999999997  0.8971  1.0000
  C   C615      1.0  0.4466  0.7310299999999997  0.46279999999999993  1.0000
  H   H353      1.0  0.4117  0.7173999999999998  0.4647  1.0000
  C   C616      1.0  0.2809  0.7567599999999999  0.0176  1.0000
  H   H354      1.0  0.2860999999999999  0.7618999999999998  0.9814999999999999  1.0000
  C   C617      1.0  0.7501  0.8441699999999998  0.1575  1.0000
  H   H355      1.0  0.7056  0.8538999999999999  0.1412  1.0000
  C   C618      1.0  0.16819999999999996  0.8887499999999998  0.8600999999999998  1.0000
  H   H356      1.0  0.1945  0.8744999999999998  0.8502  1.0000
  C   C619      1.0  0.5882  0.6837799999999998  0.6212  1.0000
  C   C620      1.0  0.1902  0.7252999999999997  0.9315999999999999  1.0000
  H   H357      1.0  0.1752  0.7412999999999997  0.9271  1.0000
  C   C621      1.0  0.4704  0.78017  0.3632  1.0000
  C   C622      1.0  0.8773  0.8142499999999998  0.1998  1.0000
  H   H358      1.0  0.9196  0.8031999999999998  0.2129  1.0000
  C   C623      1.0  0.5626  0.7554599999999998  0.498  1.0000
  H   H359      1.0  0.6059  0.7593999999999999  0.5259  1.0000
  C   C624      1.0  0.5479  0.7701599999999997  0.4528  1.0000
  H   H360      1.0  0.5841  0.7833999999999998  0.4491999999999999  1.0000
