data_image0
_chemical_formula_structural       Zn32H208C352O104
_chemical_formula_sum              "Zn32 H208 C352 O104"
_cell_length_a       16.748
_cell_length_b       24.518
_cell_length_c       33.291
_cell_angle_alpha    90.0
_cell_angle_beta     90.0
_cell_angle_gamma    90.0

_space_group_name_H-M_alt    "P 1"
_space_group_IT_number       1

loop_
  _space_group_symop_operation_xyz
  'x, y, z'

loop_
  _atom_site_type_symbol
  _atom_site_label
  _atom_site_symmetry_multiplicity
  _atom_site_fract_x
  _atom_site_fract_y
  _atom_site_fract_z
  _atom_site_occupancy
  Zn  Zn1       1.0  0.8973699999999998  0.7753500000000001  0.84927  1.0000
  Zn  Zn2       1.0  0.04382  0.28041  0.07038  1.0000
  Zn  Zn3       1.0  0.04327  0.69441  0.84771  1.0000
  Zn  Zn4       1.0  0.93186  0.19073  0.1137  1.0000
  Zn  Zn5       1.0  0.39737  0.72465  0.65073  1.0000
  Zn  Zn6       1.0  0.54382  0.21959  0.42962  1.0000
  Zn  Zn7       1.0  0.54327  0.80559  0.65229  1.0000
  Zn  Zn8       1.0  0.43185999999999997  0.30927  0.3863  1.0000
  Zn  Zn9       1.0  0.60263  0.7753500000000001  0.15072999999999998  1.0000
  Zn  Zn10      1.0  0.45618  0.28041  0.9296199999999998  1.0000
  Zn  Zn11      1.0  0.45673  0.69441  0.15229  1.0000
  Zn  Zn12      1.0  0.56814  0.19073  0.8863  1.0000
  Zn  Zn13      1.0  0.10263  0.72465  0.3492699999999999  1.0000
  Zn  Zn14      1.0  0.9561799999999999  0.21959  0.57038  1.0000
  Zn  Zn15      1.0  0.9567299999999999  0.80559  0.34771  1.0000
  Zn  Zn16      1.0  0.06814  0.30927  0.6137  1.0000
  Zn  Zn17      1.0  0.10263  0.22465000000000002  0.15072999999999998  1.0000
  Zn  Zn18      1.0  0.9561799999999999  0.71959  0.9296199999999998  1.0000
  Zn  Zn19      1.0  0.9567299999999999  0.30559  0.15229  1.0000
  Zn  Zn20      1.0  0.06814  0.80927  0.8863  1.0000
  Zn  Zn21      1.0  0.60263  0.27535  0.3492699999999999  1.0000
  Zn  Zn22      1.0  0.45618  0.78041  0.57038  1.0000
  Zn  Zn23      1.0  0.45673  0.19441  0.34771  1.0000
  Zn  Zn24      1.0  0.56814  0.69073  0.6137  1.0000
  Zn  Zn25      1.0  0.39737  0.22465000000000002  0.84927  1.0000
  Zn  Zn26      1.0  0.54382  0.71959  0.07038  1.0000
  Zn  Zn27      1.0  0.54327  0.30559  0.84771  1.0000
  Zn  Zn28      1.0  0.43185999999999997  0.80927  0.1137  1.0000
  Zn  Zn29      1.0  0.8973699999999998  0.27535  0.65073  1.0000
  Zn  Zn30      1.0  0.04382  0.78041  0.42962  1.0000
  Zn  Zn31      1.0  0.04327  0.19441  0.65229  1.0000
  Zn  Zn32      1.0  0.93186  0.69073  0.3863  1.0000
  H   H1        1.0  0.8327  0.147  0.006099999999999999  1.0000
  H   H2        1.0  0.7877  0.1114  0.9456  1.0000
  H   H3        1.0  0.9749999999999999  0.179  0.8889  1.0000
  H   H4        1.0  0.02  0.2145  0.9493999999999999  1.0000
  H   H5        1.0  0.7828999999999998  0.1183  0.8747  1.0000
  H   H6        1.0  0.7628  0.0319  0.8417999999999998  1.0000
  H   H7        1.0  0.7929  0.9397  0.8371  1.0000
  H   H8        1.0  0.9949  0.9646  0.8996  1.0000
  H   H9        1.0  0.9649  0.0568  0.9042999999999998  1.0000
  H   H10       1.0  0.9685  0.0939  0.8229  1.0000
  H   H11       1.0  0.7849999999999998  0.1979  0.8327  1.0000
  H   H12       1.0  0.7405  0.6636000000000001  0.9666999999999999  1.0000
  H   H13       1.0  0.6177  0.6246  0.9813  1.0000
  H   H14       1.0  0.527  0.6876000000000001  0.8796  1.0000
  H   H15       1.0  0.6498999999999998  0.7266000000000001  0.8649999999999998  1.0000
  H   H16       1.0  0.4752999999999999  0.6245  0.9720999999999999  1.0000
  H   H17       1.0  0.4076  0.6059  0.8723  1.0000
  H   H18       1.0  0.3883  0.7015000000000001  0.9691999999999998  1.0000
  H   H19       1.0  0.0062  0.1338  0.7665999999999997  1.0000
  H   H20       1.0  0.8255  0.2385  0.7728  1.0000
  H   H21       1.0  0.2901  0.6412  0.8466999999999999  1.0000
  H   H22       1.0  0.2785  0.7411  0.9415  1.0000
  H   H23       1.0  0.5603  0.4744  0.8681  1.0000
  H   H24       1.0  0.5582  0.5666  0.884  1.0000
  H   H25       1.0  0.4226  0.5365  0.9793999999999999  1.0000
  H   H26       1.0  0.4277  0.4444  0.9653  1.0000
  H   H27       1.0  0.3327  0.35300000000000004  0.4939  1.0000
  H   H28       1.0  0.2876999999999999  0.38860000000000006  0.5544  1.0000
  H   H29       1.0  0.475  0.321  0.6111  1.0000
  H   H30       1.0  0.52  0.2855  0.5506  1.0000
  H   H31       1.0  0.2829  0.3817000000000001  0.6253  1.0000
  H   H32       1.0  0.2628  0.4681  0.6582  1.0000
  H   H33       1.0  0.2928999999999999  0.5603  0.6629  1.0000
  H   H34       1.0  0.49489999999999995  0.5354  0.6004  1.0000
  H   H35       1.0  0.46489999999999987  0.4432  0.5957  1.0000
  H   H36       1.0  0.4685  0.4061  0.6771  1.0000
  H   H37       1.0  0.285  0.3021  0.6673  1.0000
  H   H38       1.0  0.24049999999999996  0.8364  0.5333  1.0000
  H   H39       1.0  0.1177  0.8754  0.5187  1.0000
  H   H40       1.0  0.027  0.8124  0.6204  1.0000
  H   H41       1.0  0.1499  0.7734  0.635  1.0000
  H   H42       1.0  0.9752999999999998  0.8755000000000001  0.5278999999999998  1.0000
  H   H43       1.0  0.9075999999999997  0.8941000000000001  0.6276999999999998  1.0000
  H   H44       1.0  0.8883  0.7985  0.5307999999999998  1.0000
  H   H45       1.0  0.5062  0.3662000000000001  0.7334  1.0000
  H   H46       1.0  0.3254999999999999  0.2615  0.7272  1.0000
  H   H47       1.0  0.7901  0.8588  0.6533  1.0000
  H   H48       1.0  0.7785  0.7589000000000001  0.5585  1.0000
  H   H49       1.0  0.0603  0.0256  0.6319  1.0000
  H   H50       1.0  0.0582  0.9334  0.616  1.0000
  H   H51       1.0  0.9225999999999998  0.9635  0.5206  1.0000
  H   H52       1.0  0.9277  0.05560000000000001  0.5347  1.0000
  H   H53       1.0  0.6672999999999998  0.147  0.9939  1.0000
  H   H54       1.0  0.7123  0.1114  0.0544  1.0000
  H   H55       1.0  0.525  0.179  0.1111  1.0000
  H   H56       1.0  0.4799999999999999  0.2145  0.0506  1.0000
  H   H57       1.0  0.7171  0.1183  0.1253  1.0000
  H   H58       1.0  0.7371999999999997  0.0319  0.1582  1.0000
  H   H59       1.0  0.7070999999999997  0.9397  0.1629  1.0000
  H   H60       1.0  0.5051  0.9646  0.1004  1.0000
  H   H61       1.0  0.5351  0.0568  0.0957  1.0000
  H   H62       1.0  0.5315  0.0939  0.17709999999999998  1.0000
  H   H63       1.0  0.715  0.1979  0.1673  1.0000
  H   H64       1.0  0.7594999999999997  0.6636000000000001  0.03329999999999999  1.0000
  H   H65       1.0  0.8823  0.6246  0.0187  1.0000
  H   H66       1.0  0.9729999999999999  0.6876000000000001  0.1204  1.0000
  H   H67       1.0  0.8501  0.7266000000000001  0.135  1.0000
  H   H68       1.0  0.0247  0.6245  0.0279  1.0000
  H   H69       1.0  0.0924  0.6059  0.12769999999999998  1.0000
  H   H70       1.0  0.11169999999999997  0.7015000000000001  0.030799999999999998  1.0000
  H   H71       1.0  0.49379999999999996  0.1338  0.2334  1.0000
  H   H72       1.0  0.6744999999999998  0.2385  0.2272  1.0000
  H   H73       1.0  0.2099  0.6412  0.1533  1.0000
  H   H74       1.0  0.2215  0.7411  0.0585  1.0000
  H   H75       1.0  0.9397  0.4744  0.13189999999999993  1.0000
  H   H76       1.0  0.9418  0.5666  0.11599999999999998  1.0000
  H   H77       1.0  0.0774  0.5365  0.0206  1.0000
  H   H78       1.0  0.0723  0.4444  0.0347  1.0000
  H   H79       1.0  0.1673  0.35300000000000004  0.5061  1.0000
  H   H80       1.0  0.21229999999999993  0.38860000000000006  0.4456  1.0000
  H   H81       1.0  0.025  0.321  0.3889  1.0000
  H   H82       1.0  0.98  0.2855  0.4493999999999999  1.0000
  H   H83       1.0  0.2171  0.3817000000000001  0.3747  1.0000
  H   H84       1.0  0.2372  0.4681  0.3418  1.0000
  H   H85       1.0  0.20709999999999995  0.5603  0.3371  1.0000
  H   H86       1.0  0.0051  0.5354  0.3996  1.0000
  H   H87       1.0  0.0351  0.4432  0.4043  1.0000
  H   H88       1.0  0.0315  0.4061  0.3229  1.0000
  H   H89       1.0  0.215  0.3021  0.3327  1.0000
  H   H90       1.0  0.2595  0.8364  0.4667  1.0000
  H   H91       1.0  0.3823  0.8754  0.4813  1.0000
  H   H92       1.0  0.47299999999999986  0.8124  0.3796  1.0000
  H   H93       1.0  0.35009999999999997  0.7734  0.365  1.0000
  H   H94       1.0  0.5247  0.8755000000000001  0.47209999999999996  1.0000
  H   H95       1.0  0.5924  0.8941000000000001  0.3722999999999999  1.0000
  H   H96       1.0  0.6117  0.7985  0.4692  1.0000
  H   H97       1.0  0.9938  0.3662000000000001  0.2666  1.0000
  H   H98       1.0  0.1745  0.2615  0.2728  1.0000
  H   H99       1.0  0.7099  0.8588  0.3466999999999999  1.0000
  H   H100      1.0  0.7215  0.7589000000000001  0.4415  1.0000
  H   H101      1.0  0.43969999999999987  0.0256  0.36809999999999987  1.0000
  H   H102      1.0  0.4418  0.9334  0.38399999999999995  1.0000
  H   H103      1.0  0.5774  0.9635  0.4794  1.0000
  H   H104      1.0  0.5723  0.05560000000000001  0.46529999999999994  1.0000
  H   H105      1.0  0.1673  0.853  0.9939  1.0000
  H   H106      1.0  0.21229999999999993  0.8886  0.0544  1.0000
  H   H107      1.0  0.025  0.821  0.1111  1.0000
  H   H108      1.0  0.98  0.7855  0.0506  1.0000
  H   H109      1.0  0.2171  0.8817000000000003  0.1253  1.0000
  H   H110      1.0  0.2372  0.9681  0.1582  1.0000
  H   H111      1.0  0.20709999999999995  0.0603  0.1629  1.0000
  H   H112      1.0  0.0051  0.0354  0.1004  1.0000
  H   H113      1.0  0.0351  0.9432  0.0957  1.0000
  H   H114      1.0  0.0315  0.9061  0.17709999999999998  1.0000
  H   H115      1.0  0.215  0.8021  0.1673  1.0000
  H   H116      1.0  0.2595  0.3364000000000001  0.03329999999999999  1.0000
  H   H117      1.0  0.3823  0.37540000000000007  0.0187  1.0000
  H   H118      1.0  0.47299999999999986  0.31240000000000007  0.1204  1.0000
  H   H119      1.0  0.35009999999999997  0.2734  0.135  1.0000
  H   H120      1.0  0.5247  0.3755  0.0279  1.0000
  H   H121      1.0  0.5924  0.3941  0.12769999999999998  1.0000
  H   H122      1.0  0.6117  0.2985  0.030799999999999998  1.0000
  H   H123      1.0  0.9938  0.8662  0.2334  1.0000
  H   H124      1.0  0.1745  0.7615  0.2272  1.0000
  H   H125      1.0  0.7099  0.35880000000000006  0.1533  1.0000
  H   H126      1.0  0.7215  0.2589  0.0585  1.0000
  H   H127      1.0  0.43969999999999987  0.5256  0.13189999999999993  1.0000
  H   H128      1.0  0.4418  0.4334000000000001  0.11599999999999998  1.0000
  H   H129      1.0  0.5774  0.4635  0.0206  1.0000
  H   H130      1.0  0.5723  0.5556  0.0347  1.0000
  H   H131      1.0  0.6672999999999998  0.647  0.5061  1.0000
  H   H132      1.0  0.7123  0.6114  0.4456  1.0000
  H   H133      1.0  0.525  0.679  0.3889  1.0000
  H   H134      1.0  0.4799999999999999  0.7145  0.4493999999999999  1.0000
  H   H135      1.0  0.7171  0.6183  0.3747  1.0000
  H   H136      1.0  0.7371999999999997  0.5319  0.3418  1.0000
  H   H137      1.0  0.7070999999999997  0.4397  0.3371  1.0000
  H   H138      1.0  0.5051  0.4646  0.3996  1.0000
  H   H139      1.0  0.5351  0.5568  0.4043  1.0000
  H   H140      1.0  0.5315  0.5939  0.3229  1.0000
  H   H141      1.0  0.715  0.6979000000000001  0.3327  1.0000
  H   H142      1.0  0.7594999999999997  0.16360000000000002  0.4667  1.0000
  H   H143      1.0  0.8823  0.1246  0.4813  1.0000
  H   H144      1.0  0.9729999999999999  0.1876  0.3796  1.0000
  H   H145      1.0  0.8501  0.2266  0.365  1.0000
  H   H146      1.0  0.0247  0.12450000000000001  0.47209999999999996  1.0000
  H   H147      1.0  0.0924  0.1059  0.3722999999999999  1.0000
  H   H148      1.0  0.11169999999999997  0.20150000000000004  0.4692  1.0000
  H   H149      1.0  0.49379999999999996  0.6338  0.2666  1.0000
  H   H150      1.0  0.6744999999999998  0.7385  0.2728  1.0000
  H   H151      1.0  0.2099  0.1412  0.3466999999999999  1.0000
  H   H152      1.0  0.2215  0.2411  0.4415  1.0000
  H   H153      1.0  0.9397  0.9744000000000002  0.36809999999999987  1.0000
  H   H154      1.0  0.9418  0.0666  0.38399999999999995  1.0000
  H   H155      1.0  0.0774  0.0365  0.4794  1.0000
  H   H156      1.0  0.0723  0.9444  0.46529999999999994  1.0000
  H   H157      1.0  0.3327  0.853  0.006099999999999999  1.0000
  H   H158      1.0  0.2876999999999999  0.8886  0.9456  1.0000
  H   H159      1.0  0.475  0.821  0.8889  1.0000
  H   H160      1.0  0.52  0.7855  0.9493999999999999  1.0000
  H   H161      1.0  0.2829  0.8817000000000003  0.8747  1.0000
  H   H162      1.0  0.2628  0.9681  0.8417999999999998  1.0000
  H   H163      1.0  0.2928999999999999  0.0603  0.8371  1.0000
  H   H164      1.0  0.49489999999999995  0.0354  0.8996  1.0000
  H   H165      1.0  0.46489999999999987  0.9432  0.9042999999999998  1.0000
  H   H166      1.0  0.4685  0.9061  0.8229  1.0000
  H   H167      1.0  0.285  0.8021  0.8327  1.0000
  H   H168      1.0  0.24049999999999996  0.3364000000000001  0.9666999999999999  1.0000
  H   H169      1.0  0.1177  0.37540000000000007  0.9813  1.0000
  H   H170      1.0  0.027  0.31240000000000007  0.8796  1.0000
  H   H171      1.0  0.1499  0.2734  0.8649999999999998  1.0000
  H   H172      1.0  0.9752999999999998  0.3755  0.9720999999999999  1.0000
  H   H173      1.0  0.9075999999999997  0.3941  0.8723  1.0000
  H   H174      1.0  0.8883  0.2985  0.9691999999999998  1.0000
  H   H175      1.0  0.5062  0.8662  0.7665999999999997  1.0000
  H   H176      1.0  0.3254999999999999  0.7615  0.7728  1.0000
  H   H177      1.0  0.7901  0.35880000000000006  0.8466999999999999  1.0000
  H   H178      1.0  0.7785  0.2589  0.9415  1.0000
  H   H179      1.0  0.0603  0.5256  0.8681  1.0000
  H   H180      1.0  0.0582  0.4334000000000001  0.884  1.0000
  H   H181      1.0  0.9225999999999998  0.4635  0.9793999999999999  1.0000
  H   H182      1.0  0.9277  0.5556  0.9653  1.0000
  H   H183      1.0  0.8327  0.647  0.4939  1.0000
  H   H184      1.0  0.7877  0.6114  0.5544  1.0000
  H   H185      1.0  0.9749999999999999  0.679  0.6111  1.0000
  H   H186      1.0  0.02  0.7145  0.5506  1.0000
  H   H187      1.0  0.7828999999999998  0.6183  0.6253  1.0000
  H   H188      1.0  0.7628  0.5319  0.6582  1.0000
  H   H189      1.0  0.7929  0.4397  0.6629  1.0000
  H   H190      1.0  0.9949  0.4646  0.6004  1.0000
  H   H191      1.0  0.9649  0.5568  0.5957  1.0000
  H   H192      1.0  0.9685  0.5939  0.6771  1.0000
  H   H193      1.0  0.7849999999999998  0.6979000000000001  0.6673  1.0000
  H   H194      1.0  0.7405  0.16360000000000002  0.5333  1.0000
  H   H195      1.0  0.6177  0.1246  0.5187  1.0000
  H   H196      1.0  0.527  0.1876  0.6204  1.0000
  H   H197      1.0  0.6498999999999998  0.2266  0.635  1.0000
  H   H198      1.0  0.4752999999999999  0.12450000000000001  0.5278999999999998  1.0000
  H   H199      1.0  0.4076  0.1059  0.6276999999999998  1.0000
  H   H200      1.0  0.3883  0.20150000000000004  0.5307999999999998  1.0000
  H   H201      1.0  0.0062  0.6338  0.7334  1.0000
  H   H202      1.0  0.8255  0.7385  0.7272  1.0000
  H   H203      1.0  0.2901  0.1412  0.6533  1.0000
  H   H204      1.0  0.2785  0.2411  0.5585  1.0000
  H   H205      1.0  0.5603  0.9744000000000002  0.6319  1.0000
  H   H206      1.0  0.5582  0.0666  0.616  1.0000
  H   H207      1.0  0.4226  0.0365  0.5206  1.0000
  H   H208      1.0  0.4277  0.9444  0.5347  1.0000
  C   C1        1.0  0.9594999999999999  0.20652  0.02234  1.0000
  C   C2        1.0  0.93081  0.18427  0.9837299999999999  1.0000
  C   C3        1.0  0.8612399999999998  0.15339  0.98261  1.0000
  C   C4        1.0  0.83428  0.13211  0.94637  1.0000
  C   C5        1.0  0.87689  0.1417  0.9112399999999998  1.0000
  C   C6        1.0  0.94646  0.17258  0.91236  1.0000
  C   C7        1.0  0.97342  0.19387  0.9485999999999998  1.0000
  C   C8        1.0  0.8410999999999997  0.11406000000000002  0.8739299999999999  1.0000
  C   C9        1.0  0.8608799999999999  0.05344000000000001  0.87353  1.0000
  C   C10       1.0  0.80936  0.01837  0.85341  1.0000
  C   C11       1.0  0.8273699999999998  0.9631600000000002  0.85061  1.0000
  C   C12       1.0  0.89689  0.94302  0.86792  1.0000
  C   C13       1.0  0.94841  0.97808  0.8880399999999998  1.0000
  C   C14       1.0  0.9304  0.03329  0.89084  1.0000
  C   C15       1.0  0.8729  0.14157  0.8352299999999998  1.0000
  C   C16       1.0  0.9388999999999997  0.12310000000000001  0.8131999999999998  1.0000
  C   C17       1.0  0.8297  0.1846  0.8192099999999998  1.0000
  C   C18       1.0  0.7867  0.72197  0.90522  1.0000
  C   C19       1.0  0.70736  0.69899  0.9144099999999997  1.0000
  C   C20       1.0  0.69772  0.66844  0.94925  1.0000
  C   C21       1.0  0.6241299999999999  0.64506  0.95799  1.0000
  C   C22       1.0  0.56019  0.65224  0.93191  1.0000
  C   C23       1.0  0.5698199999999999  0.68279  0.8970699999999998  1.0000
  C   C24       1.0  0.64341  0.70617  0.88832  1.0000
  C   C25       1.0  0.48149999999999993  0.62218  0.94287  1.0000
  C   C26       1.0  0.409  0.64824  0.9243299999999998  1.0000
  C   C27       1.0  0.3797999999999999  0.632  0.8869099999999998  1.0000
  C   C28       1.0  0.3695  0.6894700000000001  0.94442  1.0000
  C   C29       1.0  0.937  0.2085  0.72119  1.0000
  C   C30       1.0  0.9166999999999997  0.18767000000000003  0.7607699999999997  1.0000
  C   C31       1.0  0.9598999999999999  0.146  0.7791499999999998  1.0000
  C   C32       1.0  0.8531  0.2084  0.7825599999999998  1.0000
  C   C33       1.0  0.19249999999999995  0.7172000000000001  0.8768899999999997  1.0000
  C   C34       1.0  0.27079999999999993  0.6950900000000001  0.8918699999999998  1.0000
  C   C35       1.0  0.3102  0.6539  0.87104  1.0000
  C   C36       1.0  0.3031  0.7125  0.92799  1.0000
  C   C37       1.0  0.9179999999999998  0.8832300000000002  0.86599  1.0000
  C   C38       1.0  0.5006999999999998  0.39043  0.90868  1.0000
  C   C39       1.0  0.49489999999999995  0.44958  0.9157799999999998  1.0000
  C   C40       1.0  0.5331  0.48648  0.8908  1.0000
  C   C41       1.0  0.5304  0.5420200000000001  0.9000899999999997  1.0000
  C   C42       1.0  0.48839999999999995  0.56108  0.93199  1.0000
  C   C43       1.0  0.45039999999999997  0.5242  0.95696  1.0000
  C   C44       1.0  0.45379999999999987  0.4688900000000001  0.94849  1.0000
  C   C45       1.0  0.4595  0.2934800000000001  0.4776599999999999  1.0000
  C   C46       1.0  0.43081  0.31573  0.5162699999999999  1.0000
  C   C47       1.0  0.36124  0.34661000000000003  0.51739  1.0000
  C   C48       1.0  0.33428  0.36789000000000005  0.55363  1.0000
  C   C49       1.0  0.37689  0.3583  0.58876  1.0000
  C   C50       1.0  0.44646  0.32742  0.58764  1.0000
  C   C51       1.0  0.47342  0.30613  0.5514  1.0000
  C   C52       1.0  0.3411  0.38594  0.62607  1.0000
  C   C53       1.0  0.36087999999999987  0.4465600000000001  0.62647  1.0000
  C   C54       1.0  0.3093599999999999  0.48163  0.6465899999999998  1.0000
  C   C55       1.0  0.32737  0.53684  0.64939  1.0000
  C   C56       1.0  0.39689  0.55698  0.63208  1.0000
  C   C57       1.0  0.44841  0.52192  0.61196  1.0000
  C   C58       1.0  0.4303999999999999  0.46671  0.60916  1.0000
  C   C59       1.0  0.3729  0.35843  0.66477  1.0000
  C   C60       1.0  0.4389  0.3769  0.6868  1.0000
  C   C61       1.0  0.3297  0.3154  0.68079  1.0000
  C   C62       1.0  0.2867  0.77803  0.59478  1.0000
  C   C63       1.0  0.20736  0.80101  0.58559  1.0000
  C   C64       1.0  0.19771999999999995  0.83156  0.55075  1.0000
  C   C65       1.0  0.12413  0.85494  0.5420099999999998  1.0000
  C   C66       1.0  0.06019  0.84776  0.56809  1.0000
  C   C67       1.0  0.06981999999999997  0.81721  0.60293  1.0000
  C   C68       1.0  0.14341  0.7938300000000001  0.6116799999999998  1.0000
  C   C69       1.0  0.9815  0.87782  0.5571299999999998  1.0000
  C   C70       1.0  0.909  0.8517600000000002  0.57567  1.0000
  C   C71       1.0  0.8797999999999999  0.868  0.61309  1.0000
  C   C72       1.0  0.8695  0.81053  0.5555799999999997  1.0000
  C   C73       1.0  0.437  0.2915  0.77881  1.0000
  C   C74       1.0  0.4167  0.31233  0.73923  1.0000
  C   C75       1.0  0.4599  0.354  0.72085  1.0000
  C   C76       1.0  0.3531  0.2916  0.71744  1.0000
  C   C77       1.0  0.6925  0.7828  0.62311  1.0000
  C   C78       1.0  0.7708  0.80491  0.60813  1.0000
  C   C79       1.0  0.8102  0.8461  0.6289599999999997  1.0000
  C   C80       1.0  0.8031  0.7875000000000002  0.57201  1.0000
  C   C81       1.0  0.418  0.61677  0.6340099999999997  1.0000
  C   C82       1.0  0.0007  0.10957  0.59132  1.0000
  C   C83       1.0  0.9949  0.05042  0.58422  1.0000
  C   C84       1.0  0.0331  0.01352  0.6091999999999997  1.0000
  C   C85       1.0  0.030399999999999996  0.95798  0.59991  1.0000
  C   C86       1.0  0.9884  0.9389200000000002  0.5680099999999998  1.0000
  C   C87       1.0  0.9504  0.9758  0.54304  1.0000
  C   C88       1.0  0.9538  0.03111  0.5515099999999998  1.0000
  C   C89       1.0  0.5405  0.20652  0.9776599999999999  1.0000
  C   C90       1.0  0.56919  0.18427  0.01627  1.0000
  C   C91       1.0  0.63876  0.15339  0.01739  1.0000
  C   C92       1.0  0.66572  0.13211  0.05363  1.0000
  C   C93       1.0  0.62311  0.1417  0.08875999999999998  1.0000
  C   C94       1.0  0.5535399999999998  0.17258  0.08764  1.0000
  C   C95       1.0  0.52658  0.19387  0.051399999999999994  1.0000
  C   C96       1.0  0.6589  0.11406000000000002  0.12607  1.0000
  C   C97       1.0  0.63912  0.05344000000000001  0.12647  1.0000
  C   C98       1.0  0.69064  0.01837  0.14659  1.0000
  C   C99       1.0  0.67263  0.9631600000000002  0.14939  1.0000
  C   C100      1.0  0.60311  0.94302  0.13207999999999995  1.0000
  C   C101      1.0  0.55159  0.97808  0.11196  1.0000
  C   C102      1.0  0.5695999999999999  0.03329  0.10915999999999997  1.0000
  C   C103      1.0  0.6271  0.14157  0.16477  1.0000
  C   C104      1.0  0.5611  0.12310000000000001  0.18679999999999994  1.0000
  C   C105      1.0  0.6703  0.1846  0.18079  1.0000
  C   C106      1.0  0.7133  0.72197  0.09478  1.0000
  C   C107      1.0  0.7926399999999998  0.69899  0.08559  1.0000
  C   C108      1.0  0.8022799999999998  0.66844  0.05074999999999999  1.0000
  C   C109      1.0  0.87587  0.64506  0.04201  1.0000
  C   C110      1.0  0.9398099999999998  0.65224  0.06809  1.0000
  C   C111      1.0  0.93018  0.68279  0.10293  1.0000
  C   C112      1.0  0.8565899999999997  0.70617  0.11168  1.0000
  C   C113      1.0  0.0185  0.62218  0.057129999999999986  1.0000
  C   C114      1.0  0.09099999999999997  0.64824  0.07567  1.0000
  C   C115      1.0  0.12019999999999999  0.632  0.11308999999999997  1.0000
  C   C116      1.0  0.1305  0.6894700000000001  0.05558  1.0000
  C   C117      1.0  0.563  0.2085  0.27881  1.0000
  C   C118      1.0  0.5833  0.18767000000000003  0.23923  1.0000
  C   C119      1.0  0.5401  0.146  0.22085  1.0000
  C   C120      1.0  0.6469  0.2084  0.21744  1.0000
  C   C121      1.0  0.3074999999999999  0.7172000000000001  0.12310999999999998  1.0000
  C   C122      1.0  0.22919999999999993  0.6950900000000001  0.10813  1.0000
  C   C123      1.0  0.1898  0.6539  0.12896  1.0000
  C   C124      1.0  0.19689999999999994  0.7125  0.07200999999999998  1.0000
  C   C125      1.0  0.582  0.8832300000000002  0.13401  1.0000
  C   C126      1.0  0.9993  0.39043  0.09132  1.0000
  C   C127      1.0  0.0051  0.44958  0.08421999999999998  1.0000
  C   C128      1.0  0.9669  0.48648  0.10919999999999999  1.0000
  C   C129      1.0  0.9696  0.5420200000000001  0.09991  1.0000
  C   C130      1.0  0.0116  0.56108  0.06801  1.0000
  C   C131      1.0  0.0496  0.5242  0.04304  1.0000
  C   C132      1.0  0.0462  0.4688900000000001  0.05151  1.0000
  C   C133      1.0  0.0405  0.2934800000000001  0.5223399999999998  1.0000
  C   C134      1.0  0.06918999999999999  0.31573  0.48373  1.0000
  C   C135      1.0  0.13876  0.34661000000000003  0.48260999999999993  1.0000
  C   C136      1.0  0.16572  0.36789000000000005  0.44637  1.0000
  C   C137      1.0  0.12311  0.3583  0.41124  1.0000
  C   C138      1.0  0.05353999999999998  0.32742  0.41236  1.0000
  C   C139      1.0  0.02658  0.30613  0.4486  1.0000
  C   C140      1.0  0.1589  0.38594  0.3739299999999999  1.0000
  C   C141      1.0  0.13911999999999994  0.4465600000000001  0.37353  1.0000
  C   C142      1.0  0.19063999999999995  0.48163  0.3534099999999999  1.0000
  C   C143      1.0  0.17263  0.53684  0.35061  1.0000
  C   C144      1.0  0.10311  0.55698  0.3679199999999999  1.0000
  C   C145      1.0  0.05159  0.52192  0.38804  1.0000
  C   C146      1.0  0.0696  0.46671  0.39084  1.0000
  C   C147      1.0  0.1271  0.35843  0.33523  1.0000
  C   C148      1.0  0.0611  0.3769  0.3132  1.0000
  C   C149      1.0  0.1703  0.3154  0.31921  1.0000
  C   C150      1.0  0.2133  0.77803  0.40522  1.0000
  C   C151      1.0  0.29264  0.80101  0.41441  1.0000
  C   C152      1.0  0.30228  0.83156  0.44924999999999987  1.0000
  C   C153      1.0  0.37586999999999987  0.85494  0.45799  1.0000
  C   C154      1.0  0.43980999999999987  0.84776  0.43191  1.0000
  C   C155      1.0  0.4301799999999999  0.81721  0.39707  1.0000
  C   C156      1.0  0.35659  0.7938300000000001  0.3883199999999999  1.0000
  C   C157      1.0  0.5185  0.87782  0.4428699999999999  1.0000
  C   C158      1.0  0.591  0.8517600000000002  0.42433  1.0000
  C   C159      1.0  0.6202  0.868  0.38691  1.0000
  C   C160      1.0  0.6305  0.81053  0.44442  1.0000
  C   C161      1.0  0.063  0.2915  0.22119  1.0000
  C   C162      1.0  0.0833  0.31233  0.26077  1.0000
  C   C163      1.0  0.04009999999999998  0.354  0.2791499999999999  1.0000
  C   C164      1.0  0.1469  0.2916  0.28256  1.0000
  C   C165      1.0  0.8075  0.7828  0.3768899999999999  1.0000
  C   C166      1.0  0.7291999999999997  0.80491  0.39187  1.0000
  C   C167      1.0  0.6898  0.8461  0.37104  1.0000
  C   C168      1.0  0.6969  0.7875000000000002  0.42799  1.0000
  C   C169      1.0  0.082  0.61677  0.36599  1.0000
  C   C170      1.0  0.49929999999999997  0.10957  0.40868  1.0000
  C   C171      1.0  0.5051  0.05042  0.41578  1.0000
  C   C172      1.0  0.4669  0.01352  0.3908  1.0000
  C   C173      1.0  0.4695999999999999  0.95798  0.40009  1.0000
  C   C174      1.0  0.5116  0.9389200000000002  0.4319899999999999  1.0000
  C   C175      1.0  0.5495999999999998  0.9758  0.45696  1.0000
  C   C176      1.0  0.5461999999999998  0.03111  0.4484899999999999  1.0000
  C   C177      1.0  0.0405  0.79348  0.9776599999999999  1.0000
  C   C178      1.0  0.06918999999999999  0.81573  0.01627  1.0000
  C   C179      1.0  0.13876  0.8466100000000002  0.01739  1.0000
  C   C180      1.0  0.16572  0.86789  0.05363  1.0000
  C   C181      1.0  0.12311  0.8583000000000001  0.08875999999999998  1.0000
  C   C182      1.0  0.05353999999999998  0.82742  0.08764  1.0000
  C   C183      1.0  0.02658  0.80613  0.051399999999999994  1.0000
  C   C184      1.0  0.1589  0.8859400000000001  0.12607  1.0000
  C   C185      1.0  0.13911999999999994  0.94656  0.12647  1.0000
  C   C186      1.0  0.19063999999999995  0.98163  0.14659  1.0000
  C   C187      1.0  0.17263  0.03684  0.14939  1.0000
  C   C188      1.0  0.10311  0.05698  0.13207999999999995  1.0000
  C   C189      1.0  0.05159  0.021920000000000005  0.11196  1.0000
  C   C190      1.0  0.0696  0.9667100000000001  0.10915999999999997  1.0000
  C   C191      1.0  0.1271  0.85843  0.16477  1.0000
  C   C192      1.0  0.0611  0.8769000000000001  0.18679999999999994  1.0000
  C   C193      1.0  0.1703  0.8154  0.18079  1.0000
  C   C194      1.0  0.2133  0.27803  0.09478  1.0000
  C   C195      1.0  0.29264  0.30101  0.08559  1.0000
  C   C196      1.0  0.30228  0.33156  0.05074999999999999  1.0000
  C   C197      1.0  0.37586999999999987  0.35494  0.04201  1.0000
  C   C198      1.0  0.43980999999999987  0.34776  0.06809  1.0000
  C   C199      1.0  0.4301799999999999  0.31721  0.10293  1.0000
  C   C200      1.0  0.35659  0.29383  0.11168  1.0000
  C   C201      1.0  0.5185  0.37782  0.057129999999999986  1.0000
  C   C202      1.0  0.591  0.35176  0.07567  1.0000
  C   C203      1.0  0.6202  0.368  0.11308999999999997  1.0000
  C   C204      1.0  0.6305  0.31053  0.05558  1.0000
  C   C205      1.0  0.063  0.7915  0.27881  1.0000
  C   C206      1.0  0.0833  0.81233  0.23923  1.0000
  C   C207      1.0  0.04009999999999998  0.8540000000000001  0.22085  1.0000
  C   C208      1.0  0.1469  0.7916  0.21744  1.0000
  C   C209      1.0  0.8075  0.2828  0.12310999999999998  1.0000
  C   C210      1.0  0.7291999999999997  0.30491  0.10813  1.0000
  C   C211      1.0  0.6898  0.3461000000000001  0.12896  1.0000
  C   C212      1.0  0.6969  0.2875  0.07200999999999998  1.0000
  C   C213      1.0  0.082  0.11677000000000001  0.13401  1.0000
  C   C214      1.0  0.49929999999999997  0.60957  0.09132  1.0000
  C   C215      1.0  0.5051  0.55042  0.08421999999999998  1.0000
  C   C216      1.0  0.4669  0.51352  0.10919999999999999  1.0000
  C   C217      1.0  0.4695999999999999  0.45798000000000005  0.09991  1.0000
  C   C218      1.0  0.5116  0.43892000000000003  0.06801  1.0000
  C   C219      1.0  0.5495999999999998  0.4758000000000001  0.04304  1.0000
  C   C220      1.0  0.5461999999999998  0.53111  0.05151  1.0000
  C   C221      1.0  0.5405  0.70652  0.5223399999999998  1.0000
  C   C222      1.0  0.56919  0.68427  0.48373  1.0000
  C   C223      1.0  0.63876  0.65339  0.48260999999999993  1.0000
  C   C224      1.0  0.66572  0.63211  0.44637  1.0000
  C   C225      1.0  0.62311  0.6417  0.41124  1.0000
  C   C226      1.0  0.5535399999999998  0.6725800000000001  0.41236  1.0000
  C   C227      1.0  0.52658  0.6938700000000001  0.4486  1.0000
  C   C228      1.0  0.6589  0.61406  0.3739299999999999  1.0000
  C   C229      1.0  0.63912  0.55344  0.37353  1.0000
  C   C230      1.0  0.69064  0.51837  0.3534099999999999  1.0000
  C   C231      1.0  0.67263  0.46316000000000007  0.35061  1.0000
  C   C232      1.0  0.60311  0.4430200000000001  0.3679199999999999  1.0000
  C   C233      1.0  0.55159  0.4780800000000001  0.38804  1.0000
  C   C234      1.0  0.5695999999999999  0.53329  0.39084  1.0000
  C   C235      1.0  0.6271  0.64157  0.33523  1.0000
  C   C236      1.0  0.5611  0.6231  0.3132  1.0000
  C   C237      1.0  0.6703  0.6846  0.31921  1.0000
  C   C238      1.0  0.7133  0.22197  0.40522  1.0000
  C   C239      1.0  0.7926399999999998  0.19899  0.41441  1.0000
  C   C240      1.0  0.8022799999999998  0.16844  0.44924999999999987  1.0000
  C   C241      1.0  0.87587  0.14506  0.45799  1.0000
  C   C242      1.0  0.9398099999999998  0.15224  0.43191  1.0000
  C   C243      1.0  0.93018  0.18279000000000004  0.39707  1.0000
  C   C244      1.0  0.8565899999999997  0.20617  0.3883199999999999  1.0000
  C   C245      1.0  0.0185  0.12218  0.4428699999999999  1.0000
  C   C246      1.0  0.09099999999999997  0.14824  0.42433  1.0000
  C   C247      1.0  0.12019999999999999  0.132  0.38691  1.0000
  C   C248      1.0  0.1305  0.18947  0.44442  1.0000
  C   C249      1.0  0.563  0.7085000000000002  0.22119  1.0000
  C   C250      1.0  0.5833  0.68767  0.26077  1.0000
  C   C251      1.0  0.5401  0.6460000000000001  0.2791499999999999  1.0000
  C   C252      1.0  0.6469  0.7084000000000001  0.28256  1.0000
  C   C253      1.0  0.3074999999999999  0.21720000000000003  0.3768899999999999  1.0000
  C   C254      1.0  0.22919999999999993  0.19509  0.39187  1.0000
  C   C255      1.0  0.1898  0.1539  0.37104  1.0000
  C   C256      1.0  0.19689999999999994  0.2125  0.42799  1.0000
  C   C257      1.0  0.582  0.38323  0.36599  1.0000
  C   C258      1.0  0.9993  0.8904300000000003  0.40868  1.0000
  C   C259      1.0  0.0051  0.94958  0.41578  1.0000
  C   C260      1.0  0.9669  0.98648  0.3908  1.0000
  C   C261      1.0  0.9696  0.04202  0.40009  1.0000
  C   C262      1.0  0.0116  0.06108  0.4319899999999999  1.0000
  C   C263      1.0  0.0496  0.0242  0.45696  1.0000
  C   C264      1.0  0.0462  0.96889  0.4484899999999999  1.0000
  C   C265      1.0  0.4595  0.79348  0.02234  1.0000
  C   C266      1.0  0.43081  0.81573  0.9837299999999999  1.0000
  C   C267      1.0  0.36124  0.8466100000000002  0.98261  1.0000
  C   C268      1.0  0.33428  0.86789  0.94637  1.0000
  C   C269      1.0  0.37689  0.8583000000000001  0.9112399999999998  1.0000
  C   C270      1.0  0.44646  0.82742  0.91236  1.0000
  C   C271      1.0  0.47342  0.80613  0.9485999999999998  1.0000
  C   C272      1.0  0.3411  0.8859400000000001  0.8739299999999999  1.0000
  C   C273      1.0  0.36087999999999987  0.94656  0.87353  1.0000
  C   C274      1.0  0.3093599999999999  0.98163  0.85341  1.0000
  C   C275      1.0  0.32737  0.03684  0.85061  1.0000
  C   C276      1.0  0.39689  0.05698  0.86792  1.0000
  C   C277      1.0  0.44841  0.021920000000000005  0.8880399999999998  1.0000
  C   C278      1.0  0.4303999999999999  0.9667100000000001  0.89084  1.0000
  C   C279      1.0  0.3729  0.85843  0.8352299999999998  1.0000
  C   C280      1.0  0.4389  0.8769000000000001  0.8131999999999998  1.0000
  C   C281      1.0  0.3297  0.8154  0.8192099999999998  1.0000
  C   C282      1.0  0.2867  0.27803  0.90522  1.0000
  C   C283      1.0  0.20736  0.30101  0.9144099999999997  1.0000
  C   C284      1.0  0.19771999999999995  0.33156  0.94925  1.0000
  C   C285      1.0  0.12413  0.35494  0.95799  1.0000
  C   C286      1.0  0.06019  0.34776  0.93191  1.0000
  C   C287      1.0  0.06981999999999997  0.31721  0.8970699999999998  1.0000
  C   C288      1.0  0.14341  0.29383  0.88832  1.0000
  C   C289      1.0  0.9815  0.37782  0.94287  1.0000
  C   C290      1.0  0.909  0.35176  0.9243299999999998  1.0000
  C   C291      1.0  0.8797999999999999  0.368  0.8869099999999998  1.0000
  C   C292      1.0  0.8695  0.31053  0.94442  1.0000
  C   C293      1.0  0.437  0.7915  0.72119  1.0000
  C   C294      1.0  0.4167  0.81233  0.7607699999999997  1.0000
  C   C295      1.0  0.4599  0.8540000000000001  0.7791499999999998  1.0000
  C   C296      1.0  0.3531  0.7916  0.7825599999999998  1.0000
  C   C297      1.0  0.6925  0.2828  0.8768899999999997  1.0000
  C   C298      1.0  0.7708  0.30491  0.8918699999999998  1.0000
  C   C299      1.0  0.8102  0.3461000000000001  0.87104  1.0000
  C   C300      1.0  0.8031  0.2875  0.92799  1.0000
  C   C301      1.0  0.418  0.11677000000000001  0.86599  1.0000
  C   C302      1.0  0.0007  0.60957  0.90868  1.0000
  C   C303      1.0  0.9949  0.55042  0.9157799999999998  1.0000
  C   C304      1.0  0.0331  0.51352  0.8908  1.0000
  C   C305      1.0  0.030399999999999996  0.45798000000000005  0.9000899999999997  1.0000
  C   C306      1.0  0.9884  0.43892000000000003  0.93199  1.0000
  C   C307      1.0  0.9504  0.4758000000000001  0.95696  1.0000
  C   C308      1.0  0.9538  0.53111  0.94849  1.0000
  C   C309      1.0  0.9594999999999999  0.70652  0.4776599999999999  1.0000
  C   C310      1.0  0.93081  0.68427  0.5162699999999999  1.0000
  C   C311      1.0  0.8612399999999998  0.65339  0.51739  1.0000
  C   C312      1.0  0.83428  0.63211  0.55363  1.0000
  C   C313      1.0  0.87689  0.6417  0.58876  1.0000
  C   C314      1.0  0.94646  0.6725800000000001  0.58764  1.0000
  C   C315      1.0  0.97342  0.6938700000000001  0.5514  1.0000
  C   C316      1.0  0.8410999999999997  0.61406  0.62607  1.0000
  C   C317      1.0  0.8608799999999999  0.55344  0.62647  1.0000
  C   C318      1.0  0.80936  0.51837  0.6465899999999998  1.0000
  C   C319      1.0  0.8273699999999998  0.46316000000000007  0.64939  1.0000
  C   C320      1.0  0.89689  0.4430200000000001  0.63208  1.0000
  C   C321      1.0  0.94841  0.4780800000000001  0.61196  1.0000
  C   C322      1.0  0.9304  0.53329  0.60916  1.0000
  C   C323      1.0  0.8729  0.64157  0.66477  1.0000
  C   C324      1.0  0.9388999999999997  0.6231  0.6868  1.0000
  C   C325      1.0  0.8297  0.6846  0.68079  1.0000
  C   C326      1.0  0.7867  0.22197  0.59478  1.0000
  C   C327      1.0  0.70736  0.19899  0.58559  1.0000
  C   C328      1.0  0.69772  0.16844  0.55075  1.0000
  C   C329      1.0  0.6241299999999999  0.14506  0.5420099999999998  1.0000
  C   C330      1.0  0.56019  0.15224  0.56809  1.0000
  C   C331      1.0  0.5698199999999999  0.18279000000000004  0.60293  1.0000
  C   C332      1.0  0.64341  0.20617  0.6116799999999998  1.0000
  C   C333      1.0  0.48149999999999993  0.12218  0.5571299999999998  1.0000
  C   C334      1.0  0.409  0.14824  0.57567  1.0000
  C   C335      1.0  0.3797999999999999  0.132  0.61309  1.0000
  C   C336      1.0  0.3695  0.18947  0.5555799999999997  1.0000
  C   C337      1.0  0.937  0.7085000000000002  0.77881  1.0000
  C   C338      1.0  0.9166999999999997  0.68767  0.73923  1.0000
  C   C339      1.0  0.9598999999999999  0.6460000000000001  0.72085  1.0000
  C   C340      1.0  0.8531  0.7084000000000001  0.71744  1.0000
  C   C341      1.0  0.19249999999999995  0.21720000000000003  0.62311  1.0000
  C   C342      1.0  0.27079999999999993  0.19509  0.60813  1.0000
  C   C343      1.0  0.3102  0.1539  0.6289599999999997  1.0000
  C   C344      1.0  0.3031  0.2125  0.57201  1.0000
  C   C345      1.0  0.9179999999999998  0.38323  0.6340099999999997  1.0000
  C   C346      1.0  0.5006999999999998  0.8904300000000003  0.59132  1.0000
  C   C347      1.0  0.49489999999999995  0.94958  0.58422  1.0000
  C   C348      1.0  0.5331  0.98648  0.6091999999999997  1.0000
  C   C349      1.0  0.5304  0.04202  0.59991  1.0000
  C   C350      1.0  0.48839999999999995  0.06108  0.5680099999999998  1.0000
  C   C351      1.0  0.45039999999999997  0.0242  0.54304  1.0000
  C   C352      1.0  0.45379999999999987  0.96889  0.5515099999999998  1.0000
  O   O1        1.0  0.8725999999999998  0.85232  0.84631  1.0000
  O   O2        1.0  0.9313  0.18359  0.05335  1.0000
  O   O3        1.0  0.006899999999999998  0.24519  0.02207  1.0000
  O   O4        1.0  0.5188  0.37756  0.8724099999999998  1.0000
  O   O5        1.0  0.4809999999999999  0.35863  0.93567  1.0000
  O   O6        1.0  0.84018  0.7178100000000001  0.93136  1.0000
  O   O7        1.0  0.79811  0.7438800000000001  0.87161  1.0000
  O   O8        1.0  0.8956  0.24561000000000002  0.70568  1.0000
  O   O9        1.0  0.9971  0.18721  0.70523  1.0000
  O   O10       1.0  0.16889999999999994  0.7607  0.8929399999999998  1.0000
  O   O11       1.0  0.1582  0.6916900000000001  0.84971  1.0000
  O   O12       1.0  0.98841  0.74959  0.87921  1.0000
  O   O13       1.0  0.9737999999999999  0.86739  0.88531  1.0000
  O   O14       1.0  0.3726  0.64768  0.65369  1.0000
  O   O15       1.0  0.4313  0.31641  0.4466499999999999  1.0000
  O   O16       1.0  0.5069  0.25481  0.4779299999999999  1.0000
  O   O17       1.0  0.0188  0.12244  0.62759  1.0000
  O   O18       1.0  0.981  0.14137  0.56433  1.0000
  O   O19       1.0  0.34018  0.78219  0.5686399999999998  1.0000
  O   O20       1.0  0.29811  0.75612  0.6283899999999998  1.0000
  O   O21       1.0  0.3956  0.25439  0.79432  1.0000
  O   O22       1.0  0.49709999999999993  0.31279  0.79477  1.0000
  O   O23       1.0  0.6689  0.7393000000000002  0.60706  1.0000
  O   O24       1.0  0.6581999999999999  0.80831  0.65029  1.0000
  O   O25       1.0  0.48841  0.7504100000000002  0.62079  1.0000
  O   O26       1.0  0.4738  0.63261  0.61469  1.0000
  O   O27       1.0  0.6274  0.85232  0.15368999999999994  1.0000
  O   O28       1.0  0.5687  0.18359  0.94665  1.0000
  O   O29       1.0  0.4931  0.24519  0.9779299999999999  1.0000
  O   O30       1.0  0.9812  0.37756  0.12759  1.0000
  O   O31       1.0  0.018999999999999993  0.35863  0.06433  1.0000
  O   O32       1.0  0.65982  0.7178100000000001  0.06863999999999998  1.0000
  O   O33       1.0  0.70189  0.7438800000000001  0.12839  1.0000
  O   O34       1.0  0.6043999999999998  0.24561000000000002  0.29432  1.0000
  O   O35       1.0  0.5029  0.18721  0.29477  1.0000
  O   O36       1.0  0.3311  0.7607  0.10705999999999997  1.0000
  O   O37       1.0  0.3417999999999999  0.6916900000000001  0.15028999999999995  1.0000
  O   O38       1.0  0.5115899999999998  0.74959  0.12078999999999998  1.0000
  O   O39       1.0  0.5262  0.86739  0.11469  1.0000
  O   O40       1.0  0.1274  0.64768  0.3463099999999999  1.0000
  O   O41       1.0  0.06869999999999997  0.31641  0.55335  1.0000
  O   O42       1.0  0.9930999999999999  0.25481  0.5220699999999998  1.0000
  O   O43       1.0  0.4812  0.12244  0.37241  1.0000
  O   O44       1.0  0.519  0.14137  0.43567  1.0000
  O   O45       1.0  0.15981999999999996  0.78219  0.43135999999999997  1.0000
  O   O46       1.0  0.20189  0.75612  0.37161  1.0000
  O   O47       1.0  0.10439999999999998  0.25439  0.20568  1.0000
  O   O48       1.0  0.0029  0.31279  0.20523  1.0000
  O   O49       1.0  0.8311  0.7393000000000002  0.3929399999999999  1.0000
  O   O50       1.0  0.8418  0.80831  0.34971  1.0000
  O   O51       1.0  0.01159  0.7504100000000002  0.37921  1.0000
  O   O52       1.0  0.0262  0.63261  0.38531  1.0000
  O   O53       1.0  0.1274  0.14768  0.15368999999999994  1.0000
  O   O54       1.0  0.06869999999999997  0.81641  0.94665  1.0000
  O   O55       1.0  0.9930999999999999  0.7548100000000002  0.9779299999999999  1.0000
  O   O56       1.0  0.4812  0.62244  0.12759  1.0000
  O   O57       1.0  0.519  0.6413700000000001  0.06433  1.0000
  O   O58       1.0  0.15981999999999996  0.28219  0.06863999999999998  1.0000
  O   O59       1.0  0.20189  0.25612  0.12839  1.0000
  O   O60       1.0  0.10439999999999998  0.75439  0.29432  1.0000
  O   O61       1.0  0.0029  0.81279  0.29477  1.0000
  O   O62       1.0  0.8311  0.23930000000000004  0.10705999999999997  1.0000
  O   O63       1.0  0.8418  0.30831  0.15028999999999995  1.0000
  O   O64       1.0  0.01159  0.25041  0.12078999999999998  1.0000
  O   O65       1.0  0.0262  0.13261  0.11469  1.0000
  O   O66       1.0  0.6274  0.35232  0.3463099999999999  1.0000
  O   O67       1.0  0.5687  0.6835900000000001  0.55335  1.0000
  O   O68       1.0  0.4931  0.74519  0.5220699999999998  1.0000
  O   O69       1.0  0.9812  0.87756  0.37241  1.0000
  O   O70       1.0  0.018999999999999993  0.85863  0.43567  1.0000
  O   O71       1.0  0.65982  0.21781000000000003  0.43135999999999997  1.0000
  O   O72       1.0  0.70189  0.24388000000000004  0.37161  1.0000
  O   O73       1.0  0.6043999999999998  0.7456100000000001  0.20568  1.0000
  O   O74       1.0  0.5029  0.6872100000000002  0.20523  1.0000
  O   O75       1.0  0.3311  0.2607  0.3929399999999999  1.0000
  O   O76       1.0  0.3417999999999999  0.19169000000000003  0.34971  1.0000
  O   O77       1.0  0.5115899999999998  0.24959000000000003  0.37921  1.0000
  O   O78       1.0  0.5262  0.3673900000000001  0.38531  1.0000
  O   O79       1.0  0.3726  0.14768  0.84631  1.0000
  O   O80       1.0  0.4313  0.81641  0.05335  1.0000
  O   O81       1.0  0.5069  0.7548100000000002  0.02207  1.0000
  O   O82       1.0  0.0188  0.62244  0.8724099999999998  1.0000
  O   O83       1.0  0.981  0.6413700000000001  0.93567  1.0000
  O   O84       1.0  0.34018  0.28219  0.93136  1.0000
  O   O85       1.0  0.29811  0.25612  0.87161  1.0000
  O   O86       1.0  0.3956  0.75439  0.70568  1.0000
  O   O87       1.0  0.49709999999999993  0.81279  0.70523  1.0000
  O   O88       1.0  0.6689  0.23930000000000004  0.8929399999999998  1.0000
  O   O89       1.0  0.6581999999999999  0.30831  0.84971  1.0000
  O   O90       1.0  0.48841  0.25041  0.87921  1.0000
  O   O91       1.0  0.4738  0.13261  0.88531  1.0000
  O   O92       1.0  0.8725999999999998  0.35232  0.65369  1.0000
  O   O93       1.0  0.9313  0.6835900000000001  0.4466499999999999  1.0000
  O   O94       1.0  0.006899999999999998  0.74519  0.4779299999999999  1.0000
  O   O95       1.0  0.5188  0.87756  0.62759  1.0000
  O   O96       1.0  0.4809999999999999  0.85863  0.56433  1.0000
  O   O97       1.0  0.84018  0.21781000000000003  0.5686399999999998  1.0000
  O   O98       1.0  0.79811  0.24388000000000004  0.6283899999999998  1.0000
  O   O99       1.0  0.8956  0.7456100000000001  0.79432  1.0000
  O   O100      1.0  0.9971  0.6872100000000002  0.79477  1.0000
  O   O101      1.0  0.16889999999999994  0.2607  0.60706  1.0000
  O   O102      1.0  0.1582  0.19169000000000003  0.65029  1.0000
  O   O103      1.0  0.98841  0.24959000000000003  0.62079  1.0000
  O   O104      1.0  0.9737999999999999  0.3673900000000001  0.61469  1.0000
