data_image0
_chemical_formula_structural       C6H3C6H3C6H3C6H3C4O8Cd4C4O8H2OC4O8Cd4C4O8H2OC3HC3HC12H10C3HC3HC12H10CHCHCHC3HCHCHCHCHCHC3HCHCHCHCHCHC3HCHCHCHCHCHC3HCHCHCHCHCHC3HCHCHCHCHCHC3HCHCHCHCHCHC3HCHCHCHCHCHC3HCHCHCHCHCHC3HCHCHCHCHCHC3HCHCHCHCHCHC3HCHCHCHCHCHC3HCHCH
_chemical_formula_sum              "C172 H112 O34 Cd8"
_cell_length_a       16.79841
_cell_length_b       15.56433
_cell_length_c       24.09482
_cell_angle_alpha    98.00011
_cell_angle_beta     82.00238
_cell_angle_gamma    116.25535

_space_group_name_H-M_alt    "P 1"
_space_group_IT_number       1

loop_
  _space_group_symop_operation_xyz
  'x, y, z'

loop_
  _atom_site_type_symbol
  _atom_site_label
  _atom_site_symmetry_multiplicity
  _atom_site_fract_x
  _atom_site_fract_y
  _atom_site_fract_z
  _atom_site_occupancy
  C   C1        1.0  0.6695  0.3963  0.99852  1.0000
  C   C2        1.0  0.57852  0.33269  0.00597  1.0000
  C   C3        1.0  0.5518  0.2325  0.00064  1.0000
  C   C4        1.0  0.61703  0.19755999999999999  0.9922400000000002  1.0000
  C   C5        1.0  0.7074300000000003  0.26174000000000003  0.9857400000000002  1.0000
  C   C6        1.0  0.7311  0.35841  0.98033  1.0000
  H   H1        1.0  0.53007  0.36103  0.02013  1.0000
  H   H2        1.0  0.59768  0.12177  0.99445  1.0000
  H   H3        1.0  0.8009500000000003  0.40694  0.9729300000000002  1.0000
  C   C7        1.0  0.6695  0.39629999999999993  0.49852  1.0000
  C   C8        1.0  0.57852  0.33269  0.50597  1.0000
  C   C9        1.0  0.5518  0.2325  0.50064  1.0000
  C   C10       1.0  0.61703  0.19755999999999999  0.49224000000000007  1.0000
  C   C11       1.0  0.7074300000000002  0.26174  0.48574  1.0000
  C   C12       1.0  0.7311000000000002  0.35841  0.48033  1.0000
  H   H4        1.0  0.53007  0.36103999999999997  0.52013  1.0000
  H   H5        1.0  0.59768  0.12177000000000002  0.49445  1.0000
  H   H6        1.0  0.80095  0.40694  0.47293  1.0000
  C   C13       1.0  0.3204200000000001  0.6129900000000001  0.25753  1.0000
  C   C14       1.0  0.25873  0.65078  0.27564  1.0000
  C   C15       1.0  0.28236  0.74746  0.27028  1.0000
  C   C16       1.0  0.37275000000000014  0.81171  0.26389  1.0000
  C   C17       1.0  0.43802000000000013  0.77686  0.25554  1.0000
  C   C18       1.0  0.4113800000000001  0.6766699999999999  0.25015  1.0000
  H   H7        1.0  0.18888000000000002  0.6022  0.28296  1.0000
  H   H8        1.0  0.39205  0.8875  0.26172  1.0000
  H   H9        1.0  0.4599  0.64841  0.23601  1.0000
  C   C19       1.0  0.3204200000000001  0.61299  0.75753  1.0000
  C   C20       1.0  0.25872999999999996  0.65078  0.77564  1.0000
  C   C21       1.0  0.28236  0.74746  0.77028  1.0000
  C   C22       1.0  0.37274000000000007  0.8117100000000002  0.7638900000000001  1.0000
  C   C23       1.0  0.4380200000000001  0.77686  0.75554  1.0000
  C   C24       1.0  0.41137999999999997  0.6766699999999999  0.7501500000000001  1.0000
  H   H10       1.0  0.18888000000000002  0.6022  0.78296  1.0000
  H   H11       1.0  0.39204999999999995  0.8875  0.7617200000000001  1.0000
  H   H12       1.0  0.4599  0.64841  0.73601  1.0000
  C   C25       1.0  0.19492000000000007  0.9717  0.054180000000000006  1.0000
  C   C26       1.0  0.99897  0.09737  0.28255  1.0000
  C   C27       1.0  0.0065500000000000246  0.81341  0.20688  1.0000
  C   C28       1.0  0.18911  0.25708  0.12815  1.0000
  O   O1        1.0  0.13910000000000006  0.0036200000000000004  0.07905  1.0000
  O   O2        1.0  0.002729999999999998  0.049389999999999996  0.23475  1.0000
  O   O3        1.0  0.01990000000000002  0.87449  0.17105  1.0000
  O   O4        1.0  0.12019000000000002  0.18002  0.14323  1.0000
  O   O5        1.0  0.16193000000000005  0.87906  0.042390000000000004  1.0000
  O   O6        1.0  0.99448  0.17806  0.28018  1.0000
  O   O7        1.0  0.93935  0.80088  0.24400000000000002  1.0000
  O   O8        1.0  0.21672  0.2555  0.07516  1.0000
  Cd  Cd1       1.0  0.1024  0.10781  0.04397  1.0000
  Cd  Cd2       1.0  0.88743  0.90141  0.21227000000000001  1.0000
  Cd  Cd3       1.0  0.009410000000000076  0.8455  0.07453  1.0000
  Cd  Cd4       1.0  0.9804900000000001  0.16353  0.18166  1.0000
  C   C29       1.0  0.99087  0.91168  0.9736500000000001  1.0000
  C   C30       1.0  0.7948  0.03760999999999999  0.20179  1.0000
  C   C31       1.0  0.80086  0.75205  0.12805  1.0000
  C   C32       1.0  0.9831700000000001  0.19563999999999998  0.04916000000000001  1.0000
  O   O9        1.0  0.98711  0.95968  0.02145  1.0000
  O   O10       1.0  0.8505  0.005420000000000007  0.17707000000000003  1.0000
  O   O11       1.0  0.8698  0.82916  0.11309  1.0000
  O   O12       1.0  0.9697400000000002  0.13472  0.08511  1.0000
  O   O13       1.0  0.99532  0.83097  0.97604  1.0000
  O   O14       1.0  0.82803  0.13023  0.2137  1.0000
  O   O15       1.0  0.7730700000000001  0.75357  0.18101000000000003  1.0000
  O   O16       1.0  0.05044999999999999  0.20813999999999996  0.01212  1.0000
  H   H13       1.0  0.060590000000000005  0.04410000000000001  0.22209000000000004  1.0000
  H   H14       1.0  0.9292300000000002  0.96495  0.03411  1.0000
  O   O17       1.0  0.9949  0.004539999999999997  0.12808  1.0000
  C   C33       1.0  0.19492000000000007  0.9717  0.55418  1.0000
  C   C34       1.0  0.99897  0.09737  0.78255  1.0000
  C   C35       1.0  0.0065500000000000246  0.81341  0.70688  1.0000
  C   C36       1.0  0.18911  0.25708  0.62815  1.0000
  O   O18       1.0  0.1391  0.0036200000000000065  0.57905  1.0000
  O   O19       1.0  0.0027300000000000015  0.04938999999999998  0.73475  1.0000
  O   O20       1.0  0.01990000000000002  0.87449  0.6710500000000001  1.0000
  O   O21       1.0  0.12019000000000002  0.18002  0.64323  1.0000
  O   O22       1.0  0.16193000000000005  0.87906  0.54239  1.0000
  O   O23       1.0  0.9944800000000005  0.17806  0.78018  1.0000
  O   O24       1.0  0.93935  0.80088  0.74399  1.0000
  O   O25       1.0  0.21672  0.2555  0.57516  1.0000
  Cd  Cd5       1.0  0.1024  0.10781  0.54397  1.0000
  Cd  Cd6       1.0  0.8874300000000002  0.9014100000000002  0.71227  1.0000
  Cd  Cd7       1.0  0.009410000000000024  0.8455  0.57454  1.0000
  Cd  Cd8       1.0  0.9804900000000001  0.16353  0.68166  1.0000
  C   C37       1.0  0.99087  0.91168  0.47365  1.0000
  C   C38       1.0  0.7948  0.03760999999999998  0.70179  1.0000
  C   C39       1.0  0.8008499999999996  0.75205  0.62805  1.0000
  C   C40       1.0  0.9831700000000001  0.19563999999999998  0.54916  1.0000
  O   O26       1.0  0.9871000000000001  0.95968  0.52145  1.0000
  O   O27       1.0  0.8504999999999999  0.005419999999999987  0.67707  1.0000
  O   O28       1.0  0.8698  0.82916  0.61309  1.0000
  O   O29       1.0  0.9697400000000002  0.13472  0.58511  1.0000
  O   O30       1.0  0.99532  0.83097  0.47604000000000013  1.0000
  O   O31       1.0  0.82803  0.13023  0.7137  1.0000
  O   O32       1.0  0.7730700000000001  0.7535700000000001  0.6810100000000001  1.0000
  O   O33       1.0  0.05044999999999999  0.20813999999999996  0.51211  1.0000
  H   H15       1.0  0.060590000000000005  0.044099999999999986  0.72209  1.0000
  H   H16       1.0  0.9292300000000002  0.9649500000000001  0.53411  1.0000
  O   O34       1.0  0.9948999999999998  0.004540000000000017  0.6280800000000001  1.0000
  C   C41       1.0  0.9911  0.05692000000000001  0.8359800000000001  1.0000
  C   C42       1.0  0.06126  0.09855000000000004  0.8715500000000003  1.0000
  C   C43       1.0  0.06593999999999998  0.04469999999999999  0.91209  1.0000
  H   H17       1.0  0.12007999999999999  0.07677  0.93918  1.0000
  C   C44       1.0  0.9987500000000001  0.95211  0.92021  1.0000
  C   C45       1.0  0.9285900000000004  0.91048  0.88465  1.0000
  C   C46       1.0  0.9239000000000004  0.96433  0.8441100000000001  1.0000
  H   H18       1.0  0.8697400000000002  0.93227  0.8170300000000001  1.0000
  C   C47       1.0  0.86176  0.8093299999999999  0.88761  1.0000
  C   C48       1.0  0.7708599999999999  0.78762  0.8989800000000001  1.0000
  C   C49       1.0  0.7068799999999998  0.69183  0.8959300000000002  1.0000
  C   C50       1.0  0.7332899999999999  0.61742  0.8821700000000001  1.0000
  C   C51       1.0  0.8236400000000001  0.63865  0.87069  1.0000
  C   C52       1.0  0.88778  0.73431  0.87291  1.0000
  C   C53       1.0  0.1281  0.19969000000000006  0.8685700000000001  1.0000
  C   C54       1.0  0.10210000000000004  0.27472  0.88327  1.0000
  C   C55       1.0  0.16624999999999998  0.37037  0.8855100000000001  1.0000
  C   C56       1.0  0.2566  0.3915899999999999  0.87403  1.0000
  C   C57       1.0  0.2829999999999999  0.31716  0.86027  1.0000
  C   C58       1.0  0.21899999999999994  0.22139  0.8572100000000001  1.0000
  H   H19       1.0  0.14594000000000004  0.42806  0.89629  1.0000
  H   H20       1.0  0.30611000000000005  0.4657  0.87545  1.0000
  H   H21       1.0  0.35297  0.33372  0.8514  1.0000
  H   H22       1.0  0.23996000000000003  0.1641  0.84655  1.0000
  H   H23       1.0  0.032440000000000024  0.25883  0.89362  1.0000
  H   H24       1.0  0.74988  0.8449  0.90964  1.0000
  H   H25       1.0  0.6369  0.67526  0.90482  1.0000
  H   H26       1.0  0.9574500000000001  0.75022  0.86256  1.0000
  H   H27       1.0  0.8439700000000002  0.58098  0.8599  1.0000
  H   H28       1.0  0.6837899999999999  0.54331  0.8807700000000002  1.0000
  C   C59       1.0  0.9911  0.05692  0.33598  1.0000
  C   C60       1.0  0.06126  0.09855  0.37155  1.0000
  C   C61       1.0  0.06594000000000001  0.044700000000000004  0.41209  1.0000
  H   H29       1.0  0.12008000000000002  0.07677  0.43918  1.0000
  C   C62       1.0  0.9987500000000001  0.95211  0.42021  1.0000
  C   C63       1.0  0.9285800000000004  0.91048  0.38465  1.0000
  C   C64       1.0  0.9239000000000004  0.96433  0.34411  1.0000
  H   H30       1.0  0.8697400000000003  0.93227  0.31703  1.0000
  C   C65       1.0  0.86176  0.8093299999999999  0.38761  1.0000
  C   C66       1.0  0.7708599999999999  0.78762  0.39898  1.0000
  C   C67       1.0  0.7068799999999998  0.69183  0.39593000000000006  1.0000
  C   C68       1.0  0.73329  0.61742  0.38217  1.0000
  C   C69       1.0  0.8236400000000001  0.63865  0.37069  1.0000
  C   C70       1.0  0.88778  0.73431  0.3729100000000001  1.0000
  C   C71       1.0  0.1281  0.19969  0.3685700000000001  1.0000
  C   C72       1.0  0.10210000000000007  0.27472000000000013  0.38327  1.0000
  C   C73       1.0  0.16625  0.37037  0.38551  1.0000
  C   C74       1.0  0.25660000000000005  0.3915899999999999  0.37403  1.0000
  C   C75       1.0  0.283  0.31716  0.36027  1.0000
  C   C76       1.0  0.219  0.22139  0.35721  1.0000
  H   H31       1.0  0.14594000000000004  0.42806  0.39629000000000003  1.0000
  H   H32       1.0  0.30611000000000005  0.4657  0.37544  1.0000
  H   H33       1.0  0.35296999999999995  0.33372  0.3514  1.0000
  H   H34       1.0  0.2399600000000001  0.1641  0.3465500000000001  1.0000
  H   H35       1.0  0.03244000000000001  0.25883  0.39361000000000007  1.0000
  H   H36       1.0  0.74988  0.8449  0.40964  1.0000
  H   H37       1.0  0.6369  0.67526  0.40482  1.0000
  H   H38       1.0  0.9574500000000001  0.75022  0.36256  1.0000
  H   H39       1.0  0.8439700000000002  0.58098  0.3599  1.0000
  H   H40       1.0  0.6837899999999999  0.54331  0.38077000000000005  1.0000
  C   C77       1.0  0.31579000000000007  0.43093000000000004  0.65395  1.0000
  H   H41       1.0  0.36549000000000004  0.43067  0.6184  1.0000
  C   C78       1.0  0.33067000000000013  0.44369  0.71714  1.0000
  H   H42       1.0  0.39278000000000013  0.4548000000000001  0.7343900000000001  1.0000
  C   C79       1.0  0.27242  0.50157  0.66461  1.0000
  H   H43       1.0  0.28714  0.56106  0.63841  1.0000
  C   C80       1.0  0.28703999999999996  0.51372  0.7274600000000001  1.0000
  C   C81       1.0  0.2233  0.34779  0.66569  1.0000
  C   C82       1.0  0.17983000000000005  0.41755  0.67605  1.0000
  H   H44       1.0  0.11752999999999997  0.40607000000000004  0.65886  1.0000
  C   C83       1.0  0.19442  0.43002  0.73921  1.0000
  H   H45       1.0  0.14419999999999997  0.42888  0.7746600000000001  1.0000
  C   C84       1.0  0.23763  0.35877  0.72829  1.0000
  H   H46       1.0  0.22153999999999996  0.29738  0.75305  1.0000
  C   C85       1.0  0.61594  0.8236599999999998  0.73747  1.0000
  H   H47       1.0  0.61566  0.75398  0.74317  1.0000
  C   C86       1.0  0.66696  0.91969  0.77258  1.0000
  H   H48       1.0  0.7085300000000002  0.92952  0.80707  1.0000
  C   C87       1.0  0.6502299999999999  0.8760799999999999  0.68296  1.0000
  H   H49       1.0  0.6776199999999999  0.8498099999999998  0.64317  1.0000
  C   C88       1.0  0.7001600000000001  0.97133  0.71825  1.0000
  C   C89       1.0  0.5342600000000002  0.8457300000000001  0.74307  1.0000
  C   C90       1.0  0.5679  0.89767  0.68875  1.0000
  H   H50       1.0  0.5266200000000001  0.88794  0.65411  1.0000
  C   C91       1.0  0.6188499999999999  0.9936699999999998  0.72384  1.0000
  H   H51       1.0  0.62065  0.0641  0.71815  1.0000
  C   C92       1.0  0.58417  0.94109  0.7784500000000001  1.0000
  H   H52       1.0  0.5563100000000002  0.96734  0.81805  1.0000
  C   C93       1.0  0.12241999999999997  0.74979  0.78841  1.0000
  H   H53       1.0  0.10221000000000005  0.71972  0.82998  1.0000
  C   C94       1.0  0.07531000000000003  0.70214  0.73405  1.0000
  H   H54       1.0  0.015099999999999975  0.63259  0.73021  1.0000
  C   C95       1.0  0.12889  0.84791  0.77638  1.0000
  H   H55       1.0  0.11229  0.89846  0.8076200000000001  1.0000
  C   C96       1.0  0.0826100000000001  0.79974  0.72211  1.0000
  C   C97       1.0  0.21304000000000012  0.77333  0.75447  1.0000
  C   C98       1.0  0.22052000000000005  0.87136  0.7425600000000001  1.0000
  H   H56       1.0  0.2801  0.94145  0.74635  1.0000
  C   C99       1.0  0.17305  0.8236500000000001  0.68808  1.0000
  H   H57       1.0  0.19344000000000008  0.85386  0.64661  1.0000
  C   C100      1.0  0.16652  0.72558  0.70012  1.0000
  H   H58       1.0  0.18267  0.6748499999999997  0.66878  1.0000
  C   C101      1.0  0.27242  0.50157  0.16461  1.0000
  H   H59       1.0  0.28714  0.56106  0.13841  1.0000
  C   C102      1.0  0.17983000000000005  0.41755  0.17605  1.0000
  H   H60       1.0  0.11753000000000002  0.40607  0.15886  1.0000
  C   C103      1.0  0.31579  0.43093  0.15395  1.0000
  H   H61       1.0  0.36549  0.43067  0.1184  1.0000
  C   C104      1.0  0.22331000000000004  0.34779  0.16569  1.0000
  C   C105      1.0  0.28704  0.51372  0.22746  1.0000
  C   C106      1.0  0.3306700000000002  0.44369  0.21714  1.0000
  H   H62       1.0  0.3927800000000002  0.4548  0.23439  1.0000
  C   C107      1.0  0.23763  0.35877  0.22829  1.0000
  H   H63       1.0  0.22154  0.29738  0.25305  1.0000
  C   C108      1.0  0.19442  0.43002  0.23921000000000003  1.0000
  H   H64       1.0  0.1442  0.42888  0.27466  1.0000
  C   C109      1.0  0.5679  0.89767  0.18875000000000003  1.0000
  H   H65       1.0  0.5266200000000001  0.88794  0.15411  1.0000
  C   C110      1.0  0.65023  0.8760799999999999  0.18296000000000007  1.0000
  H   H66       1.0  0.6776199999999999  0.8498099999999998  0.14317  1.0000
  C   C111      1.0  0.6188499999999999  0.9936699999999998  0.22384  1.0000
  H   H67       1.0  0.6206499999999999  0.0641  0.21815000000000004  1.0000
  C   C112      1.0  0.7001600000000001  0.97133  0.21825  1.0000
  C   C113      1.0  0.5342600000000002  0.84573  0.24307  1.0000
  C   C114      1.0  0.58417  0.94109  0.27845  1.0000
  H   H68       1.0  0.5563100000000001  0.9673299999999999  0.31805  1.0000
  C   C115      1.0  0.66696  0.91969  0.27258  1.0000
  H   H69       1.0  0.7085300000000002  0.92952  0.30707  1.0000
  C   C116      1.0  0.61594  0.8236599999999998  0.23747  1.0000
  H   H70       1.0  0.61566  0.75398  0.24317000000000003  1.0000
  C   C117      1.0  0.07531000000000003  0.70214  0.23405  1.0000
  H   H71       1.0  0.015099999999999975  0.63259  0.23021  1.0000
  C   C118      1.0  0.12242  0.74979  0.28841  1.0000
  H   H72       1.0  0.10221000000000005  0.71972  0.32998  1.0000
  C   C119      1.0  0.16652  0.72557  0.20012000000000002  1.0000
  H   H73       1.0  0.18267000000000003  0.6748499999999998  0.16878  1.0000
  C   C120      1.0  0.21304000000000012  0.77333  0.25447  1.0000
  C   C121      1.0  0.0826100000000001  0.79974  0.22211000000000003  1.0000
  C   C122      1.0  0.17305000000000004  0.82365  0.18807  1.0000
  H   H74       1.0  0.19344000000000008  0.85386  0.14661  1.0000
  C   C123      1.0  0.22052000000000005  0.87136  0.24256  1.0000
  H   H75       1.0  0.2801  0.94145  0.24635  1.0000
  C   C124      1.0  0.12889  0.84791  0.27638  1.0000
  H   H76       1.0  0.11229  0.89846  0.30762  1.0000
  C   C125      1.0  0.8167900000000002  0.18556  0.56789  1.0000
  H   H77       1.0  0.7964299999999999  0.15542  0.60938  1.0000
  C   C126      1.0  0.76925  0.1378  0.51344  1.0000
  H   H78       1.0  0.70964  0.06773  0.5097  1.0000
  C   C127      1.0  0.8233700000000003  0.28364  0.55581  1.0000
  H   H79       1.0  0.80728  0.33442  0.58714  1.0000
  C   C128      1.0  0.7767600000000002  0.23583  0.5015  1.0000
  C   C129      1.0  0.9072  0.20937  0.53383  1.0000
  C   C130      1.0  0.9145400000000001  0.30696999999999997  0.52185  1.0000
  H   H80       1.0  0.9747800000000001  0.37651  0.52565  1.0000
  C   C131      1.0  0.86735  0.25927  0.46752  1.0000
  H   H81       1.0  0.88753  0.28928  0.42593  1.0000
  C   C132      1.0  0.86084  0.16115  0.47959  1.0000
  H   H82       1.0  0.8773900000000002  0.11054  0.44836  1.0000
  C   C133      1.0  0.67415  0.57837  0.60207  1.0000
  H   H83       1.0  0.62438  0.57867  0.63755  1.0000
  C   C134      1.0  0.71737  0.5076  0.59148  1.0000
  H   H84       1.0  0.70246  0.44805  0.61768  1.0000
  C   C135      1.0  0.6594999999999999  0.56572  0.53885  1.0000
  H   H85       1.0  0.5975000000000001  0.5547500000000002  0.5215  1.0000
  C   C136      1.0  0.70298  0.49556  0.52861  1.0000
  C   C137      1.0  0.76674  0.66141  0.59044  1.0000
  C   C138      1.0  0.75265  0.65055  0.52781  1.0000
  H   H86       1.0  0.76894  0.712  0.50305  1.0000
  C   C139      1.0  0.79571  0.57916  0.51697  1.0000
  H   H87       1.0  0.84601  0.58026  0.48158  1.0000
  C   C140      1.0  0.8100700000000001  0.59152  0.58016  1.0000
  H   H88       1.0  0.87226  0.6028599999999998  0.59744  1.0000
  C   C141      1.0  0.37390999999999996  0.1859  0.51885  1.0000
  H   H89       1.0  0.37426  0.25567  0.51328  1.0000
  C   C142      1.0  0.33957  0.13322000000000003  0.57326  1.0000
  H   H90       1.0  0.3122200000000001  0.15935  0.61312  1.0000
  C   C143      1.0  0.32281  0.09004  0.48361  1.0000
  H   H91       1.0  0.2812600000000002  0.08044000000000001  0.44915000000000005  1.0000
  C   C144      1.0  0.28957  0.03815000000000002  0.53785  1.0000
  C   C145      1.0  0.45553000000000016  0.1637  0.51311  1.0000
  C   C146      1.0  0.40554  0.06851  0.47762  1.0000
  H   H92       1.0  0.43335000000000007  0.04238000000000001  0.43795000000000006  1.0000
  C   C147      1.0  0.37083000000000005  0.015680000000000013  0.53213  1.0000
  H   H93       1.0  0.36895999999999995  0.94517  0.53768  1.0000
  C   C148      1.0  0.42185000000000006  0.11151  0.56734  1.0000
  H   H94       1.0  0.46312000000000014  0.12101  0.60194  1.0000
  C   C149      1.0  0.8233700000000003  0.28364  0.05581  1.0000
  H   H95       1.0  0.80728  0.33442  0.08714000000000002  1.0000
  C   C150      1.0  0.9145400000000001  0.30696999999999997  0.02185  1.0000
  H   H96       1.0  0.9747800000000001  0.37651  0.025650000000000003  1.0000
  C   C151      1.0  0.8167900000000002  0.18556  0.06789  1.0000
  H   H97       1.0  0.7964299999999999  0.15542  0.10938  1.0000
  C   C152      1.0  0.9072  0.20937  0.03382  1.0000
  C   C153      1.0  0.7767600000000002  0.23583  0.0015  1.0000
  C   C154      1.0  0.76925  0.1378  0.013440000000000002  1.0000
  H   H98       1.0  0.70964  0.06773  0.00969  1.0000
  C   C155      1.0  0.86084  0.16115  0.9795900000000001  1.0000
  H   H99       1.0  0.8773900000000002  0.11054000000000001  0.9483600000000001  1.0000
  C   C156      1.0  0.8673499999999998  0.25927  0.96752  1.0000
  H   H100      1.0  0.8875299999999999  0.28928  0.92593  1.0000
  C   C157      1.0  0.8100700000000001  0.59152  0.08016  1.0000
  H   H101      1.0  0.87226  0.6028599999999998  0.09744  1.0000
  C   C158      1.0  0.79571  0.57916  0.01697  1.0000
  H   H102      1.0  0.84601  0.58026  0.98158  1.0000
  C   C159      1.0  0.71737  0.5076  0.09148000000000003  1.0000
  H   H103      1.0  0.70246  0.44805  0.11768  1.0000
  C   C160      1.0  0.70298  0.49556  0.02861  1.0000
  C   C161      1.0  0.76674  0.66141  0.09044  1.0000
  C   C162      1.0  0.67415  0.57837  0.10207  1.0000
  H   H104      1.0  0.62438  0.57867  0.13755  1.0000
  C   C163      1.0  0.6595  0.56572  0.03885  1.0000
  H   H105      1.0  0.5975  0.55475  0.021500000000000002  1.0000
  C   C164      1.0  0.75265  0.65055  0.02781  1.0000
  H   H106      1.0  0.76894  0.712  0.00305  1.0000
  C   C165      1.0  0.37390999999999996  0.1859  0.01885  1.0000
  H   H107      1.0  0.37426  0.25567  0.01328  1.0000
  C   C166      1.0  0.33957  0.13322  0.07326  1.0000
  H   H108      1.0  0.3122200000000001  0.15935  0.11312000000000001  1.0000
  C   C167      1.0  0.3228100000000002  0.09004000000000002  0.98361  1.0000
  H   H109      1.0  0.2812600000000001  0.08044000000000001  0.9491500000000002  1.0000
  C   C168      1.0  0.28957  0.038149999999999996  0.03785  1.0000
  C   C169      1.0  0.4555300000000001  0.1637  0.01311  1.0000
  C   C170      1.0  0.40554  0.06851  0.97762  1.0000
  H   H110      1.0  0.43335  0.04238  0.93795  1.0000
  C   C171      1.0  0.37083000000000005  0.01568  0.03213  1.0000
  H   H111      1.0  0.36895999999999995  0.9451699999999997  0.03768  1.0000
  C   C172      1.0  0.4218500000000001  0.11151  0.06734  1.0000
  H   H112      1.0  0.4631200000000001  0.12101  0.10194000000000002  1.0000
