data_image0
_chemical_formula_structural       H2C4H10C14H2C2H2C8O4C2H2C8H2C2H6O2C4H2Zn4HCO8HO3C3Zn2CZn2HCO8HO6C6HCHC5H5CHC2HC6H4C3HC3HC12H10C3HC3HC12H10C3HC3HC12H9C3HC3HC12H10Zn4HCO8HO3C3Zn2CZn2HCO8HO6C6HCHC5H5CHC2HC6H4C3HC3HC12H10C3HC3HC12H10C3HC3HC12H9C3HC3HC12H10Zn2CZn2HCO8HO6C4Zn2CZn2HCO8HO6C7HC3HC12H10C3HC3HC12H10C3HC3HC12H10C3HC3HC11H8C3HC3HC12H10C3HC3HC12H10Zn2CZn2HCO8HO6C4Zn2CZn2HCO8HO6C7HC3HC12H10C3HC3HC12H10C3HC3HC12H10C3HC3HC11H8C3HC3HC12H10C3HC3HC12H10
_chemical_formula_sum              "H304 C480 O112 Zn32"
_cell_length_a       36.21384
_cell_length_b       30.91226
_cell_length_c       16.298770000000005
_cell_angle_alpha    88.86219
_cell_angle_beta     90.00003000000001
_cell_angle_gamma    130.27678

_space_group_name_H-M_alt    "P 1"
_space_group_IT_number       1

loop_
  _space_group_symop_operation_xyz
  'x, y, z'

loop_
  _atom_site_type_symbol
  _atom_site_label
  _atom_site_symmetry_multiplicity
  _atom_site_fract_x
  _atom_site_fract_y
  _atom_site_fract_z
  _atom_site_occupancy
  H   H1        1.0  0.01017000000000002  0.22906000000000007  0.07167  1.0000
  H   H2        1.0  0.01017000000000002  0.72906  0.07167  1.0000
  C   C1        1.0  0.00019999999999998193  0.60886  0.00758  1.0000
  C   C2        1.0  0.00020000000000000643  0.10886  0.00758  1.0000
  C   C3        1.0  0.004699999999999992  0.21662  0.20287  1.0000
  C   C4        1.0  0.004699999999999992  0.71662  0.20287  1.0000
  H   H3        1.0  0.004279999999999998  0.10801  0.5456600000000003  1.0000
  H   H4        1.0  0.004279999999999986  0.60801  0.5456600000000003  1.0000
  H   H5        1.0  0.99667  0.06139000000000001  0.67756  1.0000
  H   H6        1.0  0.9966800000000003  0.5614000000000001  0.67756  1.0000
  H   H7        1.0  0.00980000000000007  0.4066900000000001  0.13302  1.0000
  H   H8        1.0  0.009800000000000047  0.9066900000000002  0.13302  1.0000
  H   H9        1.0  0.013659999999999976  0.6681  0.91446  1.0000
  H   H10       1.0  0.013660000000000002  0.1681  0.91445  1.0000
  H   H11       1.0  0.01869000000000003  0.36471000000000003  0.7559500000000002  1.0000
  H   H12       1.0  0.018690000000000005  0.86471  0.7559500000000002  1.0000
  C   C5        1.0  0.01072000000000002  0.21461  0.3560200000000001  1.0000
  C   C6        1.0  0.010720000000000032  0.7146100000000001  0.3560200000000001  1.0000
  C   C7        1.0  0.022980000000000025  0.22096000000000005  0.12485000000000002  1.0000
  C   C8        1.0  0.022980000000000087  0.7209600000000003  0.12485000000000002  1.0000
  C   C9        1.0  0.018819999999999986  0.338  0.049860000000000015  1.0000
  C   C10       1.0  0.018809999999999966  0.838  0.049860000000000015  1.0000
  C   C11       1.0  0.022409999999999996  0.20812  0.2723300000000001  1.0000
  C   C12       1.0  0.022409999999999982  0.70812  0.2723300000000001  1.0000
  C   C13       1.0  0.02810000000000001  0.31343  0.91443  1.0000
  C   C14       1.0  0.028970000000000013  0.39636  0.16717000000000007  1.0000
  C   C15       1.0  0.028099999999999986  0.81343  0.91443  1.0000
  C   C16       1.0  0.02896999999999999  0.89636  0.16717000000000007  1.0000
  C   C17       1.0  0.03618000000000002  0.23237000000000002  0.49673000000000006  1.0000
  C   C18       1.0  0.03617999999999997  0.73237  0.49673000000000006  1.0000
  H   H13       1.0  0.03248000000000004  0.4367400000000001  0.27658  1.0000
  H   H14       1.0  0.03248000000000018  0.9367400000000002  0.27658  1.0000
  C   C19       1.0  0.03949000000000004  0.36434000000000005  0.13115  1.0000
  C   C20       1.0  0.03948999999999999  0.86433  0.13116000000000005  1.0000
  H   H15       1.0  0.03492000000000005  0.6195600000000001  0.9986600000000001  1.0000
  H   H16       1.0  0.034920000000000014  0.11956000000000003  0.9986600000000001  1.0000
  C   C21       1.0  0.04181000000000002  0.41347000000000006  0.24833000000000002  1.0000
  C   C22       1.0  0.04180999999999999  0.91347  0.24833000000000002  1.0000
  C   C23       1.0  0.04747000000000002  0.24595000000000006  0.41302  1.0000
  C   C24       1.0  0.047470000000000005  0.74596  0.41302  1.0000
  C   C25       1.0  0.04692999999999999  0.33736  0.99138  1.0000
  C   C26       1.0  0.04692999999999999  0.83736  0.99138  1.0000
  C   C27       1.0  0.05307999999999999  0.2992  0.86477  1.0000
  C   C28       1.0  0.05307999999999999  0.7992  0.86477  1.0000
  O   O1        1.0  0.06064999999999999  0.27237  0.63125  1.0000
  O   O2        1.0  0.060649999999999996  0.77238  0.63125  1.0000
  O   O3        1.0  0.061360000000000005  0.31229  0.7857400000000002  1.0000
  O   O4        1.0  0.06135999999999991  0.81229  0.7857400000000002  1.0000
  C   C29       1.0  0.05975000000000003  0.21818000000000007  0.11603  1.0000
  C   C30       1.0  0.0597500000000001  0.7181800000000002  0.11603  1.0000
  H   H17       1.0  0.05551  0.04863  0.79439  1.0000
  H   H18       1.0  0.055510000000000004  0.54863  0.79439  1.0000
  C   C31       1.0  0.055740000000000026  0.19938000000000006  0.2618400000000001  1.0000
  C   C32       1.0  0.05573999999999998  0.69938  0.2618400000000001  1.0000
  C   C33       1.0  0.0665800000000001  0.4004700000000001  0.2930700000000001  1.0000
  C   C34       1.0  0.06658000000000007  0.9004700000000002  0.2930700000000001  1.0000
  C   C35       1.0  0.07298000000000003  0.2695100000000001  0.55722  1.0000
  C   C36       1.0  0.07297999999999998  0.76951  0.55722  1.0000
  C   C37       1.0  0.06741000000000001  0.35494  0.17483000000000007  1.0000
  C   C38       1.0  0.06741000000000008  0.8549400000000003  0.17483000000000007  1.0000
  H   H19       1.0  0.0682  0.1902  0.31441  1.0000
  H   H20       1.0  0.06820000000000001  0.6902  0.31441  1.0000
  C   C39       1.0  0.07465000000000004  0.20502000000000006  0.18391  1.0000
  C   C40       1.0  0.07465000000000001  0.70503  0.18391  1.0000
  H   H21       1.0  0.07599000000000003  0.22508000000000003  0.05635  1.0000
  H   H22       1.0  0.07599  0.72508  0.05635  1.0000
  H   H23       1.0  0.9829200000000001  0.33995  0.61769  1.0000
  H   H24       1.0  0.9829200000000001  0.83995  0.61769  1.0000
  H   H25       1.0  0.07584000000000005  0.413  0.35626000000000013  1.0000
  H   H26       1.0  0.07584000000000014  0.9130000000000001  0.35626000000000013  1.0000
  O   O5        1.0  0.07416  0.28273  0.90277  1.0000
  O   O6        1.0  0.07415000000000004  0.7827300000000001  0.90277  1.0000
  C   C41       1.0  0.98635  0.32164000000000004  0.7443300000000003  1.0000
  C   C42       1.0  0.98635  0.82164  0.7443300000000003  1.0000
  C   C43       1.0  0.08029  0.37236  0.25581  1.0000
  C   C44       1.0  0.08029000000000018  0.8723600000000002  0.25581  1.0000
  H   H27       1.0  0.10118  0.19974  0.17631  1.0000
  H   H28       1.0  0.10118000000000003  0.69975  0.17631  1.0000
  Zn  Zn1       1.0  0.20531  0.33871  0.78388  1.0000
  Zn  Zn2       1.0  0.16056  0.29729  0.60198  1.0000
  Zn  Zn3       1.0  0.11423000000000001  0.32338  0.72109  1.0000
  Zn  Zn4       1.0  0.14494000000000007  0.33651000000000003  0.9201200000000003  1.0000
  H   H29       1.0  0.11531  0.24081000000000002  0.73536  1.0000
  C   C45       1.0  0.19172000000000006  0.4171800000000001  0.6132700000000002  1.0000
  O   O7        1.0  0.20563  0.37052  0.9754900000000002  1.0000
  O   O8        1.0  0.25926  0.39946000000000004  0.86889  1.0000
  O   O9        1.0  0.13902  0.28128  0.71784  1.0000
  O   O10       1.0  0.21463000000000002  0.29903  0.6104000000000003  1.0000
  O   O11       1.0  0.19572000000000003  0.27824000000000004  0.85105  1.0000
  O   O12       1.0  0.26003000000000004  0.37062000000000006  0.70108  1.0000
  O   O13       1.0  0.13301  0.25753  0.92574  1.0000
  O   O14       1.0  0.11851  0.30114  0.53627  1.0000
  H   H30       1.0  0.19234000000000007  0.40643  0.7971300000000002  1.0000
  O   O15       1.0  0.16974000000000006  0.36495000000000005  0.8059000000000002  1.0000
  O   O16       1.0  0.14893000000000003  0.39226000000000005  0.64724  1.0000
  O   O17       1.0  0.20855000000000007  0.3900500000000001  0.61029  1.0000
  C   C46       1.0  0.24707  0.41024000000000005  0.9375500000000001  1.0000
  C   C47       1.0  0.25679  0.34240000000000004  0.63725  1.0000
  C   C48       1.0  0.16727000000000003  0.25463  0.91601  1.0000
  Zn  Zn5       1.0  0.38214  0.19307  0.22143000000000004  1.0000
  Zn  Zn6       1.0  0.39139000000000007  0.24723000000000006  0.3954100000000001  1.0000
  C   C49       1.0  0.25864  0.20594000000000004  0.13133  1.0000
  Zn  Zn7       1.0  0.30403  0.20008999999999996  0.28229  1.0000
  Zn  Zn8       1.0  0.3249  0.18610000000000004  0.08249  1.0000
  H   H31       1.0  0.39224  0.28672  0.25662  1.0000
  C   C50       1.0  0.29239000000000004  0.12313000000000002  0.41211000000000003  1.0000
  O   O18       1.0  0.3655100000000001  0.17099  0.03215  1.0000
  O   O19       1.0  0.38071  0.13838  0.14194  1.0000
  O   O20       1.0  0.37509000000000003  0.24823000000000006  0.28054  1.0000
  O   O21       1.0  0.44296  0.24173  0.38229000000000013  1.0000
  O   O22       1.0  0.43818  0.25736  0.15928000000000003  1.0000
  O   O23       1.0  0.39847  0.16260000000000002  0.30515  1.0000
  O   O24       1.0  0.39281000000000005  0.27269000000000004  0.09236000000000003  1.0000
  O   O25       1.0  0.34815000000000007  0.24826000000000006  0.46643  1.0000
  H   H32       1.0  0.29376  0.11646000000000001  0.20426000000000005  1.0000
  O   O26       1.0  0.30604  0.254  0.3682200000000001  1.0000
  O   O27       1.0  0.31534  0.15825  0.19819  1.0000
  O   O28       1.0  0.29727  0.22459000000000004  0.08777000000000003  1.0000
  O   O29       1.0  0.27053000000000005  0.13686000000000004  0.36757  1.0000
  O   O30       1.0  0.25881  0.2027  0.21291  1.0000
  O   O31       1.0  0.33977000000000007  0.15521000000000001  0.4090700000000001  1.0000
  C   C51       1.0  0.36815  0.13383  0.06498  1.0000
  C   C52       1.0  0.43428  0.19627  0.35466  1.0000
  C   C53       1.0  0.43390000000000006  0.28301  0.10043000000000003  1.0000
  C   C54       1.0  0.32523  0.26594  0.44204  1.0000
  C   C55       1.0  0.98257  0.29618  0.8922400000000001  1.0000
  C   C56       1.0  0.95395  0.29530000000000006  0.9517100000000002  1.0000
  H   H33       1.0  0.91774  0.27853  0.93651  1.0000
  C   C57       1.0  0.9700000000000001  0.31059  0.03267  1.0000
  H   H34       1.0  0.08237000000000004  0.35216000000000003  0.00734  1.0000
  C   C58       1.0  0.9646900000000002  0.27996  0.80744  1.0000
  C   C59       1.0  0.92187  0.22476  0.7921  1.0000
  C   C60       1.0  0.9008  0.21174  0.7147300000000002  1.0000
  C   C61       1.0  0.92299  0.2531  0.65178  1.0000
  C   C62       1.0  0.96588  0.30789000000000005  0.66641  1.0000
  H   H35       1.0  0.86765  0.16944000000000006  0.7031900000000002  1.0000
  H   H36       1.0  0.90692  0.24267000000000002  0.59168  1.0000
  H   H37       1.0  0.9044600000000002  0.1924  0.8405200000000003  1.0000
  H   H38       1.0  0.07911000000000006  0.33425000000000005  0.14639  1.0000
  H   H39       1.0  0.10080000000000006  0.36391000000000007  0.28976  1.0000
  C   C63       1.0  0.96262  0.18141000000000002  0.3845200000000001  1.0000
  H   H40       1.0  0.08461  0.27887999999999996  0.3922400000000001  1.0000
  C   C64       1.0  0.9894900000000001  0.18266000000000002  0.52058  1.0000
  C   C65       1.0  0.9520200000000001  0.15832000000000002  0.4644100000000001  1.0000
  H   H41       1.0  0.9147000000000001  0.12684  0.4853300000000001  1.0000
  C   C66       1.0  0.98164  0.15166000000000002  0.5973400000000001  1.0000
  C   C67       1.0  0.99233  0.11537000000000003  0.60053  1.0000
  C   C68       1.0  0.98826  0.08922  0.67498  1.0000
  C   C69       1.0  0.97374  0.09942000000000002  0.74623  1.0000
  C   C70       1.0  0.96298  0.13547  0.74288  1.0000
  C   C71       1.0  0.9658900000000001  0.16052  0.6683500000000002  1.0000
  H   H42       1.0  0.97913  0.22318  0.20948  1.0000
  H   H43       1.0  0.95824  0.18896  0.66639  1.0000
  H   H44       1.0  0.9518700000000001  0.14356  0.7977  1.0000
  H   H45       1.0  0.97054  0.07913  0.80383  1.0000
  C   C72       1.0  0.26396999999999987  0.5714699999999999  0.46739  1.0000
  C   C73       1.0  0.21638000000000007  0.5221500000000001  0.4487  1.0000
  C   C74       1.0  0.1929200000000001  0.4727000000000001  0.49829  1.0000
  H   H46       1.0  0.15666  0.4349  0.48329  1.0000
  C   C75       1.0  0.21658  0.47114  0.5653400000000002  1.0000
  C   C76       1.0  0.26373  0.52076  0.58505  1.0000
  C   C77       1.0  0.28657000000000005  0.57053  0.53687  1.0000
  H   H47       1.0  0.3225600000000001  0.6084700000000001  0.5527700000000002  1.0000
  C   C78       1.0  0.29019  0.52122  0.65488  1.0000
  C   C79       1.0  0.29770000000000013  0.5507500000000001  0.7258  1.0000
  C   C80       1.0  0.3269700000000001  0.5563600000000001  0.78811  1.0000
  C   C81       1.0  0.34858000000000006  0.53218  0.78016  1.0000
  C   C82       1.0  0.34249000000000007  0.5042900000000001  0.70859  1.0000
  C   C83       1.0  0.3138500000000001  0.49942000000000003  0.64576  1.0000
  C   C84       1.0  0.19115  0.52159  0.37701  1.0000
  C   C85       1.0  0.16112000000000012  0.5351300000000001  0.3864900000000001  1.0000
  C   C86       1.0  0.14582  0.54706  0.31746  1.0000
  C   C87       1.0  0.15977000000000002  0.54466  0.23886000000000004  1.0000
  C   C88       1.0  0.1882300000000001  0.5292300000000001  0.22910000000000005  1.0000
  C   C89       1.0  0.20313000000000006  0.5166  0.29787  1.0000
  H   H48       1.0  0.12358  0.55874  0.32493  1.0000
  H   H49       1.0  0.14861  0.55486  0.18554000000000007  1.0000
  H   H50       1.0  0.2003100000000001  0.5292200000000001  0.16852  1.0000
  H   H51       1.0  0.22643000000000002  0.50639  0.2898600000000001  1.0000
  H   H52       1.0  0.15115000000000012  0.5384200000000001  0.4472100000000001  1.0000
  H   H53       1.0  0.2814000000000001  0.5698200000000001  0.7323200000000002  1.0000
  H   H54       1.0  0.33334  0.58004  0.84205  1.0000
  H   H55       1.0  0.3105800000000001  0.4795800000000001  0.5899000000000002  1.0000
  H   H56       1.0  0.3604400000000001  0.4870300000000001  0.7013100000000002  1.0000
  H   H57       1.0  0.37114000000000014  0.53641  0.8284300000000002  1.0000
  C   C90       1.0  0.3393200000000001  0.57817  0.028680000000000008  1.0000
  C   C91       1.0  0.35728000000000015  0.5495200000000001  0.0173  1.0000
  C   C92       1.0  0.32635000000000003  0.49415  0.98778  1.0000
  H   H58       1.0  0.3400500000000001  0.47217000000000003  0.9775200000000002  1.0000
  C   C93       1.0  0.27833  0.4677700000000001  0.9689000000000002  1.0000
  C   C94       1.0  0.2607200000000001  0.49693  0.98111  1.0000
  C   C95       1.0  0.29150000000000004  0.55165  0.010420000000000004  1.0000
  H   H59       1.0  0.27773  0.57365  0.0204  1.0000
  C   C96       1.0  0.2104300000000001  0.47186000000000006  0.96367  1.0000
  C   C97       1.0  0.20032  0.48213  0.88592  1.0000
  C   C98       1.0  0.16184000000000004  0.48189  0.87593  1.0000
  C   C99       1.0  0.13531000000000007  0.47537  0.9442600000000002  1.0000
  C   C100      1.0  0.14535999999999993  0.46562  0.0218  1.0000
  C   C101      1.0  0.17999000000000007  0.45914  0.030340000000000006  1.0000
  C   C102      1.0  0.4091500000000002  0.5786  0.02691  1.0000
  C   C103      1.0  0.42286  0.55454  0.07907  1.0000
  C   C104      1.0  0.4683  0.56962  0.06914  1.0000
  C   C105      1.0  0.5002  0.60886  0.00758  1.0000
  C   C106      1.0  0.48821  0.63623  0.9600500000000002  1.0000
  C   C107      1.0  0.4431800000000001  0.62207  0.97094  1.0000
  H   H60       1.0  0.47833000000000003  0.54997  0.10794000000000001  1.0000
  H   H61       1.0  0.5349300000000001  0.6195600000000001  0.9986600000000001  1.0000
  H   H62       1.0  0.51366  0.6681  0.91446  1.0000
  H   H63       1.0  0.4339400000000001  0.64314  0.93363  1.0000
  H   H64       1.0  0.3973200000000001  0.5219100000000001  0.12401000000000001  1.0000
  H   H65       1.0  0.22448000000000015  0.4946500000000001  0.83479  1.0000
  H   H66       1.0  0.1543400000000001  0.4898300000000001  0.8158  1.0000
  H   H67       1.0  0.18709000000000006  0.45098  0.09078  1.0000
  H   H68       1.0  0.12650000000000003  0.46334000000000003  0.07527  1.0000
  H   H69       1.0  0.10725  0.47828  0.9372600000000002  1.0000
  C   C108      1.0  0.17501000000000005  0.22615000000000002  0.9795100000000002  1.0000
  C   C109      1.0  0.18196  0.188  0.9569  1.0000
  C   C110      1.0  0.20502000000000006  0.17636  0.01096  1.0000
  H   H70       1.0  0.21344000000000002  0.15025  0.9911800000000001  1.0000
  C   C111      1.0  0.21940000000000007  0.20065  0.08891  1.0000
  C   C112      1.0  0.20380999999999996  0.22969  0.11661000000000003  1.0000
  C   C113      1.0  0.18337  0.24413  0.06087  1.0000
  H   H71       1.0  0.17548  0.27081  0.08021  1.0000
  C   C114      1.0  0.20681000000000008  0.24298  0.20382  1.0000
  C   C115      1.0  0.17483000000000007  0.19957000000000003  0.26171  1.0000
  C   C116      1.0  0.17935000000000004  0.21175  0.34503  1.0000
  C   C117      1.0  0.21542000000000006  0.26721  0.37066  1.0000
  C   C118      1.0  0.24683  0.31065  0.31287  1.0000
  C   C119      1.0  0.24251000000000003  0.29866000000000004  0.22962  1.0000
  C   C120      1.0  0.16278  0.15792000000000003  0.8788600000000002  1.0000
  C   C121      1.0  0.19138  0.18212  0.80695  1.0000
  C   C122      1.0  0.17019  0.16046  0.73064  1.0000
  C   C123      1.0  0.1214  0.11197  0.72614  1.0000
  C   C124      1.0  0.09337000000000002  0.08593000000000003  0.79796  1.0000
  C   C125      1.0  0.11385000000000002  0.10906000000000003  0.8742200000000002  1.0000
  H   H72       1.0  0.19112000000000007  0.18228  0.6750200000000002  1.0000
  H   H73       1.0  0.10517000000000001  0.09503000000000002  0.6669900000000002  1.0000
  H   H74       1.0  0.09144000000000002  0.09009000000000003  0.9293700000000003  1.0000
  H   H75       1.0  0.22922000000000003  0.2197  0.8099  1.0000
  H   H76       1.0  0.14707  0.15642  0.24221  1.0000
  H   H77       1.0  0.15514000000000006  0.17815000000000003  0.3897700000000001  1.0000
  H   H78       1.0  0.26731  0.33238  0.18533  1.0000
  H   H79       1.0  0.27494  0.35346  0.33252  1.0000
  H   H80       1.0  0.21923000000000004  0.27639  0.43527  1.0000
  C   C126      1.0  0.29888  0.35023  0.60665  1.0000
  C   C127      1.0  0.3154  0.37131  0.52506  1.0000
  C   C128      1.0  0.32647  0.34515  0.47338  1.0000
  H   H81       1.0  0.3393  0.36136  0.41109  1.0000
  C   C129      1.0  0.31823  0.29624  0.50013  1.0000
  C   C130      1.0  0.30604  0.27861  0.58366  1.0000
  C   C131      1.0  0.30374000000000007  0.3116300000000001  0.638  1.0000
  H   H82       1.0  0.29459000000000013  0.2983100000000001  0.7020800000000001  1.0000
  C   C132      1.0  0.28631000000000006  0.22098  0.61104  1.0000
  C   C133      1.0  0.24604  0.17292  0.57163  1.0000
  C   C134      1.0  0.22175000000000003  0.11879  0.60631  1.0000
  C   C135      1.0  0.2369  0.11225000000000002  0.68073  1.0000
  C   C136      1.0  0.2777800000000001  0.15957  0.71888  1.0000
  C   C137      1.0  0.30295000000000005  0.21374000000000004  0.68357  1.0000
  C   C138      1.0  0.31821000000000005  0.41803000000000007  0.49096  1.0000
  C   C139      1.0  0.36365000000000003  0.47044000000000014  0.47089  1.0000
  C   C140      1.0  0.36681  0.51139  0.42486  1.0000
  C   C141      1.0  0.3247600000000001  0.50143  0.4018  1.0000
  C   C142      1.0  0.2793900000000001  0.44945  0.4216600000000001  1.0000
  C   C143      1.0  0.276  0.40745  0.4649800000000001  1.0000
  H   H83       1.0  0.4018300000000002  0.5501300000000001  0.4051  1.0000
  H   H84       1.0  0.32734000000000013  0.5336600000000001  0.3674300000000001  1.0000
  H   H85       1.0  0.24685000000000004  0.44135  0.40237  1.0000
  H   H86       1.0  0.24078000000000002  0.36642  0.4765000000000001  1.0000
  H   H87       1.0  0.39647000000000004  0.47855  0.48835  1.0000
  H   H88       1.0  0.23207  0.17775000000000002  0.5166400000000002  1.0000
  H   H89       1.0  0.19017  0.08207  0.57694  1.0000
  H   H90       1.0  0.33423  0.25024  0.71411  1.0000
  H   H91       1.0  0.28964  0.15436  0.7763700000000002  1.0000
  H   H92       1.0  0.21677000000000002  0.07049  0.70907  1.0000
  Zn  Zn9       1.0  0.20531000000000016  0.8387100000000001  0.78388  1.0000
  Zn  Zn10      1.0  0.16055000000000005  0.79729  0.60198  1.0000
  Zn  Zn11      1.0  0.11423000000000016  0.8233800000000002  0.72109  1.0000
  Zn  Zn12      1.0  0.14494000000000007  0.8365100000000001  0.9201200000000003  1.0000
  H   H93       1.0  0.11531000000000005  0.7408100000000001  0.73536  1.0000
  C   C144      1.0  0.19172000000000014  0.9171900000000002  0.6132700000000002  1.0000
  O   O32       1.0  0.20563  0.87052  0.9754900000000002  1.0000
  O   O33       1.0  0.25925999999999993  0.8994600000000001  0.86889  1.0000
  O   O34       1.0  0.13901999999999998  0.78128  0.71784  1.0000
  O   O35       1.0  0.21462999999999996  0.79903  0.6104000000000003  1.0000
  O   O36       1.0  0.19571999999999998  0.77824  0.85105  1.0000
  O   O37       1.0  0.2600300000000001  0.87062  0.70108  1.0000
  O   O38       1.0  0.13300000000000003  0.75753  0.92574  1.0000
  O   O39       1.0  0.11850999999999991  0.80114  0.53627  1.0000
  H   H94       1.0  0.19234000000000004  0.90643  0.7971300000000002  1.0000
  O   O40       1.0  0.16973999999999992  0.86495  0.8059000000000002  1.0000
  O   O41       1.0  0.1489300000000001  0.8922600000000002  0.64725  1.0000
  O   O42       1.0  0.20854999999999999  0.89005  0.61029  1.0000
  C   C145      1.0  0.24707  0.91024  0.9375500000000001  1.0000
  C   C146      1.0  0.25678999999999996  0.8424000000000001  0.63725  1.0000
  C   C147      1.0  0.16727000000000003  0.75462  0.91601  1.0000
  Zn  Zn13      1.0  0.38214  0.69307  0.22143000000000004  1.0000
  Zn  Zn14      1.0  0.39139  0.74723  0.3954100000000001  1.0000
  C   C148      1.0  0.25864  0.70594  0.13133  1.0000
  Zn  Zn15      1.0  0.30403  0.70008  0.28229  1.0000
  Zn  Zn16      1.0  0.32490000000000024  0.6861000000000003  0.08249  1.0000
  H   H95       1.0  0.3922300000000001  0.7867200000000001  0.25662  1.0000
  C   C149      1.0  0.29239  0.62313  0.41211000000000003  1.0000
  O   O43       1.0  0.3655100000000001  0.67099  0.03215  1.0000
  O   O44       1.0  0.38071  0.63838  0.14194  1.0000
  O   O45       1.0  0.37509000000000015  0.7482300000000002  0.28054  1.0000
  O   O46       1.0  0.44296  0.74173  0.38229000000000013  1.0000
  O   O47       1.0  0.43818  0.75736  0.15928000000000003  1.0000
  O   O48       1.0  0.39847000000000005  0.6626000000000001  0.30515  1.0000
  O   O49       1.0  0.39281  0.77269  0.09236000000000003  1.0000
  O   O50       1.0  0.34815  0.74826  0.46643  1.0000
  H   H96       1.0  0.29376  0.61646  0.20426000000000005  1.0000
  O   O51       1.0  0.30604  0.754  0.3682200000000001  1.0000
  O   O52       1.0  0.3153400000000001  0.6582500000000001  0.19819  1.0000
  O   O53       1.0  0.29726000000000014  0.7245900000000002  0.08777000000000003  1.0000
  O   O54       1.0  0.27053000000000005  0.6368600000000001  0.36757  1.0000
  O   O55       1.0  0.25881000000000015  0.7027000000000002  0.21291  1.0000
  O   O56       1.0  0.33977000000000007  0.65521  0.4090700000000001  1.0000
  C   C150      1.0  0.36815  0.63383  0.06498  1.0000
  C   C151      1.0  0.43428  0.69628  0.35466  1.0000
  C   C152      1.0  0.43390000000000006  0.7830100000000001  0.10043000000000003  1.0000
  C   C153      1.0  0.32523  0.76594  0.44204  1.0000
  C   C154      1.0  0.98257  0.7961800000000002  0.8922400000000001  1.0000
  C   C155      1.0  0.95395  0.7953  0.9517200000000002  1.0000
  H   H97       1.0  0.91774  0.77853  0.93651  1.0000
  C   C156      1.0  0.9700000000000001  0.81059  0.03267  1.0000
  H   H98       1.0  0.08236000000000007  0.8521600000000001  0.00734  1.0000
  C   C157      1.0  0.9646900000000002  0.77996  0.80744  1.0000
  C   C158      1.0  0.92187  0.7247600000000002  0.7921  1.0000
  C   C159      1.0  0.9008  0.7117400000000002  0.7147300000000002  1.0000
  C   C160      1.0  0.92299  0.7531  0.65178  1.0000
  C   C161      1.0  0.96588  0.8079000000000002  0.66641  1.0000
  H   H99       1.0  0.8676500000000004  0.6694500000000002  0.7031900000000002  1.0000
  H   H100      1.0  0.90692  0.74267  0.59168  1.0000
  H   H101      1.0  0.9044600000000002  0.6924  0.8405200000000003  1.0000
  H   H102      1.0  0.07909999999999999  0.83425  0.14639  1.0000
  H   H103      1.0  0.10080000000000015  0.8639100000000002  0.28976  1.0000
  C   C162      1.0  0.9626100000000001  0.68141  0.3845200000000001  1.0000
  H   H104      1.0  0.08461  0.77889  0.3922400000000001  1.0000
  C   C163      1.0  0.9894900000000001  0.68266  0.52058  1.0000
  C   C164      1.0  0.9520200000000001  0.6583200000000001  0.4644100000000001  1.0000
  H   H105      1.0  0.9147000000000001  0.62684  0.4853300000000001  1.0000
  C   C165      1.0  0.98164  0.65166  0.5973400000000001  1.0000
  C   C166      1.0  0.99233  0.61537  0.60053  1.0000
  C   C167      1.0  0.98826  0.58922  0.67498  1.0000
  C   C168      1.0  0.97375  0.59942  0.74623  1.0000
  C   C169      1.0  0.96298  0.63548  0.74289  1.0000
  C   C170      1.0  0.9658900000000001  0.6605200000000001  0.6683500000000002  1.0000
  H   H106      1.0  0.97913  0.7231800000000002  0.20948  1.0000
  H   H107      1.0  0.95824  0.68896  0.66639  1.0000
  H   H108      1.0  0.9518700000000001  0.6435600000000001  0.7977  1.0000
  H   H109      1.0  0.97054  0.5791300000000001  0.80383  1.0000
  C   C171      1.0  0.26397  0.07148  0.46739  1.0000
  C   C172      1.0  0.21638  0.022149999999999996  0.4487  1.0000
  C   C173      1.0  0.1929200000000001  0.9727000000000002  0.49829  1.0000
  H   H110      1.0  0.1566600000000001  0.93491  0.4833  1.0000
  C   C174      1.0  0.2165800000000001  0.97115  0.5653400000000002  1.0000
  C   C175      1.0  0.26373  0.02076  0.58506  1.0000
  C   C176      1.0  0.28657  0.07053  0.53687  1.0000
  H   H111      1.0  0.32257  0.10847000000000002  0.5527700000000002  1.0000
  C   C177      1.0  0.2902  0.021219999999999996  0.65488  1.0000
  C   C178      1.0  0.2977  0.05075  0.7258  1.0000
  C   C179      1.0  0.32697000000000004  0.056360000000000014  0.78811  1.0000
  C   C180      1.0  0.34858000000000006  0.03218  0.78016  1.0000
  C   C181      1.0  0.34249  0.004290000000000001  0.70859  1.0000
  C   C182      1.0  0.31385000000000013  0.9994200000000002  0.64576  1.0000
  C   C183      1.0  0.19115  0.021590000000000005  0.37701  1.0000
  C   C184      1.0  0.16112  0.03513  0.3864900000000001  1.0000
  C   C185      1.0  0.14582  0.047060000000000005  0.31745  1.0000
  C   C186      1.0  0.15977000000000002  0.044660000000000005  0.23886000000000004  1.0000
  C   C187      1.0  0.18823000000000004  0.029229999999999996  0.22910000000000005  1.0000
  C   C188      1.0  0.20314  0.0166  0.29787  1.0000
  H   H112      1.0  0.12358  0.05874  0.32493  1.0000
  H   H113      1.0  0.14861  0.05486000000000001  0.18553000000000006  1.0000
  H   H114      1.0  0.20032  0.029220000000000006  0.16852  1.0000
  H   H115      1.0  0.22643000000000002  0.00639  0.2898600000000001  1.0000
  H   H116      1.0  0.15116000000000002  0.03842000000000002  0.4472  1.0000
  H   H117      1.0  0.2814000000000001  0.06982000000000001  0.7323200000000002  1.0000
  H   H118      1.0  0.33334  0.08004  0.84205  1.0000
  H   H119      1.0  0.3105799999999999  0.9795899999999997  0.5899000000000002  1.0000
  H   H120      1.0  0.36044  0.98704  0.7013100000000002  1.0000
  H   H121      1.0  0.37114000000000014  0.03641  0.8284300000000002  1.0000
  C   C189      1.0  0.3393200000000001  0.07817  0.028680000000000008  1.0000
  C   C190      1.0  0.35728  0.04952000000000001  0.0173  1.0000
  C   C191      1.0  0.32635000000000003  0.9941500000000001  0.98778  1.0000
  H   H122      1.0  0.3400500000000001  0.97216  0.9775200000000002  1.0000
  C   C192      1.0  0.2783300000000002  0.9677700000000002  0.9689000000000002  1.0000
  C   C193      1.0  0.2607200000000002  0.9969300000000001  0.98111  1.0000
  C   C194      1.0  0.29150000000000004  0.05165  0.010420000000000004  1.0000
  H   H123      1.0  0.27773  0.07365  0.0204  1.0000
  C   C195      1.0  0.2104300000000002  0.9718600000000002  0.96367  1.0000
  C   C196      1.0  0.2003200000000001  0.98213  0.88592  1.0000
  C   C197      1.0  0.16184000000000018  0.9818900000000003  0.87594  1.0000
  C   C198      1.0  0.1353100000000001  0.9753700000000001  0.9442600000000002  1.0000
  C   C199      1.0  0.1453600000000001  0.9656200000000003  0.0218  1.0000
  C   C200      1.0  0.17999  0.95914  0.03035  1.0000
  C   C201      1.0  0.40915  0.0786  0.02691  1.0000
  C   C202      1.0  0.42286  0.05454000000000001  0.07907  1.0000
  C   C203      1.0  0.4683  0.06962  0.06914  1.0000
  C   C204      1.0  0.5002  0.10886  0.00758  1.0000
  C   C205      1.0  0.48821  0.13623  0.9600500000000002  1.0000
  C   C206      1.0  0.4431800000000001  0.12207  0.97094  1.0000
  H   H124      1.0  0.47833000000000003  0.04996000000000001  0.10794000000000001  1.0000
  H   H125      1.0  0.53492  0.11956000000000003  0.9986600000000001  1.0000
  H   H126      1.0  0.51366  0.1681  0.91445  1.0000
  H   H127      1.0  0.4339400000000001  0.14314  0.93363  1.0000
  H   H128      1.0  0.39732  0.021910000000000006  0.12401000000000001  1.0000
  H   H129      1.0  0.22447  0.99465  0.83479  1.0000
  H   H130      1.0  0.1543400000000002  0.9898300000000002  0.81581  1.0000
  H   H131      1.0  0.18709000000000015  0.9509800000000003  0.09078  1.0000
  H   H132      1.0  0.1265000000000001  0.9633400000000002  0.07528  1.0000
  H   H133      1.0  0.10725  0.97828  0.93727  1.0000
  C   C207      1.0  0.17500999999999997  0.72615  0.9795100000000002  1.0000
  C   C208      1.0  0.18195999999999996  0.688  0.9569  1.0000
  C   C209      1.0  0.20502000000000006  0.6763500000000001  0.01096  1.0000
  H   H134      1.0  0.21344  0.65025  0.9911800000000001  1.0000
  C   C210      1.0  0.2194000000000001  0.70065  0.08891  1.0000
  C   C211      1.0  0.20381000000000007  0.72969  0.11661000000000003  1.0000
  C   C212      1.0  0.18337000000000006  0.7441300000000001  0.06087  1.0000
  H   H135      1.0  0.17548  0.7708  0.0802  1.0000
  C   C213      1.0  0.20681000000000005  0.74298  0.20382  1.0000
  C   C214      1.0  0.17483000000000015  0.6995700000000002  0.26171  1.0000
  C   C215      1.0  0.17934999999999995  0.71175  0.34503  1.0000
  C   C216      1.0  0.21542  0.76721  0.37066  1.0000
  C   C217      1.0  0.24683000000000013  0.8106500000000002  0.31287  1.0000
  C   C218      1.0  0.24250000000000002  0.79865  0.22962  1.0000
  C   C219      1.0  0.16277000000000005  0.65792  0.8788600000000002  1.0000
  C   C220      1.0  0.19138000000000005  0.6821200000000001  0.80695  1.0000
  C   C221      1.0  0.17017999999999994  0.66046  0.73064  1.0000
  C   C222      1.0  0.12140000000000004  0.61197  0.72614  1.0000
  C   C223      1.0  0.09337000000000001  0.58593  0.79796  1.0000
  C   C224      1.0  0.11385000000000009  0.6090600000000002  0.8742200000000002  1.0000
  H   H136      1.0  0.19112000000000007  0.68228  0.6750200000000002  1.0000
  H   H137      1.0  0.10517000000000001  0.59503  0.66698  1.0000
  H   H138      1.0  0.09143999999999997  0.59009  0.9293700000000003  1.0000
  H   H139      1.0  0.22922000000000003  0.7197  0.8099  1.0000
  H   H140      1.0  0.1470700000000001  0.6564200000000001  0.24221  1.0000
  H   H141      1.0  0.15514000000000008  0.67815  0.3897700000000001  1.0000
  H   H142      1.0  0.26731000000000005  0.83238  0.18533  1.0000
  H   H143      1.0  0.27494000000000013  0.85346  0.33252  1.0000
  H   H144      1.0  0.21923000000000015  0.7763900000000001  0.43526  1.0000
  C   C225      1.0  0.29888000000000015  0.8502300000000003  0.60665  1.0000
  C   C226      1.0  0.3153900000000001  0.87131  0.52506  1.0000
  C   C227      1.0  0.3264700000000001  0.8451500000000002  0.47338  1.0000
  H   H145      1.0  0.3393000000000001  0.86136  0.41109  1.0000
  C   C228      1.0  0.3182300000000001  0.7962400000000001  0.50013  1.0000
  C   C229      1.0  0.30604000000000003  0.7786100000000001  0.58366  1.0000
  C   C230      1.0  0.3037400000000002  0.8116300000000002  0.63799  1.0000
  H   H146      1.0  0.2945900000000002  0.79831  0.7020800000000001  1.0000
  C   C231      1.0  0.28632000000000024  0.7209800000000002  0.61104  1.0000
  C   C232      1.0  0.24604000000000012  0.6729200000000002  0.57163  1.0000
  C   C233      1.0  0.22175000000000003  0.61879  0.60631  1.0000
  C   C234      1.0  0.23690000000000005  0.6122500000000001  0.68073  1.0000
  C   C235      1.0  0.27779000000000015  0.6595800000000002  0.71889  1.0000
  C   C236      1.0  0.30295  0.71374  0.68357  1.0000
  C   C237      1.0  0.31820000000000015  0.9180300000000002  0.49096  1.0000
  C   C238      1.0  0.3636500000000002  0.9704400000000001  0.47089  1.0000
  C   C239      1.0  0.36681  0.011389999999999996  0.4248500000000001  1.0000
  C   C240      1.0  0.32475  0.0014299999999999981  0.4017900000000001  1.0000
  C   C241      1.0  0.27939000000000014  0.94945  0.4216600000000001  1.0000
  C   C242      1.0  0.27599000000000007  0.9074500000000001  0.4649800000000001  1.0000
  H   H147      1.0  0.40183000000000013  0.05013000000000001  0.4051  1.0000
  H   H148      1.0  0.3273400000000001  0.03366  0.36742  1.0000
  H   H149      1.0  0.24685000000000004  0.9413500000000001  0.40237  1.0000
  H   H150      1.0  0.24078000000000016  0.8664200000000002  0.4765000000000001  1.0000
  H   H151      1.0  0.3964700000000001  0.97855  0.48835  1.0000
  H   H152      1.0  0.23207  0.6777500000000001  0.5166400000000002  1.0000
  H   H153      1.0  0.1901700000000001  0.5820700000000001  0.57694  1.0000
  H   H154      1.0  0.33423  0.75025  0.71411  1.0000
  H   H155      1.0  0.28965  0.65436  0.7763700000000002  1.0000
  H   H156      1.0  0.21677000000000002  0.5705  0.70908  1.0000
  Zn  Zn17      1.0  0.70531  0.33871  0.78388  1.0000
  Zn  Zn18      1.0  0.66055  0.29729  0.60198  1.0000
  C   C243      1.0  0.55308  0.2992  0.86477  1.0000
  Zn  Zn19      1.0  0.61423  0.32338  0.72109  1.0000
  Zn  Zn20      1.0  0.6449400000000002  0.33651000000000003  0.9201200000000003  1.0000
  H   H157      1.0  0.61531  0.24081000000000002  0.73536  1.0000
  C   C244      1.0  0.6917200000000001  0.4171800000000001  0.6132700000000002  1.0000
  O   O57       1.0  0.70563  0.37052  0.9754900000000002  1.0000
  O   O58       1.0  0.7592600000000003  0.39946000000000004  0.86889  1.0000
  O   O59       1.0  0.63902  0.28128  0.71784  1.0000
  O   O60       1.0  0.71463  0.29903  0.6104000000000003  1.0000
  O   O61       1.0  0.6957200000000001  0.27824000000000004  0.85105  1.0000
  O   O62       1.0  0.7600300000000002  0.37062000000000006  0.70108  1.0000
  O   O63       1.0  0.633  0.25753  0.92574  1.0000
  O   O64       1.0  0.61851  0.30114  0.53627  1.0000
  H   H158      1.0  0.6923400000000001  0.40643  0.7971300000000002  1.0000
  O   O65       1.0  0.56065  0.27237  0.63125  1.0000
  O   O66       1.0  0.6697400000000001  0.36495000000000005  0.8059000000000002  1.0000
  O   O67       1.0  0.57415  0.28273  0.90277  1.0000
  O   O68       1.0  0.6489300000000001  0.39226000000000005  0.64724  1.0000
  O   O69       1.0  0.5613600000000001  0.31229  0.7857400000000002  1.0000
  O   O70       1.0  0.7085500000000002  0.3900500000000001  0.61029  1.0000
  C   C245      1.0  0.7470700000000002  0.41024000000000005  0.9375500000000001  1.0000
  C   C246      1.0  0.7567900000000001  0.34240000000000004  0.63725  1.0000
  C   C247      1.0  0.6672700000000001  0.25463  0.91601  1.0000
  C   C248      1.0  0.5729800000000002  0.2695100000000001  0.55722  1.0000
  Zn  Zn21      1.0  0.88214  0.19307  0.22143000000000004  1.0000
  Zn  Zn22      1.0  0.89139  0.24723000000000006  0.3954100000000001  1.0000
  C   C249      1.0  0.7586500000000003  0.20594000000000004  0.13133  1.0000
  Zn  Zn23      1.0  0.8040300000000002  0.20008999999999996  0.28229  1.0000
  Zn  Zn24      1.0  0.8249000000000001  0.18610000000000004  0.08249  1.0000
  H   H159      1.0  0.8922400000000001  0.28672  0.25662  1.0000
  C   C250      1.0  0.79239  0.12313000000000002  0.41211000000000003  1.0000
  O   O71       1.0  0.8655100000000002  0.17099  0.03215  1.0000
  O   O72       1.0  0.8807100000000002  0.13838  0.14194  1.0000
  O   O73       1.0  0.87509  0.24823000000000006  0.28054  1.0000
  O   O74       1.0  0.9429600000000001  0.24173  0.38229000000000013  1.0000
  O   O75       1.0  0.93818  0.25736  0.15928000000000003  1.0000
  O   O76       1.0  0.89847  0.16260000000000002  0.30515  1.0000
  O   O77       1.0  0.8928100000000001  0.27269000000000004  0.09236000000000003  1.0000
  O   O78       1.0  0.84815  0.24826000000000006  0.46643  1.0000
  H   H160      1.0  0.79376  0.11646000000000001  0.20426000000000005  1.0000
  O   O79       1.0  0.80604  0.254  0.3682200000000001  1.0000
  O   O80       1.0  0.8153400000000002  0.15825  0.19819  1.0000
  O   O81       1.0  0.7972700000000003  0.22459000000000004  0.08777000000000003  1.0000
  O   O82       1.0  0.77053  0.13686000000000004  0.36757  1.0000
  O   O83       1.0  0.75881  0.2027  0.21291  1.0000
  O   O84       1.0  0.83977  0.15521000000000001  0.4090700000000001  1.0000
  C   C251      1.0  0.8681500000000002  0.13383  0.06498  1.0000
  C   C252      1.0  0.9342800000000001  0.19627  0.35466  1.0000
  C   C253      1.0  0.9339000000000001  0.28301  0.10043000000000003  1.0000
  C   C254      1.0  0.82523  0.26594  0.44204  1.0000
  C   C255      1.0  0.5281  0.31343  0.91443  1.0000
  C   C256      1.0  0.48257  0.29618  0.8922400000000001  1.0000
  C   C257      1.0  0.4539500000000001  0.29530000000000006  0.9517100000000002  1.0000
  H   H161      1.0  0.41774  0.27853  0.93651  1.0000
  C   C258      1.0  0.47  0.31059  0.03267  1.0000
  C   C259      1.0  0.51881  0.338  0.049860000000000015  1.0000
  C   C260      1.0  0.54693  0.33736  0.99138  1.0000
  H   H162      1.0  0.5823700000000003  0.35216000000000003  0.00734  1.0000
  C   C261      1.0  0.53949  0.36434000000000005  0.13115  1.0000
  C   C262      1.0  0.5289700000000002  0.39636  0.16717000000000007  1.0000
  C   C263      1.0  0.54181  0.41347000000000006  0.24833000000000002  1.0000
  C   C264      1.0  0.5665800000000003  0.4004700000000001  0.2930700000000001  1.0000
  C   C265      1.0  0.58029  0.37236  0.25581  1.0000
  C   C266      1.0  0.56741  0.35494  0.17483000000000007  1.0000
  C   C267      1.0  0.46469  0.27996  0.80744  1.0000
  C   C268      1.0  0.4218700000000001  0.22476  0.7921  1.0000
  C   C269      1.0  0.4008  0.21174  0.7147300000000002  1.0000
  C   C270      1.0  0.42299  0.2531  0.65178  1.0000
  C   C271      1.0  0.46588  0.30789000000000005  0.66641  1.0000
  C   C272      1.0  0.48636  0.32164000000000004  0.7443300000000003  1.0000
  H   H163      1.0  0.3676500000000001  0.16944000000000006  0.7031900000000002  1.0000
  H   H164      1.0  0.40692  0.24267000000000002  0.59168  1.0000
  H   H165      1.0  0.48292000000000007  0.33995  0.61769  1.0000
  H   H166      1.0  0.51869  0.36471000000000003  0.7559500000000002  1.0000
  H   H167      1.0  0.40446000000000004  0.1924  0.8405200000000003  1.0000
  H   H168      1.0  0.5098000000000001  0.4066900000000001  0.13302  1.0000
  H   H169      1.0  0.5324800000000001  0.4367400000000001  0.27658  1.0000
  H   H170      1.0  0.57911  0.33425000000000005  0.14639  1.0000
  H   H171      1.0  0.6008  0.36391000000000007  0.28976  1.0000
  H   H172      1.0  0.5758400000000001  0.413  0.35626000000000013  1.0000
  C   C273      1.0  0.46262000000000003  0.18141000000000002  0.3845200000000001  1.0000
  C   C274      1.0  0.51072  0.21461  0.3560200000000001  1.0000
  C   C275      1.0  0.5474700000000002  0.24595000000000006  0.41302  1.0000
  H   H173      1.0  0.58461  0.27887999999999996  0.3922400000000001  1.0000
  C   C276      1.0  0.5361800000000001  0.23237000000000002  0.49673000000000006  1.0000
  C   C277      1.0  0.48949000000000004  0.18266000000000002  0.52058  1.0000
  C   C278      1.0  0.45202000000000003  0.15832000000000002  0.4644100000000001  1.0000
  H   H174      1.0  0.4147  0.12684  0.4853300000000001  1.0000
  C   C279      1.0  0.48164  0.15166000000000002  0.5973400000000001  1.0000
  C   C280      1.0  0.49233000000000005  0.11537000000000003  0.60053  1.0000
  C   C281      1.0  0.48826  0.08922  0.67498  1.0000
  C   C282      1.0  0.47374  0.09942000000000002  0.74623  1.0000
  C   C283      1.0  0.46298  0.13547  0.74288  1.0000
  C   C284      1.0  0.4658900000000001  0.16052  0.6683500000000002  1.0000
  C   C285      1.0  0.52241  0.20812  0.2723300000000001  1.0000
  C   C286      1.0  0.55574  0.19938000000000006  0.2618400000000001  1.0000
  C   C287      1.0  0.57465  0.20502000000000006  0.18391  1.0000
  C   C288      1.0  0.55975  0.21818000000000007  0.11603  1.0000
  C   C289      1.0  0.5229800000000001  0.22096000000000005  0.12485000000000002  1.0000
  C   C290      1.0  0.5047  0.21662  0.20287  1.0000
  H   H175      1.0  0.6011800000000002  0.19974  0.17631  1.0000
  H   H176      1.0  0.57599  0.22508000000000003  0.05635  1.0000
  H   H177      1.0  0.51017  0.22906000000000007  0.07167  1.0000
  H   H178      1.0  0.47913000000000006  0.22318  0.20948  1.0000
  H   H179      1.0  0.5682  0.1902  0.31441  1.0000
  H   H180      1.0  0.50428  0.10801  0.5456600000000003  1.0000
  H   H181      1.0  0.49667000000000006  0.06139000000000001  0.67756  1.0000
  H   H182      1.0  0.45824000000000004  0.18896  0.66639  1.0000
  H   H183      1.0  0.45187  0.14356  0.7977  1.0000
  H   H184      1.0  0.47054  0.07913  0.80383  1.0000
  C   C291      1.0  0.7639700000000001  0.5714699999999999  0.46739  1.0000
  C   C292      1.0  0.7163800000000002  0.5221500000000001  0.4487  1.0000
  C   C293      1.0  0.6929200000000001  0.4727000000000001  0.49829  1.0000
  H   H185      1.0  0.65666  0.4349  0.48329  1.0000
  C   C294      1.0  0.71658  0.47114  0.5653400000000002  1.0000
  C   C295      1.0  0.7637300000000001  0.52076  0.58505  1.0000
  C   C296      1.0  0.7865700000000002  0.57053  0.53687  1.0000
  H   H186      1.0  0.8225600000000002  0.6084700000000001  0.5527700000000002  1.0000
  C   C297      1.0  0.7902  0.52122  0.65488  1.0000
  C   C298      1.0  0.7977000000000002  0.5507500000000001  0.7258  1.0000
  C   C299      1.0  0.8269700000000002  0.5563600000000001  0.78811  1.0000
  C   C300      1.0  0.8485800000000001  0.53218  0.78016  1.0000
  C   C301      1.0  0.8424900000000002  0.5042900000000001  0.70859  1.0000
  C   C302      1.0  0.8138500000000002  0.49942000000000003  0.64576  1.0000
  C   C303      1.0  0.6911500000000003  0.52159  0.37701  1.0000
  C   C304      1.0  0.6611200000000002  0.5351300000000001  0.3864900000000001  1.0000
  C   C305      1.0  0.64582  0.54706  0.31746  1.0000
  C   C306      1.0  0.65977  0.54466  0.23886000000000004  1.0000
  C   C307      1.0  0.6882300000000001  0.5292300000000001  0.22910000000000005  1.0000
  C   C308      1.0  0.70313  0.5166  0.29787  1.0000
  H   H187      1.0  0.62358  0.55874  0.32493  1.0000
  H   H188      1.0  0.6486100000000001  0.55486  0.18554000000000007  1.0000
  H   H189      1.0  0.7003100000000001  0.5292200000000001  0.16852  1.0000
  H   H190      1.0  0.72643  0.50639  0.2898600000000001  1.0000
  H   H191      1.0  0.65116  0.5384200000000001  0.4472100000000001  1.0000
  H   H192      1.0  0.7814000000000001  0.5698200000000001  0.7323200000000002  1.0000
  H   H193      1.0  0.83334  0.58004  0.84205  1.0000
  H   H194      1.0  0.8105800000000002  0.4795800000000001  0.5899000000000002  1.0000
  H   H195      1.0  0.86044  0.4870300000000001  0.7013100000000002  1.0000
  H   H196      1.0  0.8711399999999999  0.53641  0.8284300000000002  1.0000
  C   C309      1.0  0.8393200000000001  0.57817  0.028680000000000008  1.0000
  C   C310      1.0  0.85728  0.5495200000000001  0.0173  1.0000
  C   C311      1.0  0.82635  0.49415  0.98778  1.0000
  H   H197      1.0  0.84005  0.47217000000000003  0.9775200000000002  1.0000
  C   C312      1.0  0.7783300000000001  0.4677700000000001  0.9689000000000002  1.0000
  C   C313      1.0  0.7607200000000001  0.49693  0.98111  1.0000
  C   C314      1.0  0.7915  0.55165  0.010420000000000004  1.0000
  H   H198      1.0  0.7777300000000003  0.57365  0.0204  1.0000
  C   C315      1.0  0.71043  0.47186000000000006  0.96367  1.0000
  C   C316      1.0  0.70032  0.48213  0.88592  1.0000
  C   C317      1.0  0.6618400000000001  0.48189  0.87593  1.0000
  C   C318      1.0  0.63531  0.47537  0.9442600000000002  1.0000
  C   C319      1.0  0.64536  0.46562  0.0218  1.0000
  C   C320      1.0  0.6799900000000001  0.45914  0.030340000000000006  1.0000
  C   C321      1.0  0.9091500000000001  0.5786  0.02691  1.0000
  C   C322      1.0  0.92286  0.55454  0.07907  1.0000
  C   C323      1.0  0.9683  0.56962  0.06914  1.0000
  C   C324      1.0  0.98821  0.63623  0.9600500000000002  1.0000
  C   C325      1.0  0.9431800000000001  0.62207  0.97094  1.0000
  H   H199      1.0  0.97833  0.54997  0.10794000000000001  1.0000
  H   H200      1.0  0.9339400000000001  0.64314  0.93363  1.0000
  H   H201      1.0  0.89732  0.5219100000000001  0.12401000000000001  1.0000
  H   H202      1.0  0.7244700000000002  0.4946500000000001  0.83479  1.0000
  H   H203      1.0  0.6543400000000003  0.4898300000000001  0.8158  1.0000
  H   H204      1.0  0.68709  0.45098  0.09078  1.0000
  H   H205      1.0  0.6265  0.46334000000000003  0.07527  1.0000
  H   H206      1.0  0.6072500000000002  0.47828  0.9372600000000002  1.0000
  C   C326      1.0  0.67501  0.22615000000000002  0.9795100000000002  1.0000
  C   C327      1.0  0.6819600000000001  0.188  0.9569  1.0000
  C   C328      1.0  0.70502  0.17636  0.01096  1.0000
  H   H207      1.0  0.71344  0.15025  0.9911800000000001  1.0000
  C   C329      1.0  0.7194  0.20065  0.08891  1.0000
  C   C330      1.0  0.70381  0.22969  0.11661000000000003  1.0000
  C   C331      1.0  0.68337  0.24413  0.06087  1.0000
  H   H208      1.0  0.67548  0.27081  0.08021  1.0000
  C   C332      1.0  0.70681  0.24298  0.20382  1.0000
  C   C333      1.0  0.6748300000000002  0.19957000000000003  0.26171  1.0000
  C   C334      1.0  0.67935  0.21175  0.34503  1.0000
  C   C335      1.0  0.7154200000000001  0.26721  0.37066  1.0000
  C   C336      1.0  0.7468300000000002  0.31065  0.31287  1.0000
  C   C337      1.0  0.74251  0.29866000000000004  0.22962  1.0000
  C   C338      1.0  0.66278  0.15792000000000003  0.8788600000000002  1.0000
  C   C339      1.0  0.69138  0.18212  0.80695  1.0000
  C   C340      1.0  0.67019  0.16046  0.73064  1.0000
  C   C341      1.0  0.6214  0.11197  0.72614  1.0000
  C   C342      1.0  0.59337  0.08593000000000003  0.79796  1.0000
  C   C343      1.0  0.6138500000000001  0.10906000000000003  0.8742200000000002  1.0000
  H   H209      1.0  0.6911200000000002  0.18228  0.6750200000000002  1.0000
  H   H210      1.0  0.60517  0.09503000000000002  0.6669900000000002  1.0000
  H   H211      1.0  0.55551  0.04863  0.79439  1.0000
  H   H212      1.0  0.5914400000000002  0.09009000000000003  0.9293700000000003  1.0000
  H   H213      1.0  0.72922  0.2197  0.8099  1.0000
  H   H214      1.0  0.6470700000000003  0.15642  0.24221  1.0000
  H   H215      1.0  0.65514  0.17815000000000003  0.3897700000000001  1.0000
  H   H216      1.0  0.76731  0.33238  0.18533  1.0000
  H   H217      1.0  0.7749399999999999  0.35346  0.33252  1.0000
  H   H218      1.0  0.7192300000000003  0.27639  0.43527  1.0000
  C   C344      1.0  0.79888  0.35023  0.60665  1.0000
  C   C345      1.0  0.8154  0.37131  0.52506  1.0000
  C   C346      1.0  0.8264700000000003  0.34515  0.47338  1.0000
  H   H219      1.0  0.8393  0.36136  0.41109  1.0000
  C   C347      1.0  0.81823  0.29624  0.50013  1.0000
  C   C348      1.0  0.80604  0.27861  0.58366  1.0000
  C   C349      1.0  0.8037400000000002  0.3116300000000001  0.638  1.0000
  H   H220      1.0  0.7945900000000001  0.2983100000000001  0.7020800000000001  1.0000
  C   C350      1.0  0.78631  0.22098  0.61104  1.0000
  C   C351      1.0  0.74604  0.17292  0.57163  1.0000
  C   C352      1.0  0.72175  0.11879  0.60631  1.0000
  C   C353      1.0  0.7369000000000002  0.11225000000000002  0.68073  1.0000
  C   C354      1.0  0.77778  0.15957  0.71888  1.0000
  C   C355      1.0  0.80295  0.21374000000000004  0.68357  1.0000
  C   C356      1.0  0.8182  0.41803000000000007  0.49096  1.0000
  C   C357      1.0  0.8636500000000003  0.47044000000000014  0.47089  1.0000
  C   C358      1.0  0.86681  0.51139  0.42486  1.0000
  C   C359      1.0  0.8247600000000002  0.50143  0.4018  1.0000
  C   C360      1.0  0.7793899999999999  0.44945  0.4216600000000001  1.0000
  C   C361      1.0  0.7760000000000001  0.40745  0.4649800000000001  1.0000
  H   H221      1.0  0.90183  0.5501300000000001  0.4051  1.0000
  H   H222      1.0  0.8273400000000001  0.5336600000000001  0.3674300000000001  1.0000
  H   H223      1.0  0.74685  0.44135  0.40237  1.0000
  H   H224      1.0  0.74078  0.36642  0.4765000000000001  1.0000
  H   H225      1.0  0.8964700000000001  0.47855  0.48835  1.0000
  H   H226      1.0  0.73207  0.17775000000000002  0.5166400000000002  1.0000
  H   H227      1.0  0.69017  0.08207  0.57694  1.0000
  H   H228      1.0  0.83423  0.25024  0.71411  1.0000
  H   H229      1.0  0.7896500000000001  0.15436  0.7763700000000002  1.0000
  H   H230      1.0  0.71677  0.07049  0.70907  1.0000
  Zn  Zn25      1.0  0.7053100000000003  0.8387100000000001  0.78388  1.0000
  Zn  Zn26      1.0  0.66055  0.79729  0.60198  1.0000
  C   C362      1.0  0.55308  0.7992  0.86477  1.0000
  Zn  Zn27      1.0  0.6142300000000002  0.8233800000000002  0.72109  1.0000
  Zn  Zn28      1.0  0.6449400000000002  0.8365100000000001  0.9201200000000003  1.0000
  H   H231      1.0  0.61531  0.7408100000000001  0.73536  1.0000
  C   C363      1.0  0.6917200000000002  0.9171900000000002  0.6132700000000002  1.0000
  O   O85       1.0  0.70563  0.87052  0.9754900000000002  1.0000
  O   O86       1.0  0.7592600000000003  0.8994600000000001  0.86889  1.0000
  O   O87       1.0  0.63902  0.78128  0.71784  1.0000
  O   O88       1.0  0.71463  0.79903  0.6104000000000003  1.0000
  O   O89       1.0  0.69572  0.77824  0.85105  1.0000
  O   O90       1.0  0.7600300000000003  0.87062  0.70108  1.0000
  O   O91       1.0  0.633  0.75753  0.92574  1.0000
  O   O92       1.0  0.6185100000000002  0.80114  0.53627  1.0000
  H   H232      1.0  0.6923400000000001  0.90643  0.7971300000000002  1.0000
  O   O93       1.0  0.56065  0.77238  0.63125  1.0000
  O   O94       1.0  0.66974  0.86495  0.8059000000000002  1.0000
  O   O95       1.0  0.5741500000000002  0.7827300000000001  0.90277  1.0000
  O   O96       1.0  0.6489200000000002  0.8922600000000002  0.64725  1.0000
  O   O97       1.0  0.5613600000000001  0.81229  0.7857400000000002  1.0000
  O   O98       1.0  0.7085500000000001  0.89005  0.61029  1.0000
  C   C364      1.0  0.7470700000000002  0.91024  0.9375500000000001  1.0000
  C   C365      1.0  0.7567899999999999  0.8424000000000001  0.63725  1.0000
  C   C366      1.0  0.6672700000000001  0.75462  0.91601  1.0000
  C   C367      1.0  0.57298  0.76951  0.55722  1.0000
  Zn  Zn29      1.0  0.88214  0.69307  0.22143000000000004  1.0000
  Zn  Zn30      1.0  0.89139  0.74723  0.3954100000000001  1.0000
  C   C368      1.0  0.75864  0.70594  0.13133  1.0000
  Zn  Zn31      1.0  0.8040300000000002  0.70008  0.28229  1.0000
  Zn  Zn32      1.0  0.8249000000000001  0.6861000000000003  0.08249  1.0000
  H   H233      1.0  0.8922300000000001  0.7867200000000001  0.25662  1.0000
  C   C369      1.0  0.79239  0.62313  0.41211000000000003  1.0000
  O   O99       1.0  0.8655100000000002  0.67099  0.03215  1.0000
  O   O100      1.0  0.8807100000000002  0.63838  0.14194  1.0000
  O   O101      1.0  0.8750900000000001  0.7482300000000002  0.28054  1.0000
  O   O102      1.0  0.9429600000000001  0.74173  0.38229000000000013  1.0000
  O   O103      1.0  0.93818  0.75736  0.15928000000000003  1.0000
  O   O104      1.0  0.8984600000000001  0.6626000000000001  0.30515  1.0000
  O   O105      1.0  0.8928100000000001  0.77269  0.09236000000000003  1.0000
  O   O106      1.0  0.84815  0.74826  0.46643  1.0000
  H   H234      1.0  0.79376  0.61646  0.20426000000000005  1.0000
  O   O107      1.0  0.80604  0.754  0.3682200000000001  1.0000
  O   O108      1.0  0.8153400000000001  0.6582500000000001  0.19819  1.0000
  O   O109      1.0  0.7972700000000004  0.7245900000000002  0.08777000000000003  1.0000
  O   O110      1.0  0.7705300000000002  0.6368600000000001  0.36757  1.0000
  O   O111      1.0  0.7588100000000002  0.7027000000000002  0.21291  1.0000
  O   O112      1.0  0.83977  0.65521  0.4090700000000001  1.0000
  C   C370      1.0  0.8681500000000002  0.63383  0.06498  1.0000
  C   C371      1.0  0.9342800000000001  0.69628  0.35466  1.0000
  C   C372      1.0  0.9339000000000001  0.7830100000000001  0.10043000000000003  1.0000
  C   C373      1.0  0.82522  0.76594  0.44204  1.0000
  C   C374      1.0  0.5281  0.81343  0.91443  1.0000
  C   C375      1.0  0.48257000000000017  0.7961800000000002  0.8922400000000001  1.0000
  C   C376      1.0  0.4539500000000001  0.7953  0.9517200000000002  1.0000
  H   H235      1.0  0.41774  0.77853  0.93651  1.0000
  C   C377      1.0  0.47  0.81059  0.03267  1.0000
  C   C378      1.0  0.51881  0.838  0.049860000000000015  1.0000
  C   C379      1.0  0.54693  0.83736  0.99138  1.0000
  H   H236      1.0  0.5823700000000003  0.8521600000000001  0.00734  1.0000
  C   C380      1.0  0.53949  0.86433  0.13116000000000005  1.0000
  C   C381      1.0  0.5289700000000002  0.89636  0.16717000000000007  1.0000
  C   C382      1.0  0.54181  0.91347  0.24833000000000002  1.0000
  C   C383      1.0  0.5665800000000002  0.9004700000000002  0.2930700000000001  1.0000
  C   C384      1.0  0.5802900000000002  0.8723600000000002  0.25581  1.0000
  C   C385      1.0  0.5674100000000002  0.8549400000000003  0.17483000000000007  1.0000
  C   C386      1.0  0.46469  0.77996  0.80744  1.0000
  C   C387      1.0  0.42187000000000013  0.7247600000000002  0.7921  1.0000
  C   C388      1.0  0.40080000000000005  0.7117400000000002  0.7147300000000002  1.0000
  C   C389      1.0  0.42299  0.7531  0.65178  1.0000
  C   C390      1.0  0.46588000000000007  0.8079000000000002  0.66641  1.0000
  C   C391      1.0  0.48636  0.82164  0.7443300000000003  1.0000
  H   H237      1.0  0.3676500000000001  0.6694500000000002  0.7031900000000002  1.0000
  H   H238      1.0  0.40692  0.74267  0.59168  1.0000
  H   H239      1.0  0.48292000000000007  0.83995  0.61769  1.0000
  H   H240      1.0  0.51869  0.86471  0.7559500000000002  1.0000
  H   H241      1.0  0.40447  0.6924  0.8405200000000003  1.0000
  H   H242      1.0  0.5098000000000001  0.9066900000000002  0.13302  1.0000
  H   H243      1.0  0.5324800000000002  0.9367400000000002  0.27658  1.0000
  H   H244      1.0  0.5791  0.83425  0.14639  1.0000
  H   H245      1.0  0.6008000000000001  0.8639100000000002  0.28976  1.0000
  H   H246      1.0  0.5758400000000001  0.9130000000000001  0.35626000000000013  1.0000
  C   C392      1.0  0.46261  0.68141  0.3845200000000001  1.0000
  C   C393      1.0  0.5107200000000001  0.7146100000000001  0.3560200000000001  1.0000
  C   C394      1.0  0.5474700000000002  0.74596  0.41302  1.0000
  H   H247      1.0  0.58461  0.77889  0.3922400000000001  1.0000
  C   C395      1.0  0.5361800000000001  0.73237  0.49673000000000006  1.0000
  C   C396      1.0  0.48949000000000004  0.68266  0.52058  1.0000
  C   C397      1.0  0.45202000000000003  0.6583200000000001  0.4644100000000001  1.0000
  H   H248      1.0  0.4147  0.62684  0.4853300000000001  1.0000
  C   C398      1.0  0.48164  0.65166  0.5973400000000001  1.0000
  C   C399      1.0  0.49233000000000005  0.61537  0.60053  1.0000
  C   C400      1.0  0.48826  0.58922  0.67498  1.0000
  C   C401      1.0  0.47375  0.59942  0.74623  1.0000
  C   C402      1.0  0.46298  0.63548  0.74289  1.0000
  C   C403      1.0  0.4658900000000002  0.6605200000000001  0.6683500000000002  1.0000
  C   C404      1.0  0.52241  0.70812  0.2723300000000001  1.0000
  C   C405      1.0  0.55574  0.69938  0.2618400000000001  1.0000
  C   C406      1.0  0.57465  0.70503  0.18391  1.0000
  C   C407      1.0  0.5597500000000001  0.7181800000000002  0.11603  1.0000
  C   C408      1.0  0.5229800000000002  0.7209600000000003  0.12485000000000002  1.0000
  C   C409      1.0  0.5047  0.71662  0.20287  1.0000
  H   H249      1.0  0.6011800000000002  0.69975  0.17631  1.0000
  H   H250      1.0  0.57599  0.72508  0.05635  1.0000
  H   H251      1.0  0.51017  0.72906  0.07167  1.0000
  H   H252      1.0  0.47913000000000017  0.7231800000000002  0.20948  1.0000
  H   H253      1.0  0.5682  0.6902  0.31441  1.0000
  H   H254      1.0  0.50428  0.60801  0.5456600000000003  1.0000
  H   H255      1.0  0.4966800000000002  0.5614000000000001  0.67756  1.0000
  H   H256      1.0  0.45824000000000004  0.68896  0.66639  1.0000
  H   H257      1.0  0.4518700000000001  0.6435600000000001  0.7977  1.0000
  H   H258      1.0  0.47054  0.5791300000000001  0.80383  1.0000
  C   C410      1.0  0.7639700000000001  0.07148  0.46739  1.0000
  C   C411      1.0  0.7163800000000002  0.022149999999999996  0.4487  1.0000
  C   C412      1.0  0.6929200000000001  0.9727000000000002  0.49829  1.0000
  H   H259      1.0  0.6566600000000001  0.93491  0.4833  1.0000
  C   C413      1.0  0.71658  0.97115  0.5653400000000002  1.0000
  C   C414      1.0  0.7637300000000002  0.02076  0.58506  1.0000
  C   C415      1.0  0.7865700000000002  0.07053  0.53687  1.0000
  H   H260      1.0  0.82256  0.10847000000000002  0.5527700000000002  1.0000
  C   C416      1.0  0.7902  0.021219999999999996  0.65488  1.0000
  C   C417      1.0  0.7977  0.05075  0.7258  1.0000
  C   C418      1.0  0.8269700000000002  0.056360000000000014  0.78811  1.0000
  C   C419      1.0  0.8485800000000001  0.03218  0.78016  1.0000
  C   C420      1.0  0.8424900000000002  0.004290000000000001  0.70859  1.0000
  C   C421      1.0  0.8138500000000003  0.9994200000000002  0.64576  1.0000
  C   C422      1.0  0.6911500000000003  0.021590000000000005  0.37701  1.0000
  C   C423      1.0  0.66112  0.03513  0.3864900000000001  1.0000
  C   C424      1.0  0.64582  0.047060000000000005  0.31745  1.0000
  C   C425      1.0  0.65977  0.044660000000000005  0.23886000000000004  1.0000
  C   C426      1.0  0.68823  0.029229999999999996  0.22910000000000005  1.0000
  C   C427      1.0  0.70314  0.0166  0.29787  1.0000
  H   H261      1.0  0.62358  0.05874  0.32493  1.0000
  H   H262      1.0  0.6486100000000002  0.05486000000000001  0.18553000000000006  1.0000
  H   H263      1.0  0.70032  0.029220000000000006  0.16852  1.0000
  H   H264      1.0  0.72643  0.00639  0.2898600000000001  1.0000
  H   H265      1.0  0.65115  0.03842000000000002  0.4472  1.0000
  H   H266      1.0  0.7814000000000001  0.06982000000000001  0.7323200000000002  1.0000
  H   H267      1.0  0.83334  0.08004  0.84205  1.0000
  H   H268      1.0  0.8105799999999997  0.9795899999999997  0.5899000000000002  1.0000
  H   H269      1.0  0.86044  0.98704  0.7013100000000002  1.0000
  H   H270      1.0  0.87114  0.03641  0.8284300000000002  1.0000
  C   C428      1.0  0.8393200000000002  0.07817  0.028680000000000008  1.0000
  C   C429      1.0  0.85728  0.04952000000000001  0.0173  1.0000
  C   C430      1.0  0.82635  0.9941500000000001  0.98778  1.0000
  H   H271      1.0  0.84005  0.97216  0.9775200000000002  1.0000
  C   C431      1.0  0.7783300000000002  0.9677700000000002  0.9689000000000002  1.0000
  C   C432      1.0  0.7607200000000001  0.9969300000000001  0.98111  1.0000
  C   C433      1.0  0.7915  0.05165  0.010420000000000004  1.0000
  H   H272      1.0  0.7777300000000001  0.07365  0.0204  1.0000
  C   C434      1.0  0.7104300000000002  0.9718600000000002  0.96367  1.0000
  C   C435      1.0  0.70032  0.98213  0.88592  1.0000
  C   C436      1.0  0.6618400000000001  0.9818900000000003  0.87594  1.0000
  C   C437      1.0  0.63531  0.9753700000000001  0.9442600000000002  1.0000
  C   C438      1.0  0.6453600000000003  0.9656200000000003  0.0218  1.0000
  C   C439      1.0  0.6799900000000001  0.95914  0.03035  1.0000
  C   C440      1.0  0.9091500000000001  0.0786  0.02691  1.0000
  C   C441      1.0  0.92286  0.05454000000000001  0.07907  1.0000
  C   C442      1.0  0.9683  0.06962  0.06914  1.0000
  C   C443      1.0  0.98821  0.13623  0.9600500000000002  1.0000
  C   C444      1.0  0.9431800000000001  0.12207  0.97094  1.0000
  H   H273      1.0  0.97833  0.04996000000000001  0.10794000000000001  1.0000
  H   H274      1.0  0.9339400000000001  0.14314  0.93363  1.0000
  H   H275      1.0  0.89732  0.021910000000000006  0.12401000000000001  1.0000
  H   H276      1.0  0.7244700000000002  0.99465  0.83479  1.0000
  H   H277      1.0  0.6543400000000003  0.9898300000000002  0.81581  1.0000
  H   H278      1.0  0.6870900000000001  0.9509800000000003  0.09078  1.0000
  H   H279      1.0  0.6265000000000001  0.9633400000000002  0.07528  1.0000
  H   H280      1.0  0.6072500000000002  0.97828  0.93727  1.0000
  C   C445      1.0  0.67501  0.72615  0.9795100000000002  1.0000
  C   C446      1.0  0.6819600000000001  0.688  0.9569  1.0000
  C   C447      1.0  0.70502  0.6763500000000001  0.01096  1.0000
  H   H281      1.0  0.71344  0.65025  0.9911800000000001  1.0000
  C   C448      1.0  0.7194  0.70065  0.08891  1.0000
  C   C449      1.0  0.70381  0.72969  0.11661000000000003  1.0000
  C   C450      1.0  0.6833700000000001  0.7441300000000001  0.06087  1.0000
  H   H282      1.0  0.67548  0.7708  0.0802  1.0000
  C   C451      1.0  0.70681  0.74298  0.20382  1.0000
  C   C452      1.0  0.6748300000000003  0.6995700000000002  0.26171  1.0000
  C   C453      1.0  0.67935  0.71175  0.34503  1.0000
  C   C454      1.0  0.7154200000000002  0.76721  0.37066  1.0000
  C   C455      1.0  0.7468300000000002  0.8106500000000002  0.31287  1.0000
  C   C456      1.0  0.7425  0.79865  0.22962  1.0000
  C   C457      1.0  0.6627700000000001  0.65792  0.8788600000000002  1.0000
  C   C458      1.0  0.69138  0.6821200000000001  0.80695  1.0000
  C   C459      1.0  0.67018  0.66046  0.73064  1.0000
  C   C460      1.0  0.6214  0.61197  0.72614  1.0000
  C   C461      1.0  0.59337  0.58593  0.79796  1.0000
  C   C462      1.0  0.6138500000000001  0.6090600000000002  0.8742200000000002  1.0000
  H   H283      1.0  0.6911200000000002  0.68228  0.6750200000000002  1.0000
  H   H284      1.0  0.60517  0.59503  0.66698  1.0000
  H   H285      1.0  0.55551  0.54863  0.79439  1.0000
  H   H286      1.0  0.5914400000000002  0.59009  0.9293700000000003  1.0000
  H   H287      1.0  0.72922  0.7197  0.8099  1.0000
  H   H288      1.0  0.6470700000000003  0.6564200000000001  0.24221  1.0000
  H   H289      1.0  0.65514  0.67815  0.3897700000000001  1.0000
  H   H290      1.0  0.76731  0.83238  0.18533  1.0000
  H   H291      1.0  0.7749400000000003  0.85346  0.33252  1.0000
  H   H292      1.0  0.7192300000000003  0.7763900000000001  0.43526  1.0000
  C   C463      1.0  0.7988800000000001  0.8502300000000003  0.60665  1.0000
  C   C464      1.0  0.8153900000000001  0.87131  0.52506  1.0000
  C   C465      1.0  0.8264700000000004  0.8451500000000002  0.47338  1.0000
  H   H293      1.0  0.8393000000000004  0.86136  0.41109  1.0000
  C   C466      1.0  0.8182300000000001  0.7962400000000001  0.50013  1.0000
  C   C467      1.0  0.80604  0.7786100000000001  0.58366  1.0000
  C   C468      1.0  0.8037400000000003  0.8116300000000002  0.63799  1.0000
  H   H294      1.0  0.79459  0.79831  0.7020800000000001  1.0000
  C   C469      1.0  0.7863100000000002  0.7209800000000002  0.61104  1.0000
  C   C470      1.0  0.7460400000000001  0.6729200000000002  0.57163  1.0000
  C   C471      1.0  0.72175  0.61879  0.60631  1.0000
  C   C472      1.0  0.7369000000000002  0.6122500000000001  0.68073  1.0000
  C   C473      1.0  0.7777800000000001  0.6595800000000002  0.71889  1.0000
  C   C474      1.0  0.80295  0.71374  0.68357  1.0000
  C   C475      1.0  0.8182000000000003  0.9180300000000002  0.49096  1.0000
  C   C476      1.0  0.8636500000000003  0.9704400000000001  0.47089  1.0000
  C   C477      1.0  0.86681  0.011389999999999996  0.4248500000000001  1.0000
  C   C478      1.0  0.82475  0.0014299999999999981  0.4017900000000001  1.0000
  C   C479      1.0  0.7793900000000001  0.94945  0.4216600000000001  1.0000
  C   C480      1.0  0.7759900000000001  0.9074500000000001  0.4649800000000001  1.0000
  H   H295      1.0  0.90183  0.05013000000000001  0.4051  1.0000
  H   H296      1.0  0.8273400000000001  0.03366  0.36742  1.0000
  H   H297      1.0  0.74685  0.9413500000000001  0.40237  1.0000
  H   H298      1.0  0.7407800000000002  0.8664200000000002  0.4765000000000001  1.0000
  H   H299      1.0  0.8964700000000001  0.97855  0.48835  1.0000
  H   H300      1.0  0.7320700000000001  0.6777500000000001  0.5166400000000002  1.0000
  H   H301      1.0  0.6901700000000001  0.5820700000000001  0.57694  1.0000
  H   H302      1.0  0.83423  0.75025  0.71411  1.0000
  H   H303      1.0  0.7896500000000001  0.65436  0.7763700000000002  1.0000
  H   H304      1.0  0.71677  0.5705  0.70908  1.0000
