data_image0
_chemical_formula_structural       Zn2CZn2HCO8HO6C4Zn2CZn2HCO8HO6C4Zn2CZn2HCO8HO6C4Zn2CZn2HCO8HO6C4Zn2CZn2HCO8HO6C4Zn2CZn2HCO8HO6C7HC3HC12H10C3HC3HC12H10C3HC3HC12H10C3HC3HC12H10C3HC3HC12H10C3HC3HC12H10C3HC3HC12H10C3HC3HC12H10C3HC3HC12H10C3HC3HC12H10C3HC3HC12H10C3HC3HC12H10C3HC3HC12H10C3HC3HC12H10C3HC3HC12H10C3HC3HC12H10C3HC3HC12H10C3HC3HC12H10
_chemical_formula_sum              "Zn24 C360 H228 O84"
_cell_length_a       19.42358
_cell_length_b       16.779089999999997
_cell_length_c       37.12151
_cell_angle_alpha    88.2901
_cell_angle_beta     88.42648
_cell_angle_gamma    107.45811

_space_group_name_H-M_alt    "P 1"
_space_group_IT_number       1

loop_
  _space_group_symop_operation_xyz
  'x, y, z'

loop_
  _atom_site_type_symbol
  _atom_site_label
  _atom_site_symmetry_multiplicity
  _atom_site_fract_x
  _atom_site_fract_y
  _atom_site_fract_z
  _atom_site_occupancy
  Zn  Zn1       1.0  0.5743  0.3306  0.89953  1.0000
  Zn  Zn2       1.0  0.70911  0.4930300000000001  0.92608  1.0000
  C   C1        1.0  0.76253  0.20507  0.8536  1.0000
  Zn  Zn3       1.0  0.74082  0.35634  0.8839299999999999  1.0000
  Zn  Zn4       1.0  0.60275  0.18878  0.86009  1.0000
  H   H1        1.0  0.68214  0.33852  0.9468299999999998  1.0000
  C   C2        1.0  0.73973  0.50878  0.84595  1.0000
  O   O1        1.0  0.49445  0.15113  0.8649999999999999  1.0000
  O   O2        1.0  0.47772  0.27971  0.87005  1.0000
  O   O3        1.0  0.67619  0.36827  0.92425  1.0000
  O   O4        1.0  0.6223300000000002  0.52376  0.93713  1.0000
  O   O5        1.0  0.53441  0.24326999999999996  0.93761  1.0000
  O   O6        1.0  0.54356  0.4305999999999999  0.9029199999999998  1.0000
  O   O7        1.0  0.60638  0.16668000000000002  0.9183500000000001  1.0000
  O   O8        1.0  0.8129999999999998  0.53419  0.9146300000000002  1.0000
  H   H2        1.0  0.6318599999999999  0.3394999999999999  0.83772  1.0000
  O   O9        1.0  0.8359000000000001  0.40964999999999996  0.91417  1.0000
  O   O10       1.0  0.63812  0.31194  0.86083  1.0000
  O   O11       1.0  0.69447  0.15733  0.85278  1.0000
  O   O12       1.0  0.77273  0.45068  0.84742  1.0000
  O   O13       1.0  0.7816  0.26277  0.8777699999999999  1.0000
  O   O14       1.0  0.68817  0.50599  0.8698300000000001  1.0000
  C   C3        1.0  0.45264  0.20006999999999991  0.8626  1.0000
  C   C4        1.0  0.5567900000000001  0.47729  0.9311499999999999  1.0000
  C   C5        1.0  0.556  0.17648999999999992  0.9408800000000002  1.0000
  C   C6        1.0  0.85389  0.48813  0.9233099999999999  1.0000
  Zn  Zn5       1.0  0.65427  0.4318  0.54858  1.0000
  Zn  Zn6       1.0  0.50262  0.30759  0.51004  1.0000
  C   C7        1.0  0.7020699999999997  0.1686  0.59279  1.0000
  Zn  Zn7       1.0  0.58824  0.23474  0.56299  1.0000
  Zn  Zn8       1.0  0.75599  0.35452  0.58563  1.0000
  H   H3        1.0  0.63038  0.30224  0.50396  1.0000
  C   C8        1.0  0.44481999999999994  0.22145  0.58816  1.0000
  O   O15       1.0  0.81235  0.47656000000000004  0.58279  1.0000
  O   O16       1.0  0.71742  0.53075  0.57903  1.0000
  O   O17       1.0  0.6022  0.31784999999999997  0.52364  1.0000
  O   O18       1.0  0.48556  0.40090999999999993  0.53454  1.0000
  O   O19       1.0  0.7320299999999998  0.46302999999999994  0.51115  1.0000
  O   O20       1.0  0.59069  0.5025  0.54202  1.0000
  O   O21       1.0  0.76661  0.35085  0.52725  1.0000
  O   O22       1.0  0.48136  0.20379  0.48626  1.0000
  H   H4        1.0  0.63401  0.35965  0.61026  1.0000
  O   O23       1.0  0.51557  0.13269  0.53325  1.0000
  O   O24       1.0  0.65193  0.3459  0.58673  1.0000
  O   O25       1.0  0.75722  0.23589  0.58536  1.0000
  O   O26       1.0  0.51042  0.22883999999999988  0.59822  1.0000
  O   O27       1.0  0.64312  0.15372999999999995  0.57387  1.0000
  O   O28       1.0  0.43213  0.23429999999999998  0.55428  1.0000
  C   C9        1.0  0.78502  0.53921  0.58654  1.0000
  C   C10       1.0  0.5289700000000002  0.4753  0.52627  1.0000
  C   C11       1.0  0.77672  0.41927  0.50709  1.0000
  C   C12       1.0  0.4785499999999999  0.13353999999999996  0.5036  1.0000
  Zn  Zn9       1.0  0.9566899999999999  0.91893  0.70755  1.0000
  Zn  Zn10      1.0  0.05289000000000004  0.93442  0.78277  1.0000
  C   C13       1.0  0.16649  0.11439  0.65888  1.0000
  Zn  Zn11      1.0  0.08271999999999999  0.07413999999999998  0.72637  1.0000
  Zn  Zn12      1.0  0.01173  0.04008  0.64349  1.0000
  H   H5        1.0  0.10005000000000004  0.9334799999999999  0.71764  1.0000
  C   C14       1.0  0.9733399999999999  0.07253000000000001  0.78323  1.0000
  O   O29       1.0  0.9120199999999999  0.011619999999999995  0.62898  1.0000
  O   O30       1.0  0.85981  0.9157899999999998  0.67619  1.0000
  O   O31       1.0  0.062040000000000005  0.95242  0.7298  1.0000
  O   O32       1.0  0.9768900000000001  0.8252700000000001  0.78588  1.0000
  O   O33       1.0  0.9814000000000002  0.83791  0.67802  1.0000
  O   O34       1.0  0.8952099999999998  0.85932  0.7493  1.0000
  O   O35       1.0  0.00031999999999999623  0.91201  0.62497  1.0000
  O   O36       1.0  0.12304  0.027679999999999996  0.80746  1.0000
  H   H6        1.0  0.95487  0.06329  0.70243  1.0000
  O   O37       1.0  0.17883  0.10204  0.75691  1.0000
  O   O38       1.0  0.99154  0.03529  0.69621  1.0000
  O   O39       1.0  0.119  0.05805  0.64065  1.0000
  O   O40       1.0  0.02897000000000001  0.12092000000000001  0.76329  1.0000
  O   O41       1.0  0.14585  0.14603000000000002  0.68798  1.0000
  O   O42       1.0  0.96793  0.9934399999999999  0.79033  1.0000
  C   C15       1.0  0.85483  0.9686800000000001  0.64911  1.0000
  C   C16       1.0  0.9138299999999999  0.80496  0.77057  1.0000
  C   C17       1.0  0.97375  0.8407199999999998  0.64342  1.0000
  C   C18       1.0  0.18099  0.07865000000000001  0.79086  1.0000
  Zn  Zn13      1.0  0.33046  0.69808  0.38469  1.0000
  Zn  Zn14      1.0  0.20076000000000002  0.5504  0.43347  1.0000
  C   C19       1.0  0.13813000000000006  0.81247  0.341  1.0000
  Zn  Zn15      1.0  0.16456  0.67466  0.38255  1.0000
  Zn  Zn16      1.0  0.29469  0.82523  0.33584  1.0000
  H   H7        1.0  0.23465000000000003  0.71072  0.43783999999999995  1.0000
  C   C20       1.0  0.15597000000000003  0.5126  0.35458  1.0000
  O   O43       1.0  0.40155  0.85951  0.33117  1.0000
  O   O44       1.0  0.41811000000000004  0.73343  0.34589  1.0000
  O   O45       1.0  0.23580000000000004  0.67217  0.41834  1.0000
  O   O46       1.0  0.29073  0.5226  0.44229  1.0000
  O   O47       1.0  0.37801000000000007  0.79763  0.41092  1.0000
  O   O48       1.0  0.36324999999999996  0.6031  0.39766  1.0000
  O   O49       1.0  0.30279  0.86962  0.39129  1.0000
  O   O50       1.0  0.09529000000000003  0.51233  0.43302  1.0000
  H   H8        1.0  0.26001  0.66853  0.32862  1.0000
  O   O51       1.0  0.07778999999999997  0.63848  0.42217  1.0000
  O   O52       1.0  0.25942999999999994  0.7044099999999998  0.34925  1.0000
  O   O53       1.0  0.20401999999999995  0.8580899999999998  0.33058  1.0000
  O   O54       1.0  0.12326999999999999  0.57093  0.35685  1.0000
  O   O55       1.0  0.1271  0.76927  0.37189  1.0000
  O   O56       1.0  0.20276  0.50659  0.37888  1.0000
  C   C21       1.0  0.44332  0.81034  0.33217  1.0000
  C   C22       1.0  0.35385  0.57269  0.43104  1.0000
  C   C23       1.0  0.3528199999999999  0.86145  0.41337  1.0000
  C   C24       1.0  0.05761000000000002  0.56397  0.4383099999999999  1.0000
  Zn  Zn17      1.0  0.1986  0.72453  0.06698  1.0000
  Zn  Zn18      1.0  0.33914  0.85241  0.10858000000000001  1.0000
  C   C25       1.0  0.36418  0.5744  0.02458  1.0000
  Zn  Zn19      1.0  0.36031  0.72402  0.05912  1.0000
  Zn  Zn20      1.0  0.21692999999999998  0.5767  0.02713  1.0000
  H   H9        1.0  0.28957  0.69485  0.11807  1.0000
  C   C26       1.0  0.38665  0.89203  0.028460000000000003  1.0000
  O   O57       1.0  0.11376999999999997  0.55979  0.030169999999999995  1.0000
  O   O58       1.0  0.11085  0.69426  0.02951  1.0000
  O   O59       1.0  0.29292999999999997  0.7345399999999997  0.09735  1.0000
  O   O60       1.0  0.25093  0.88261  0.1208  1.0000
  O   O61       1.0  0.13956  0.6322  0.10013  1.0000
  O   O62       1.0  0.18269  0.83611  0.07144  1.0000
  O   O63       1.0  0.21102999999999997  0.55253  0.08471  1.0000
  O   O64       1.0  0.44707  0.88481  0.10399  1.0000
  H   H10       1.0  0.26636  0.73092  0.0076300000000000005  1.0000
  O   O65       1.0  0.45051  0.75338  0.09312  1.0000
  O   O66       1.0  0.26411  0.6989  0.03068  1.0000
  O   O67       1.0  0.29663  0.52811  0.02543  1.0000
  O   O68       1.0  0.40724  0.82404  0.02777  1.0000
  O   O69       1.0  0.38848999999999995  0.62437  0.05084  1.0000
  O   O70       1.0  0.33877000000000007  0.8988  0.05314  1.0000
  C   C27       1.0  0.08763999999999997  0.61762  0.01757  1.0000
  C   C28       1.0  0.19911  0.88525  0.09919  1.0000
  C   C29       1.0  0.15567  0.56164  0.10338  1.0000
  C   C30       1.0  0.48313  0.83016  0.10197  1.0000
  Zn  Zn21      1.0  0.97692  0.14534  0.21587999999999996  1.0000
  Zn  Zn22      1.0  0.8761399999999999  0.09931000000000001  0.29227  1.0000
  C   C31       1.0  0.7664699999999999  0.96058  0.15582  1.0000
  Zn  Zn23      1.0  0.8388999999999999  0.9939699999999999  0.22588  1.0000
  Zn  Zn24      1.0  0.9196599999999999  0.06688  0.1439  1.0000
  H   H11       1.0  0.83726  0.14384  0.2307  1.0000
  C   C32       1.0  0.93096  0.9463199999999998  0.27812  1.0000
  O   O71       1.0  0.02023  0.12531  0.12893  1.0000
  O   O72       1.0  0.07461999999999999  0.15636999999999995  0.18304  1.0000
  O   O73       1.0  0.86996  0.11229000000000001  0.23896000000000003  1.0000
  O   O74       1.0  0.96122  0.19516  0.30294  1.0000
  O   O75       1.0  0.9639899999999999  0.24683  0.19569  1.0000
  O   O76       1.0  0.03664  0.17419  0.25816  1.0000
  O   O77       1.0  0.9117  0.19531  0.14425  1.0000
  O   O78       1.0  0.79812  0.99895  0.31069  1.0000
  H   H12       1.0  0.9624999999999999  0.00067  0.19828  1.0000
  O   O79       1.0  0.74236  0.96585  0.25753  1.0000
  O   O80       1.0  0.9330100000000001  0.03889  0.19526  1.0000
  O   O81       1.0  0.81094  0.030490000000000003  0.14092  1.0000
  O   O82       1.0  0.8773999999999998  0.91832  0.25625  1.0000
  O   O83       1.0  0.77719  0.9334499999999998  0.18826  1.0000
  O   O84       1.0  0.94924  0.02406  0.28828  1.0000
  C   C33       1.0  0.07309  0.12539  0.15037  1.0000
  C   C34       1.0  0.020389999999999995  0.22249  0.28232  1.0000
  C   C35       1.0  0.9558999999999999  0.25643  0.16139  1.0000
  C   C36       1.0  0.73983  0.96516  0.2928  1.0000
  C   C37       1.0  0.008299999999999995  0.32793  0.14157  1.0000
  C   C38       1.0  0.98568  0.38005  0.11700999999999999  1.0000
  C   C39       1.0  0.03244000000000002  0.45998  0.10713  1.0000
  H   H13       1.0  0.015180000000000004  0.49977  0.0881  1.0000
  C   C40       1.0  0.10261  0.48692  0.12021000000000001  1.0000
  C   C41       1.0  0.12542  0.4342  0.14417  1.0000
  C   C42       1.0  0.07919  0.35454  0.15371  1.0000
  H   H14       1.0  0.09685  0.31521  0.17274  1.0000
  C   C43       1.0  0.19803999999999994  0.4618599999999999  0.15944  1.0000
  C   C44       1.0  0.24686  0.41626  0.15344  1.0000
  C   C45       1.0  0.3164100000000001  0.444  0.16658  1.0000
  C   C46       1.0  0.33725  0.51677  0.18612  1.0000
  C   C47       1.0  0.28816  0.5611799999999998  0.19308  1.0000
  C   C48       1.0  0.21856  0.5337899999999998  0.17988  1.0000
  C   C49       1.0  0.9155099999999999  0.35007  0.09976  1.0000
  C   C50       1.0  0.90603  0.2915  0.07268  1.0000
  C   C51       1.0  0.8409799999999998  0.26662  0.05485  1.0000
  C   C52       1.0  0.78565  0.30082999999999993  0.06361  1.0000
  C   C53       1.0  0.79518  0.35998  0.09026  1.0000
  C   C54       1.0  0.86001  0.38474999999999987  0.10830999999999999  1.0000
  H   H15       1.0  0.8336599999999998  0.22126  0.03405  1.0000
  H   H16       1.0  0.73581  0.28235  0.04941  1.0000
  H   H17       1.0  0.75263  0.38724  0.09667  1.0000
  H   H18       1.0  0.8675  0.43157  0.12851  1.0000
  H   H19       1.0  0.9490900000000001  0.26559  0.06541  1.0000
  H   H20       1.0  0.23069  0.35928  0.13878  1.0000
  H   H21       1.0  0.35407  0.40896  0.16168  1.0000
  H   H22       1.0  0.18094  0.56879  0.18513  1.0000
  H   H23       1.0  0.30412  0.61685  0.20864  1.0000
  H   H24       1.0  0.39136  0.53867  0.1959  1.0000
  C   C55       1.0  0.55952  0.85378  0.11168  1.0000
  C   C56       1.0  0.61368  0.91351  0.09049  1.0000
  C   C57       1.0  0.68199  0.9485  0.10497  1.0000
  H   H25       1.0  0.72242  0.99833  0.09013  1.0000
  C   C58       1.0  0.69949  0.91555  0.13742  1.0000
  C   C59       1.0  0.65065  0.84132  0.15313  1.0000
  C   C60       1.0  0.57904  0.8158499999999997  0.14225  1.0000
  H   H26       1.0  0.53954  0.76381  0.15643  1.0000
  C   C61       1.0  0.67709  0.78247  0.17517  1.0000
  C   C62       1.0  0.7241  0.74273  0.15952  1.0000
  C   C63       1.0  0.74897  0.68687  0.18027  1.0000
  C   C64       1.0  0.72783  0.67116  0.21671  1.0000
  C   C65       1.0  0.68144  0.71089  0.23245  1.0000
  C   C66       1.0  0.65571  0.7662  0.21175  1.0000
  C   C67       1.0  0.60404  0.92889  0.05157  1.0000
  C   C68       1.0  0.58028  0.8611  0.028870000000000003  1.0000
  C   C69       1.0  0.5833400000000001  0.8747800000000001  0.99146  1.0000
  C   C70       1.0  0.6118199999999999  0.9556799999999999  0.9763700000000001  1.0000
  C   C71       1.0  0.63507  0.023420000000000003  0.9987  1.0000
  C   C72       1.0  0.6302  0.01037  0.03617  1.0000
  H   H27       1.0  0.56465  0.82243  0.9741600000000001  1.0000
  H   H28       1.0  0.6153  0.96599  0.94737  1.0000
  H   H29       1.0  0.65711  0.08611  0.9869700000000001  1.0000
  H   H30       1.0  0.65024  0.06295  0.05319  1.0000
  H   H31       1.0  0.56126  0.79786  0.04012  1.0000
  H   H32       1.0  0.74093  0.75482  0.13131  1.0000
  H   H33       1.0  0.78442  0.65551  0.16807  1.0000
  H   H34       1.0  0.62017  0.79723  0.2242  1.0000
  H   H35       1.0  0.66535  0.69856  0.26065  1.0000
  H   H36       1.0  0.74733  0.62809  0.23276  1.0000
  C   C73       1.0  0.15774  0.94273  0.10729  1.0000
  C   C74       1.0  0.10706000000000004  0.92294  0.13645  1.0000
  C   C75       1.0  0.09321999999999998  0.9873500000000001  0.15569  1.0000
  H   H37       1.0  0.059349999999999965  0.9719799999999997  0.17998  1.0000
  C   C76       1.0  0.11705  0.07017999999999999  0.14174  1.0000
  C   C77       1.0  0.16518  0.08962  0.11131000000000002  1.0000
  C   C78       1.0  0.18493  0.02576  0.09424  1.0000
  H   H38       1.0  0.225  0.04154999999999998  0.07213  1.0000
  C   C79       1.0  0.20143999999999998  0.17712  0.09947  1.0000
  C   C80       1.0  0.27362  0.21442  0.10800000000000001  1.0000
  C   C81       1.0  0.3133  0.29031  0.0911  1.0000
  C   C82       1.0  0.28086  0.33017  0.06608  1.0000
  C   C83       1.0  0.20811000000000002  0.29501  0.05857  1.0000
  C   C84       1.0  0.16849999999999998  0.21816  0.07494  1.0000
  C   C85       1.0  0.06103000000000004  0.83577  0.1436  1.0000
  C   C86       1.0  0.9902999999999998  0.81033  0.13135  1.0000
  C   C87       1.0  0.9478  0.72699  0.13635  1.0000
  C   C88       1.0  0.97529  0.6689799999999998  0.15399  1.0000
  C   C89       1.0  0.045439999999999994  0.69417  0.16659  1.0000
  C   C90       1.0  0.08835  0.77735  0.16137  1.0000
  H   H39       1.0  0.89381  0.7072199999999997  0.12625  1.0000
  H   H40       1.0  0.94236  0.60448  0.15771  1.0000
  H   H41       1.0  0.06687999999999995  0.64903  0.17999  1.0000
  H   H42       1.0  0.14313  0.79586  0.17028  1.0000
  H   H43       1.0  0.96872  0.85486  0.11753  1.0000
  H   H44       1.0  0.29962  0.18303  0.12675  1.0000
  H   H45       1.0  0.36923999999999996  0.31796  0.09736  1.0000
  H   H46       1.0  0.11312  0.18938  0.06776  1.0000
  H   H47       1.0  0.18277999999999997  0.32655  0.03961  1.0000
  H   H48       1.0  0.3121  0.38802  0.05247  1.0000
  C   C91       1.0  0.67117  0.92501  0.31211  1.0000
  C   C92       1.0  0.62652  0.97304  0.32241  1.0000
  C   C93       1.0  0.55211  0.93523  0.32729  1.0000
  H   H49       1.0  0.5178499999999999  0.9733599999999999  0.3343  1.0000
  C   C94       1.0  0.52206  0.84815  0.32476  1.0000
  C   C95       1.0  0.5684  0.79913  0.3169  1.0000
  C   C96       1.0  0.64279  0.83822  0.31165  1.0000
  H   H50       1.0  0.67814  0.80131  0.30478  1.0000
  C   C97       1.0  0.54033  0.70892  0.31051  1.0000
  C   C98       1.0  0.56217  0.65216  0.33261  1.0000
  C   C99       1.0  0.55885  0.57316  0.32037  1.0000
  C   C100      1.0  0.53087  0.54907  0.28672  1.0000
  C   C101      1.0  0.50466  0.6032699999999999  0.26564  1.0000
  C   C102      1.0  0.5087999999999999  0.6828199999999998  0.27759  1.0000
  C   C103      1.0  0.65769  0.06273000000000001  0.32913  1.0000
  C   C104      1.0  0.69247  0.0876  0.36139  1.0000
  C   C105      1.0  0.72244  0.17259  0.36765  1.0000
  C   C106      1.0  0.71782  0.23291999999999996  0.34179  1.0000
  C   C107      1.0  0.6831199999999998  0.20834999999999995  0.30963  1.0000
  C   C108      1.0  0.65311  0.12341  0.30324  1.0000
  H   H51       1.0  0.7492  0.19171  0.39255  1.0000
  H   H52       1.0  0.741  0.29867999999999995  0.34669  1.0000
  H   H53       1.0  0.67938  0.2551099999999999  0.28969  1.0000
  H   H54       1.0  0.62659  0.10475  0.27821  1.0000
  H   H55       1.0  0.6963  0.041139999999999975  0.38151  1.0000
  H   H56       1.0  0.58573  0.67124  0.35826  1.0000
  H   H57       1.0  0.5780400000000001  0.53066  0.33694  1.0000
  H   H58       1.0  0.49190999999999996  0.72601  0.26024  1.0000
  H   H59       1.0  0.48306  0.58458  0.23963  1.0000
  H   H60       1.0  0.52843  0.48796  0.27724  1.0000
  C   C109      1.0  0.0694  0.30679  0.2876  1.0000
  C   C110      1.0  0.04279  0.37635  0.28584  1.0000
  C   C111      1.0  0.07449  0.44617  0.30599  1.0000
  H   H61       1.0  0.05129  0.49744  0.30617  1.0000
  C   C112      1.0  0.13497  0.44934  0.32635  1.0000
  C   C113      1.0  0.17081  0.38781  0.32134  1.0000
  C   C114      1.0  0.13618  0.3154  0.30289  1.0000
  H   H62       1.0  0.16027000000000002  0.26502  0.30129  1.0000
  C   C115      1.0  0.24659999999999999  0.40236  0.33169  1.0000
  C   C116      1.0  0.29948  0.47774  0.32129  1.0000
  C   C117      1.0  0.3698100000000001  0.49321000000000004  0.33284  1.0000
  C   C118      1.0  0.38978999999999997  0.4306299999999999  0.35157  1.0000
  C   C119      1.0  0.33841  0.35382  0.36035  1.0000
  C   C120      1.0  0.26647  0.34037  0.35141  1.0000
  C   C121      1.0  0.98629  0.37994  0.26057  1.0000
  C   C122      1.0  0.9129700000000001  0.34359  0.27052  1.0000
  C   C123      1.0  0.85967  0.35225  0.24748  1.0000
  C   C124      1.0  0.8791799999999999  0.40001  0.21523  1.0000
  C   C125      1.0  0.9520099999999999  0.43911  0.20594  1.0000
  C   C126      1.0  0.005539999999999981  0.42868  0.22837000000000002  1.0000
  H   H63       1.0  0.8032399999999998  0.3231  0.2549  1.0000
  H   H64       1.0  0.83784  0.40737  0.19762  1.0000
  H   H65       1.0  0.96703  0.47705  0.18126  1.0000
  H   H66       1.0  0.06188000000000002  0.45929  0.22101  1.0000
  H   H67       1.0  0.8972799999999999  0.3104  0.29634  1.0000
  H   H68       1.0  0.28536000000000006  0.52548  0.30547  1.0000
  H   H69       1.0  0.40813  0.55438  0.32811  1.0000
  H   H70       1.0  0.22637  0.28185  0.3596  1.0000
  H   H71       1.0  0.35433  0.3048  0.37411  1.0000
  H   H72       1.0  0.445  0.44165  0.35936  1.0000
  C   C127      1.0  0.07595  0.83018  0.32386  1.0000
  C   C128      1.0  0.07402000000000004  0.8388  0.2859  1.0000
  C   C129      1.0  0.02136  0.86972  0.27049  1.0000
  H   H73       1.0  0.02256000000000001  0.88137  0.24154  1.0000
  C   C130      1.0  0.96966  0.88991  0.29254  1.0000
  C   C131      1.0  0.96592  0.8705599999999998  0.32993  1.0000
  C   C132      1.0  0.019599999999999954  0.84196  0.34548  1.0000
  H   H74       1.0  0.018709999999999963  0.83151  0.37448  1.0000
  C   C133      1.0  0.9071100000000001  0.8827399999999997  0.35312  1.0000
  C   C134      1.0  0.8370799999999999  0.8267  0.35236  1.0000
  C   C135      1.0  0.78116  0.83962  0.37366  1.0000
  C   C136      1.0  0.79483  0.90847  0.39564  1.0000
  C   C137      1.0  0.86444  0.9645300000000001  0.39638  1.0000
  C   C138      1.0  0.92062  0.9517  0.37526  1.0000
  C   C139      1.0  0.12694  0.81561  0.26228  1.0000
  C   C140      1.0  0.18234999999999996  0.87811  0.24374  1.0000
  C   C141      1.0  0.238  0.85721  0.22538999999999998  1.0000
  C   C142      1.0  0.23792999999999997  0.77385  0.22500000000000003  1.0000
  C   C143      1.0  0.18196  0.71116  0.24274  1.0000
  C   C144      1.0  0.12625  0.73176  0.26115  1.0000
  H   H75       1.0  0.28097  0.90554  0.21133  1.0000
  H   H76       1.0  0.28089  0.75782  0.21066  1.0000
  H   H77       1.0  0.18209  0.64673  0.24255  1.0000
  H   H78       1.0  0.08368999999999997  0.68302  0.27532  1.0000
  H   H79       1.0  0.1832  0.94292  0.2443  1.0000
  H   H80       1.0  0.8259899999999999  0.7736099999999998  0.33516  1.0000
  H   H81       1.0  0.7271199999999999  0.7967099999999998  0.37289  1.0000
  H   H82       1.0  0.97434  0.9956900000000001  0.37578  1.0000
  H   H83       1.0  0.87482  0.018039999999999997  0.41326  1.0000
  H   H84       1.0  0.75152  0.91854  0.41202  1.0000
  C   C145      1.0  0.37954  0.92363  0.4416  1.0000
  C   C146      1.0  0.44375  0.92839  0.46043  1.0000
  C   C147      1.0  0.46839  0.99068  0.48531  1.0000
  H   H85       1.0  0.51767  0.99469  0.49922  1.0000
  C   C148      1.0  0.43645  0.05434  0.48855  1.0000
  C   C149      1.0  0.37055  0.047699999999999985  0.47156000000000003  1.0000
  C   C150      1.0  0.34143  0.9806200000000002  0.44931  1.0000
  H   H86       1.0  0.2903399999999999  0.9747899999999996  0.43692000000000003  1.0000
  C   C151      1.0  0.33293  0.11222999999999998  0.47579000000000005  1.0000
  C   C152      1.0  0.30927  0.12849  0.51008  1.0000
  C   C153      1.0  0.27563  0.19074  0.51411  1.0000
  C   C154      1.0  0.26417  0.23602  0.48388  1.0000
  C   C155      1.0  0.28598  0.21883999999999998  0.44955999999999996  1.0000
  C   C156      1.0  0.32087  0.15764999999999998  0.44544000000000006  1.0000
  C   C157      1.0  0.4910499999999998  0.8767599999999998  0.45136  1.0000
  C   C158      1.0  0.53455  0.89557  0.4196  1.0000
  C   C159      1.0  0.58761  0.85627  0.41342  1.0000
  C   C160      1.0  0.5990099999999999  0.80005  0.43934000000000006  1.0000
  C   C161      1.0  0.55764  0.78317  0.47156999999999993  1.0000
  C   C162      1.0  0.50379  0.82137  0.47766000000000003  1.0000
  H   H87       1.0  0.62172  0.87172  0.3892  1.0000
  H   H88       1.0  0.64159  0.77193  0.43499  1.0000
  H   H89       1.0  0.5688  0.74251  0.49228000000000005  1.0000
  H   H90       1.0  0.47383999999999993  0.81045  0.50329  1.0000
  H   H91       1.0  0.52909  0.94307  0.40052  1.0000
  H   H92       1.0  0.31896  0.09499999999999999  0.53358  1.0000
  H   H93       1.0  0.25886  0.20418999999999998  0.54072  1.0000
  H   H94       1.0  0.33871  0.14575  0.41878  1.0000
  H   H95       1.0  0.27558  0.25273  0.42618  1.0000
  H   H96       1.0  0.23824999999999996  0.28431  0.48703  1.0000
  C   C163      1.0  0.98752  0.53401  0.45804  1.0000
  C   C164      1.0  0.97757  0.4783299999999999  0.48832000000000003  1.0000
  C   C165      1.0  0.9079799999999999  0.438  0.50225  1.0000
  H   H97       1.0  0.9008999999999999  0.39410000000000006  0.52511  1.0000
  C   C166      1.0  0.84829  0.45846999999999993  0.48896  1.0000
  C   C167      1.0  0.85939  0.5208  0.46072  1.0000
  C   C168      1.0  0.9286  0.55598  0.44494  1.0000
  H   H98       1.0  0.93644  0.60049  0.42225  1.0000
  C   C169      1.0  0.80049  0.55171  0.44775999999999994  1.0000
  C   C170      1.0  0.77324  0.53038  0.41353  1.0000
  C   C171      1.0  0.72601  0.56961  0.39848  1.0000
  C   C172      1.0  0.70592  0.63035  0.41742  1.0000
  C   C173      1.0  0.73453  0.65367  0.45104  1.0000
  C   C174      1.0  0.78261  0.61551  0.4659499999999999  1.0000
  C   C175      1.0  0.039459999999999995  0.46972  0.50854  1.0000
  C   C176      1.0  0.06902999999999997  0.4049699999999999  0.501  1.0000
  C   C177      1.0  0.11895  0.38748  0.52397  1.0000
  C   C178      1.0  0.13737000000000002  0.43223  0.55524  1.0000
  C   C179      1.0  0.10693999999999998  0.49562  0.56323  1.0000
  C   C180      1.0  0.05954  0.51583  0.53953  1.0000
  H   H99       1.0  0.14203  0.33793  0.518  1.0000
  H   H100      1.0  0.17519  0.41781  0.57327  1.0000
  H   H101      1.0  0.11997  0.52899  0.58786  1.0000
  H   H102      1.0  0.035900000000000015  0.56477  0.54602  1.0000
  H   H103      1.0  0.05222  0.36724  0.47778  1.0000
  H   H104      1.0  0.78905  0.48383  0.39855  1.0000
  H   H105      1.0  0.7043  0.55219  0.37232  1.0000
  H   H106      1.0  0.8061000000000001  0.63548  0.49155999999999994  1.0000
  H   H107      1.0  0.7195399999999998  0.70133  0.46554  1.0000
  H   H108      1.0  0.66772  0.65868  0.4062  1.0000
  C   C181      1.0  0.50831  0.52757  0.49916999999999995  1.0000
  C   C182      1.0  0.5068799999999999  0.5074799999999998  0.46228  1.0000
  C   C183      1.0  0.46968  0.5446899999999999  0.43866  1.0000
  H   H109      1.0  0.47268999999999994  0.53496  0.41001  1.0000
  C   C184      1.0  0.4167600000000001  0.57731  0.45256  1.0000
  C   C185      1.0  0.41714  0.59639  0.48957  1.0000
  C   C186      1.0  0.47057  0.58135  0.51096  1.0000
  H   H110      1.0  0.47452  0.6003999999999999  0.53869  1.0000
  C   C187      1.0  0.35704  0.62035  0.50734  1.0000
  C   C188      1.0  0.3251  0.57999  0.54011  1.0000
  C   C189      1.0  0.2764  0.6101899999999999  0.55961  1.0000
  C   C190      1.0  0.25443999999999994  0.6760099999999998  0.5452  1.0000
  C   C191      1.0  0.284  0.71462  0.5121  1.0000
  C   C192      1.0  0.3361  0.68791  0.49351999999999996  1.0000
  C   C193      1.0  0.52983  0.4358199999999999  0.44976  1.0000
  C   C194      1.0  0.4807  0.37031  0.4324  1.0000
  C   C195      1.0  0.50447  0.30891  0.41599  1.0000
  C   C196      1.0  0.57652  0.31040000000000006  0.41809  1.0000
  C   C197      1.0  0.62485  0.37329  0.43660000000000004  1.0000
  C   C198      1.0  0.60165  0.4360199999999999  0.45237  1.0000
  H   H111      1.0  0.46681999999999996  0.25955  0.40206  1.0000
  H   H112      1.0  0.59468  0.26214  0.40582  1.0000
  H   H113      1.0  0.68002  0.37268  0.43920999999999993  1.0000
  H   H114      1.0  0.6393199999999999  0.4847099999999999  0.46647  1.0000
  H   H115      1.0  0.42446  0.36789  0.43116  1.0000
  H   H116      1.0  0.33948  0.52665  0.55089  1.0000
  H   H117      1.0  0.25519  0.58202  0.58578  1.0000
  H   H118      1.0  0.36068  0.72009  0.46875  1.0000
  H   H119      1.0  0.26742000000000005  0.76616  0.5011  1.0000
  H   H120      1.0  0.21442  0.69681  0.55965  1.0000
  C   C199      1.0  0.71604  0.09867  0.61358  1.0000
  C   C200      1.0  0.74301  0.11135999999999999  0.64851  1.0000
  C   C201      1.0  0.77702  0.056089999999999994  0.66372  1.0000
  H   H121      1.0  0.80454  0.07179  0.6886  1.0000
  C   C202      1.0  0.7868999999999998  0.98983  0.64403  1.0000
  C   C203      1.0  0.74957  0.96972  0.61161  1.0000
  C   C204      1.0  0.7151  0.02498  0.59641  1.0000
  H   H122      1.0  0.69076  0.01248  0.57041  1.0000
  C   C205      1.0  0.7431699999999999  0.8895899999999998  0.5942  1.0000
  C   C206      1.0  0.67501  0.8297  0.59253  1.0000
  C   C207      1.0  0.6670900000000001  0.75737  0.57319  1.0000
  C   C208      1.0  0.72697  0.74435  0.55548  1.0000
  C   C209      1.0  0.79466  0.80427  0.55651  1.0000
  C   C210      1.0  0.80273  0.87733  0.57534  1.0000
  C   C211      1.0  0.74214  0.18697  0.6679  1.0000
  C   C212      1.0  0.807  0.2502799999999999  0.67301  1.0000
  C   C213      1.0  0.80579  0.32376  0.6895  1.0000
  C   C214      1.0  0.7401  0.33411  0.70119  1.0000
  C   C215      1.0  0.67537  0.27125  0.69618  1.0000
  C   C216      1.0  0.6762500000000001  0.19773  0.6796  1.0000
  H   H123      1.0  0.8557999999999999  0.3726  0.69327  1.0000
  H   H124      1.0  0.7393400000000001  0.39084  0.71413  1.0000
  H   H125      1.0  0.62452  0.27959  0.70505  1.0000
  H   H126      1.0  0.62585  0.14962  0.67552  1.0000
  H   H127      1.0  0.85808  0.24299  0.66378  1.0000
  H   H128      1.0  0.62828  0.83931  0.60618  1.0000
  H   H129      1.0  0.6145900000000001  0.7111800000000001  0.57213  1.0000
  H   H130      1.0  0.85453  0.92517  0.57436  1.0000
  H   H131      1.0  0.8407  0.79465  0.54229  1.0000
  H   H132      1.0  0.72084  0.68805  0.54077  1.0000
  C   C217      1.0  0.3835100000000001  0.18998  0.6141  1.0000
  C   C218      1.0  0.34284  0.10428  0.6159  1.0000
  C   C219      1.0  0.27302  0.08002999999999999  0.63231  1.0000
  H   H133      1.0  0.24136999999999997  0.014590000000000006  0.63374  1.0000
  C   C220      1.0  0.24397000000000005  0.13975000000000004  0.64706  1.0000
  C   C221      1.0  0.28801  0.22372  0.64835  1.0000
  C   C222      1.0  0.35749  0.24788000000000002  0.63208  1.0000
  H   H134      1.0  0.38976999999999995  0.3130999999999999  0.63158  1.0000
  C   C223      1.0  0.26115  0.28764  0.66529  1.0000
  C   C224      1.0  0.22373  0.33187  0.64496  1.0000
  C   C225      1.0  0.19842  0.39253  0.66107  1.0000
  C   C226      1.0  0.2105  0.40929  0.69744  1.0000
  C   C227      1.0  0.24814000000000003  0.3656299999999999  0.71772  1.0000
  C   C228      1.0  0.27374  0.30511  0.70169  1.0000
  C   C229      1.0  0.37307  0.03922  0.60121  1.0000
  C   C230      1.0  0.33081  0.97672  0.57975  1.0000
  C   C231      1.0  0.35898  0.916  0.56587  1.0000
  C   C232      1.0  0.42855  0.9155  0.5741  1.0000
  C   C233      1.0  0.4703  0.9758900000000001  0.59618  1.0000
  C   C234      1.0  0.4426399999999999  0.03708999999999999  0.61003  1.0000
  H   H135      1.0  0.32696000000000003  0.8696  0.54857  1.0000
  H   H136      1.0  0.45014  0.86832  0.56335  1.0000
  H   H137      1.0  0.52417  0.97527  0.60263  1.0000
  H   H138      1.0  0.47513000000000005  0.08229  0.62765  1.0000
  H   H139      1.0  0.2766199999999999  0.9760399999999999  0.57337  1.0000
  H   H140      1.0  0.21406  0.31894  0.61682  1.0000
  H   H141      1.0  0.16943  0.42652  0.6454  1.0000
  H   H142      1.0  0.3026  0.27124  0.71757  1.0000
  H   H143      1.0  0.25746  0.37869  0.74585  1.0000
  H   H144      1.0  0.19073  0.45612  0.70989  1.0000
  C   C235      1.0  0.8307299999999999  0.61945  0.59973  1.0000
  C   C236      1.0  0.80807  0.65686  0.62978  1.0000
  C   C237      1.0  0.85561  0.72957  0.64325  1.0000
  H   H145      1.0  0.84003  0.75543  0.66746  1.0000
  C   C238      1.0  0.9239500000000002  0.76747  0.6266  1.0000
  C   C239      1.0  0.94549  0.7316199999999996  0.59596  1.0000
  C   C240      1.0  0.89906  0.65742  0.58303  1.0000
  H   H146      1.0  0.9161899999999998  0.62921  0.55986  1.0000
  C   C241      1.0  0.016259999999999993  0.77098  0.57718  1.0000
  C   C242      1.0  0.08052  0.77582  0.59466  1.0000
  C   C243      1.0  0.14721999999999996  0.81584  0.57724  1.0000
  C   C244      1.0  0.15018999999999996  0.84761  0.54178  1.0000
  C   C245      1.0  0.08639  0.84103  0.52395  1.0000
  C   C246      1.0  0.01948  0.80316  0.54161  1.0000
  C   C247      1.0  0.73476  0.6211  0.64749  1.0000
  C   C248      1.0  0.70941  0.5363  0.65919  1.0000
  C   C249      1.0  0.6407600000000001  0.50387  0.67579  1.0000
  C   C250      1.0  0.5976800000000003  0.55591  0.68173  1.0000
  C   C251      1.0  0.62346  0.64074  0.67146  1.0000
  C   C252      1.0  0.692  0.67353  0.65477  1.0000
  H   H147      1.0  0.6212  0.4384799999999999  0.68433  1.0000
  H   H148      1.0  0.5446  0.53068  0.69466  1.0000
  H   H149      1.0  0.59059  0.68132  0.67672  1.0000
  H   H150      1.0  0.7125399999999998  0.73987  0.64826  1.0000
  H   H151      1.0  0.7432199999999998  0.49594999999999995  0.65601  1.0000
  H   H152      1.0  0.07869999999999992  0.7495699999999997  0.62182  1.0000
  H   H153      1.0  0.19664000000000004  0.82118  0.59107  1.0000
  H   H154      1.0  0.97027  0.79886  0.52771  1.0000
  H   H155      1.0  0.08877999999999998  0.8655  0.49648  1.0000
  H   H156      1.0  0.20188999999999993  0.87709  0.52806  1.0000
  C   C253      1.0  0.91364  0.52098  0.9476600000000001  1.0000
  C   C254      1.0  0.9039599999999999  0.56433  0.97862  1.0000
  C   C255      1.0  0.9643  0.60632  0.99811  1.0000
  H   H157      1.0  0.95703  0.64001  0.0217  1.0000
  C   C256      1.0  0.03169999999999999  0.59516  0.99045  1.0000
  C   C257      1.0  0.03925999999999998  0.54454  0.9614599999999999  1.0000
  C   C258      1.0  0.98074  0.51013  0.93983  1.0000
  H   H158      1.0  0.98655  0.4705500000000001  0.91818  1.0000
  C   C259      1.0  0.10477000000000003  0.5181300000000001  0.95628  1.0000
  C   C260      1.0  0.16123999999999994  0.5643899999999997  0.9327200000000001  1.0000
  C   C261      1.0  0.21779000000000004  0.53237  0.92339  1.0000
  C   C262      1.0  0.21838000000000005  0.45458999999999994  0.93778  1.0000
  C   C263      1.0  0.16286  0.40902999999999995  0.9617300000000001  1.0000
  C   C264      1.0  0.10587999999999999  0.44024  0.97078  1.0000
  C   C265      1.0  0.83066  0.55338  0.9944199999999999  1.0000
  C   C266      1.0  0.8099300000000001  0.62327  0.00429  1.0000
  C   C267      1.0  0.74364  0.61229  0.0226  1.0000
  C   C268      1.0  0.6978399999999999  0.53173  0.03099  1.0000
  C   C269      1.0  0.71705  0.46218  0.02005  1.0000
  C   C270      1.0  0.78383  0.47263  0.00256  1.0000
  H   H159      1.0  0.72828  0.66619  0.030719999999999997  1.0000
  H   H160      1.0  0.64797  0.52306  0.04639  1.0000
  H   H161      1.0  0.68073  0.40008  0.02563  1.0000
  H   H162      1.0  0.79965  0.4181000000000001  0.99575  1.0000
  H   H163      1.0  0.84581  0.68583  0.99851  1.0000
  H   H164      1.0  0.16005  0.62361  0.9207799999999999  1.0000
  H   H165      1.0  0.26068  0.56727  0.90468  1.0000
  H   H166      1.0  0.06197  0.40346999999999994  0.9886  1.0000
  H   H167      1.0  0.16316999999999998  0.34876  0.97272  1.0000
  H   H168      1.0  0.2617  0.42949  0.9302499999999999  1.0000
  C   C271      1.0  0.42568999999999996  0.96576  0.00544  1.0000
  C   C272      1.0  0.43491  0.95981  0.96786  1.0000
  C   C273      1.0  0.48058  0.028189999999999996  0.94755  1.0000
  H   H169      1.0  0.4887599999999999  0.023129999999999998  0.9188  1.0000
  C   C274      1.0  0.51219  0.10451999999999999  0.96366  1.0000
  C   C275      1.0  0.49677  0.11265  0.0006  1.0000
  C   C276      1.0  0.45632999999999996  0.04227  0.02146  1.0000
  H   H170      1.0  0.44758999999999993  0.04759  0.05016  1.0000
  C   C277      1.0  0.51741  0.19487  0.0173  1.0000
  C   C278      1.0  0.47178999999999993  0.24552  0.01467  1.0000
  C   C279      1.0  0.47806999999999994  0.3103  0.0383  1.0000
  C   C280      1.0  0.53148  0.32682  0.06387  1.0000
  C   C281      1.0  0.57859  0.27839  0.06586  1.0000
  C   C282      1.0  0.57241  0.21342  0.04226  1.0000
  C   C283      1.0  0.39093  0.88655  0.9489199999999999  1.0000
  C   C284      1.0  0.3153  0.86727  0.9497599999999999  1.0000
  C   C285      1.0  0.27422  0.80477  0.9283  1.0000
  C   C286      1.0  0.30836  0.7625099999999999  0.9054  1.0000
  C   C287      1.0  0.38348  0.78095  0.9046699999999999  1.0000
  C   C288      1.0  0.4247500000000001  0.8421100000000001  0.9266499999999999  1.0000
  H   H171      1.0  0.21599999999999997  0.79025  0.9289  1.0000
  H   H172      1.0  0.27674  0.71663  0.8877  1.0000
  H   H173      1.0  0.40986999999999996  0.7497499999999998  0.8862400000000001  1.0000
  H   H174      1.0  0.48304  0.8570799999999997  0.9253999999999999  1.0000
  H   H175      1.0  0.28856  0.90171  0.96649  1.0000
  H   H176      1.0  0.4301599999999999  0.23306  0.99508  1.0000
  H   H177      1.0  0.44091  0.34694  0.03706  1.0000
  H   H178      1.0  0.6085  0.1757  0.04427  1.0000
  H   H179      1.0  0.6198000000000001  0.29105  0.08575  1.0000
  H   H180      1.0  0.53632  0.37699  0.08217  1.0000
  C   C289      1.0  0.49820999999999976  0.48465  0.95474  1.0000
  C   C290      1.0  0.44115999999999994  0.51044  0.94082  1.0000
  C   C291      1.0  0.40042999999999995  0.5446699999999999  0.9638200000000001  1.0000
  H   H181      1.0  0.35758  0.56636  0.95318  1.0000
  C   C292      1.0  0.41518000000000005  0.55213  0.00046000000000000007  1.0000
  C   C293      1.0  0.47355  0.52874  0.01403  1.0000
  C   C294      1.0  0.5106399999999999  0.48917999999999984  0.9917  1.0000
  H   H182      1.0  0.55474  0.46966  0.00226  1.0000
  C   C295      1.0  0.50312  0.55667  0.04935  1.0000
  C   C296      1.0  0.5623  0.62896  0.0511  1.0000
  C   C297      1.0  0.59099  0.65497  0.08442  1.0000
  C   C298      1.0  0.56071  0.60901  0.11605000000000001  1.0000
  C   C299      1.0  0.50129  0.53753  0.11444  1.0000
  C   C300      1.0  0.47224999999999995  0.51156  0.0812  1.0000
  C   C301      1.0  0.42322000000000004  0.50135  0.9024  1.0000
  C   C302      1.0  0.4321  0.57242  0.87976  1.0000
  C   C303      1.0  0.41143  0.56366  0.84395  1.0000
  C   C304      1.0  0.38189  0.48397999999999997  0.83063  1.0000
  C   C305      1.0  0.37323  0.41298  0.85307  1.0000
  C   C306      1.0  0.39374  0.4215999999999999  0.8889  1.0000
  H   H183      1.0  0.41818  0.6186  0.82656  1.0000
  H   H184      1.0  0.36591  0.47726  0.8029  1.0000
  H   H185      1.0  0.35091  0.35131  0.84267  1.0000
  H   H186      1.0  0.38864  0.36662  0.90593  1.0000
  H   H187      1.0  0.45477  0.63415  0.88994  1.0000
  H   H188      1.0  0.58665  0.66409  0.02662  1.0000
  H   H189      1.0  0.63679  0.71058  0.0857  1.0000
  H   H190      1.0  0.42552000000000006  0.45729  0.08022  1.0000
  H   H191      1.0  0.47789  0.50215  0.13895  1.0000
  H   H192      1.0  0.58312  0.62879  0.1418  1.0000
  C   C307      1.0  0.81936  0.17318  0.83709  1.0000
  C   C308      1.0  0.88448  0.22757000000000002  0.82138  1.0000
  C   C309      1.0  0.93498  0.19407  0.80451  1.0000
  H   H193      1.0  0.9865099999999999  0.23574999999999996  0.79439  1.0000
  C   C310      1.0  0.9176000000000001  0.10786  0.7991  1.0000
  C   C311      1.0  0.84841  0.05503000000000001  0.81144  1.0000
  C   C312      1.0  0.8053  0.08703  0.83429  1.0000
  H   H194      1.0  0.7558  0.045149999999999996  0.84649  1.0000
  C   C313      1.0  0.81311  0.97491  0.79434  1.0000
  C   C314      1.0  0.8050899999999998  0.97459  0.75688  1.0000
  C   C315      1.0  0.75211  0.90979  0.74157  1.0000
  C   C316      1.0  0.7084000000000001  0.84384  0.76331  1.0000
  C   C317      1.0  0.71669  0.84291  0.80046  1.0000
  C   C318      1.0  0.77002  0.90683  0.8159  1.0000
  C   C319      1.0  0.89646  0.31837  0.81806  1.0000
  C   C320      1.0  0.93552  0.37077  0.84405  1.0000
  C   C321      1.0  0.95856  0.45745  0.83758  1.0000
  C   C322      1.0  0.94318  0.4918600000000001  0.80523  1.0000
  C   C323      1.0  0.9047  0.43979  0.77921  1.0000
  C   C324      1.0  0.88004  0.3534299999999999  0.78588  1.0000
  H   H195      1.0  0.99017  0.49788000000000004  0.85711  1.0000
  H   H196      1.0  0.96169  0.55878  0.80024  1.0000
  H   H197      1.0  0.8948499999999999  0.4661499999999998  0.75369  1.0000
  H   H198      1.0  0.85094  0.31339  0.76544  1.0000
  H   H199      1.0  0.9496399999999999  0.34426  0.86871  1.0000
  H   H200      1.0  0.83816  0.02594  0.73992  1.0000
  H   H201      1.0  0.74358  0.91168  0.713  1.0000
  H   H202      1.0  0.7753300000000001  0.90576  0.84488  1.0000
  H   H203      1.0  0.68109  0.79335  0.81739  1.0000
  H   H204      1.0  0.66729  0.79405  0.75141  1.0000
  C   C325      1.0  0.38212  0.16853  0.8452  1.0000
  C   C326      1.0  0.31549  0.15856  0.86418  1.0000
  C   C327      1.0  0.25028  0.13149000000000002  0.84582  1.0000
  H   H205      1.0  0.1995  0.12683  0.85993  1.0000
  C   C328      1.0  0.25022  0.10687000000000002  0.80995  1.0000
  C   C329      1.0  0.31635  0.10813999999999999  0.7926  1.0000
  C   C330      1.0  0.38167  0.1427  0.80972  1.0000
  H   H206      1.0  0.4323900000000002  0.14587  0.79585  1.0000
  C   C331      1.0  0.31797  0.06667000000000001  0.75815  1.0000
  C   C332      1.0  0.28323999999999994  0.9804699999999998  0.75594  1.0000
  C   C333      1.0  0.2951499999999999  0.93847  0.72555  1.0000
  C   C334      1.0  0.3439499999999999  0.9813499999999998  0.69806  1.0000
  C   C335      1.0  0.37889  0.06691  0.70035  1.0000
  C   C336      1.0  0.36364  0.11013000000000002  0.72947  1.0000
  C   C337      1.0  0.31214  0.16563999999999998  0.9038  1.0000
  C   C338      1.0  0.32989  0.10667999999999994  0.92643  1.0000
  C   C339      1.0  0.31641  0.10526000000000002  0.9637  1.0000
  C   C340      1.0  0.28648  0.16341999999999998  0.97863  1.0000
  C   C341      1.0  0.26955  0.22284000000000004  0.9563199999999998  1.0000
  C   C342      1.0  0.2804499999999999  0.22261999999999998  0.9189300000000001  1.0000
  H   H207      1.0  0.32866  0.058750000000000004  0.98099  1.0000
  H   H208      1.0  0.27696  0.16287  0.007529999999999999  1.0000
  H   H209      1.0  0.24713000000000002  0.2683499999999999  0.96796  1.0000
  H   H210      1.0  0.26366000000000006  0.26608000000000004  0.90169  1.0000
  H   H211      1.0  0.35167  0.060230000000000006  0.9150200000000001  1.0000
  H   H212      1.0  0.24876  0.94577  0.77814  1.0000
  H   H213      1.0  0.2681499999999999  0.8722199999999998  0.7238  1.0000
  H   H214      1.0  0.39045  0.17663000000000004  0.73074  1.0000
  H   H215      1.0  0.41855000000000003  0.09969  0.6799  1.0000
  H   H216      1.0  0.35506999999999994  0.9481599999999999  0.67514  1.0000
  C   C343      1.0  0.77125  0.58563  0.82316  1.0000
  C   C344      1.0  0.77951  0.66583  0.83691  1.0000
  C   C345      1.0  0.8251399999999999  0.73657  0.81854  1.0000
  H   H217      1.0  0.83897  0.79603  0.83145  1.0000
  C   C346      1.0  0.85826  0.7306  0.78532  1.0000
  C   C347      1.0  0.8505399999999999  0.65079  0.77142  1.0000
  C   C348      1.0  0.80352  0.5795  0.78952  1.0000
  H   H218      1.0  0.79515  0.51854  0.77837  1.0000
  C   C349      1.0  0.8946199999999999  0.64001  0.73948  1.0000
  C   C350      1.0  0.8606999999999999  0.59159  0.71115  1.0000
  C   C351      1.0  0.90198  0.57234  0.68314  1.0000
  C   C352      1.0  0.9771499999999999  0.60421  0.68241  1.0000
  C   C353      1.0  0.011480000000000002  0.65109  0.71081  1.0000
  C   C354      1.0  0.9706  0.66661  0.73987  1.0000
  C   C355      1.0  0.7425800000000001  0.67726  0.87096  1.0000
  C   C356      1.0  0.7831399999999998  0.7051299999999998  0.90137  1.0000
  C   C357      1.0  0.75056  0.7282699999999998  0.93173  1.0000
  C   C358      1.0  0.6774899999999999  0.7235  0.93198  1.0000
  C   C359      1.0  0.63692  0.69621  0.90176  1.0000
  C   C360      1.0  0.66909  0.67252  0.87138  1.0000
  H   H219      1.0  0.78231  0.75158  0.95477  1.0000
  H   H220      1.0  0.65232  0.74093  0.9555999999999999  1.0000
  H   H221      1.0  0.58055  0.69321  0.90192  1.0000
  H   H222      1.0  0.63726  0.65148  0.84805  1.0000
  H   H223      1.0  0.84019  0.71072  0.90112  1.0000
  H   H224      1.0  0.8026799999999998  0.56528  0.71196  1.0000
  H   H225      1.0  0.87568  0.53239  0.66207  1.0000
  H   H226      1.0  0.9978400000000001  0.69505  0.76337  1.0000
  H   H227      1.0  0.06986  0.67325  0.71088  1.0000
  H   H228      1.0  0.008869999999999942  0.5910599999999998  0.66021  1.0000
