data_image0
_chemical_formula_structural       Zn54H270C432N54O216
_chemical_formula_sum              "Zn54 H270 C432 N54 O216"
_cell_length_a       32.02953
_cell_length_b       32.02936
_cell_length_c       23.4547
_cell_angle_alpha    89.98108999999998
_cell_angle_beta     90.019
_cell_angle_gamma    120.01224999999998

_space_group_name_H-M_alt    "P 1"
_space_group_IT_number       1

loop_
  _space_group_symop_operation_xyz
  'x, y, z'

loop_
  _atom_site_type_symbol
  _atom_site_label
  _atom_site_symmetry_multiplicity
  _atom_site_fract_x
  _atom_site_fract_y
  _atom_site_fract_z
  _atom_site_occupancy
  Zn  Zn1       1.0  0.15954  0.44286  0.97863  1.0000
  Zn  Zn2       1.0  0.28295  0.45627999999999996  0.9786  1.0000
  Zn  Zn3       1.0  0.22283  0.44789  0.85858  1.0000
  Zn  Zn4       1.0  0.55801  0.71665  0.97861  1.0000
  Zn  Zn5       1.0  0.28336  0.44199  0.47861000000000004  1.0000
  Zn  Zn6       1.0  0.49199  0.38305  0.14439  1.0000
  Zn  Zn7       1.0  0.17328  0.4562  0.47857000000000005  1.0000
  Zn  Zn8       1.0  0.87708  0.38406  0.14433  1.0000
  Zn  Zn9       1.0  0.55215  0.77492  0.85858  1.0000
  Zn  Zn10      1.0  0.8855299999999999  0.4440099999999999  0.02433  1.0000
  Zn  Zn11      1.0  0.5560100000000002  0.44154  0.024250000000000004  1.0000
  Zn  Zn12      1.0  0.5438  0.82672  0.97857  1.0000
  Zn  Zn13      1.0  0.28340999999999994  0.8398799999999998  0.97862  1.0000
  Zn  Zn14      1.0  0.5571500000000003  0.84046  0.47863  1.0000
  Zn  Zn15      1.0  0.6171  0.1095  0.1444  1.0000
  Zn  Zn16      1.0  0.54372  0.71705  0.4786  1.0000
  Zn  Zn17      1.0  0.61621  0.49326  0.14427  1.0000
  Zn  Zn18      1.0  0.22506  0.77719  0.85851  1.0000
  Zn  Zn19      1.0  0.55843  0.1145  0.024300000000000002  1.0000
  Zn  Zn20      1.0  0.17316999999999994  0.71695  0.97864  1.0000
  Zn  Zn21      1.0  0.16012999999999994  0.7166  0.47862  1.0000
  Zn  Zn22      1.0  0.8897899999999999  0.50805  0.14435  1.0000
  Zn  Zn23      1.0  0.28306  0.82683  0.47864  1.0000
  Zn  Zn24      1.0  0.50667  0.12295  0.14428  1.0000
  Zn  Zn25      1.0  0.55211  0.77718  0.35858  1.0000
  Zn  Zn26      1.0  0.61695  0.50801  0.64439  1.0000
  Zn  Zn27      1.0  0.61594  0.12291  0.64433  1.0000
  Zn  Zn28      1.0  0.22508  0.44785  0.35858  1.0000
  Zn  Zn29      1.0  0.55599  0.11447  0.52433  1.0000
  Zn  Zn30      1.0  0.55846  0.44399  0.52425  1.0000
  Zn  Zn31      1.0  0.8905  0.3829  0.6444  1.0000
  Zn  Zn32      1.0  0.50674  0.38379  0.64427  1.0000
  Zn  Zn33      1.0  0.22281999999999993  0.77494  0.35849999999999993  1.0000
  Zn  Zn34      1.0  0.8855000000000002  0.44157  0.5243  1.0000
  Zn  Zn35      1.0  0.4919500000000001  0.11021  0.64435  1.0000
  Zn  Zn36      1.0  0.87705  0.49333  0.64428  1.0000
  Zn  Zn37      1.0  0.82537  0.7766  0.31081  1.0000
  Zn  Zn38      1.0  0.94951  0.7897999999999998  0.31273  1.0000
  Zn  Zn39      1.0  0.88951  0.78119  0.19251  1.0000
  Zn  Zn40      1.0  0.2232  0.04835999999999999  0.31058  1.0000
  Zn  Zn41      1.0  0.9516399999999999  0.7767999999999998  0.81058  1.0000
  Zn  Zn42      1.0  0.84108  0.7897  0.81273  1.0000
  Zn  Zn43      1.0  0.21887  0.10834  0.19244  1.0000
  Zn  Zn44      1.0  0.2103  0.15892  0.31273  1.0000
  Zn  Zn45      1.0  0.95171  0.17478  0.31045  1.0000
  Zn  Zn46      1.0  0.22339999999999996  0.17463  0.81082  1.0000
  Zn  Zn47      1.0  0.2102  0.05049  0.81274  1.0000
  Zn  Zn48      1.0  0.89167  0.11053  0.19245  1.0000
  Zn  Zn49      1.0  0.84033  0.05078  0.3128  1.0000
  Zn  Zn50      1.0  0.8252100000000002  0.04829  0.81045  1.0000
  Zn  Zn51      1.0  0.94922  0.15966999999999998  0.8128  1.0000
  Zn  Zn52      1.0  0.21881  0.11049  0.6925100000000001  1.0000
  Zn  Zn53      1.0  0.89166  0.78114  0.69244  1.0000
  Zn  Zn54      1.0  0.88947  0.10833  0.69245  1.0000
  H   H1        1.0  0.3454  0.59225  0.7801000000000001  1.0000
  H   H2        1.0  0.30045  0.40138  0.0668  1.0000
  H   H3        1.0  0.10157  0.41594  0.09306  1.0000
  H   H4        1.0  0.39373  0.51722  0.96705  1.0000
  H   H5        1.0  0.15711  0.4414  0.7623900000000001  1.0000
  H   H6        1.0  0.29101  0.45222  0.76781  1.0000
  H   H7        1.0  0.44042  0.6669  0.77983  1.0000
  H   H8        1.0  0.2967  0.45366  0.66026  1.0000
  H   H9        1.0  0.36777  0.38778999999999997  0.10046  1.0000
  H   H10       1.0  0.46430000000000005  0.50603  0.99334  1.0000
  H   H11       1.0  0.07599000000000002  0.44736  0.9306199999999999  1.0000
  H   H12       1.0  0.9930599999999999  0.4320899999999999  0.95809  1.0000
  H   H13       1.0  0.02077000000000001  0.40229  0.12823  1.0000
  H   H14       1.0  0.15719  0.44205  0.65438  1.0000
  H   H15       1.0  0.24152  0.49754  0.9438400000000001  1.0000
  H   H16       1.0  0.40774999999999995  0.7528399999999998  0.78022  1.0000
  H   H17       1.0  0.5986500000000002  0.89923  0.06677  1.0000
  H   H18       1.0  0.5844299999999998  0.6859199999999998  0.09302  1.0000
  H   H19       1.0  0.48283  0.8768  0.96703  1.0000
  H   H20       1.0  0.55869  0.71582  0.76232  1.0000
  H   H21       1.0  0.54788  0.8389  0.76789  1.0000
  H   H22       1.0  0.3334299999999999  0.7735299999999998  0.77946  1.0000
  H   H23       1.0  0.54619  0.84317  0.66039  1.0000
  H   H24       1.0  0.61223  0.98007  0.10055  1.0000
  H   H25       1.0  0.49401  0.95849  0.99351  1.0000
  H   H26       1.0  0.55295  0.62902  0.93061  1.0000
  H   H27       1.0  0.5678  0.56108  0.95814  1.0000
  H   H28       1.0  0.59765  0.61848  0.12829  1.0000
  H   H29       1.0  0.558  0.71541  0.65424  1.0000
  H   H30       1.0  0.50352  0.74412  0.94449  1.0000
  H   H31       1.0  0.24704999999999996  0.65489  0.78025  1.0000
  H   H32       1.0  0.10082  0.69954  0.06696  1.0000
  H   H33       1.0  0.3144099999999999  0.8983099999999998  0.09303000000000002  1.0000
  H   H34       1.0  0.12311999999999994  0.6061199999999998  0.96725  1.0000
  H   H35       1.0  0.28413000000000005  0.84288  0.76209  1.0000
  H   H36       1.0  0.16099999999999995  0.7089799999999998  0.7680100000000001  1.0000
  H   H37       1.0  0.22649000000000008  0.55992  0.77957  1.0000
  H   H38       1.0  0.15686  0.70273  0.66052  1.0000
  H   H39       1.0  0.019899999999999963  0.63226  0.10076  1.0000
  H   H40       1.0  0.04137999999999999  0.53559  0.9937999999999999  1.0000
  H   H41       1.0  0.37132999999999994  0.9239599999999998  0.9305900000000001  1.0000
  H   H42       1.0  0.43897  0.0069  0.95809  1.0000
  H   H43       1.0  0.38146  0.97917  0.12816  1.0000
  H   H44       1.0  0.2845500000000001  0.84241  0.65406  1.0000
  H   H45       1.0  0.25573000000000007  0.75813  0.94377  1.0000
  H   H46       1.0  0.4077499999999999  0.6545999999999997  0.2801  1.0000
  H   H47       1.0  0.59862  0.69955  0.5668  1.0000
  H   H48       1.0  0.5840599999999999  0.8984399999999999  0.59306  1.0000
  H   H49       1.0  0.48278000000000015  0.60627  0.46705  1.0000
  H   H50       1.0  0.5586  0.84289  0.26239  1.0000
  H   H51       1.0  0.5477799999999999  0.7089899999999999  0.26781  1.0000
  H   H52       1.0  0.33311  0.55959  0.27983  1.0000
  H   H53       1.0  0.54634  0.70331  0.16026  1.0000
  H   H54       1.0  0.6122099999999999  0.6322299999999998  0.60047  1.0000
  H   H55       1.0  0.49397  0.5357  0.49334  1.0000
  H   H56       1.0  0.55265  0.92401  0.43062  1.0000
  H   H57       1.0  0.56791  0.00694  0.45809000000000005  1.0000
  H   H58       1.0  0.59771  0.97923  0.62823  1.0000
  H   H59       1.0  0.55795  0.8428099999999998  0.15438  1.0000
  H   H60       1.0  0.5024699999999999  0.7584899999999998  0.44384  1.0000
  H   H61       1.0  0.24716  0.59226  0.28022  1.0000
  H   H62       1.0  0.10077  0.40135  0.56677  1.0000
  H   H63       1.0  0.31408  0.41557  0.59302  1.0000
  H   H64       1.0  0.12320999999999999  0.51717  0.46703  1.0000
  H   H65       1.0  0.28419  0.44132  0.26232  1.0000
  H   H66       1.0  0.16111  0.45213  0.26789  1.0000
  H   H67       1.0  0.22647000000000006  0.66657  0.27946  1.0000
  H   H68       1.0  0.15684  0.45382  0.16039  1.0000
  H   H69       1.0  0.019940000000000003  0.38777  0.60055  1.0000
  H   H70       1.0  0.04151  0.506  0.49351000000000006  1.0000
  H   H71       1.0  0.37099  0.44705  0.43061  1.0000
  H   H72       1.0  0.43892  0.4321999999999999  0.45814  1.0000
  H   H73       1.0  0.38152  0.40235  0.62829  1.0000
  H   H74       1.0  0.28459  0.442  0.15424  1.0000
  H   H75       1.0  0.25588  0.49648  0.44449  1.0000
  H   H76       1.0  0.34510999999999986  0.7529499999999998  0.28025  1.0000
  H   H77       1.0  0.30047  0.89919  0.56696  1.0000
  H   H78       1.0  0.10169999999999998  0.6855899999999999  0.59303  1.0000
  H   H79       1.0  0.39388  0.87689  0.46725  1.0000
  H   H80       1.0  0.15712999999999983  0.7158699999999998  0.26209  1.0000
  H   H81       1.0  0.29102  0.839  0.26801  1.0000
  H   H82       1.0  0.44009  0.77351  0.27958  1.0000
  H   H83       1.0  0.29726999999999987  0.8431399999999998  0.16052  1.0000
  H   H84       1.0  0.36774  0.9801  0.60076  1.0000
  H   H85       1.0  0.46441  0.95862  0.4938  1.0000
  H   H86       1.0  0.07603999999999994  0.62867  0.43059  1.0000
  H   H87       1.0  0.9931  0.56103  0.45809000000000005  1.0000
  H   H88       1.0  0.020830000000000015  0.61855  0.62816  1.0000
  H   H89       1.0  0.1576  0.71545  0.15406  1.0000
  H   H90       1.0  0.24188000000000007  0.74427  0.44375999999999993  1.0000
  H   H91       1.0  0.010850000000000018  0.92529  0.11339  1.0000
  H   H92       1.0  0.96758  0.73457  0.40059  1.0000
  H   H93       1.0  0.7684499999999999  0.7495699999999998  0.42591999999999997  1.0000
  H   H94       1.0  0.06052999999999998  0.85059  0.30084  1.0000
  H   H95       1.0  0.82454  0.77519  0.09521  1.0000
  H   H96       1.0  0.95833  0.78588  0.10156000000000001  1.0000
  H   H97       1.0  0.10562999999999999  0.9997999999999999  0.11169  1.0000
  H   H98       1.0  0.96469  0.78749  0.99422  1.0000
  H   H99       1.0  0.03489999999999998  0.72077  0.4334200000000001  1.0000
  H   H100      1.0  0.13114000000000003  0.8394  0.32654  1.0000
  H   H101      1.0  0.74185  0.78082  0.26389  1.0000
  H   H102      1.0  0.65899  0.76536  0.29211  1.0000
  H   H103      1.0  0.68775  0.7356699999999999  0.46184  1.0000
  H   H104      1.0  0.82495  0.77559  0.98728  1.0000
  H   H105      1.0  0.90806  0.83056  0.27755  1.0000
  H   H106      1.0  0.07495  0.08561  0.11318  1.0000
  H   H107      1.0  0.26537  0.23268  0.40023  1.0000
  H   H108      1.0  0.25015  0.0187  0.42554  1.0000
  H   H109      1.0  0.14932  0.20957  0.30051  1.0000
  H   H110      1.0  0.22493  0.04934  0.09537000000000001  1.0000
  H   H111      1.0  0.21419  0.17239  0.10133  1.0000
  H   H112      1.0  0.00040999999999999744  0.10575  0.11144  1.0000
  H   H113      1.0  0.21252  0.17698  0.99394  1.0000
  H   H114      1.0  0.27899  0.31368  0.43321  1.0000
  H   H115      1.0  0.16036  0.29126  0.32618  1.0000
  H   H116      1.0  0.21892999999999996  0.9607199999999999  0.26364  1.0000
  H   H117      1.0  0.23463  0.89349  0.29197  1.0000
  H   H118      1.0  0.26428  0.95206  0.46160999999999996  1.0000
  H   H119      1.0  0.22448999999999997  0.04916  0.98747  1.0000
  H   H120      1.0  0.16940999999999998  0.07724999999999999  0.2774  1.0000
  H   H121      1.0  0.91389  0.98898  0.11406  1.0000
  H   H122      1.0  0.76709  0.03258  0.40065  1.0000
  H   H123      1.0  0.9813200000000001  0.23112  0.42521  1.0000
  H   H124      1.0  0.79012  0.93964  0.30096  1.0000
  H   H125      1.0  0.95068  0.17540999999999995  0.09522  1.0000
  H   H126      1.0  0.82752  0.04161  0.10143000000000002  1.0000
  H   H127      1.0  0.89344  0.89409  0.11248000000000001  1.0000
  H   H128      1.0  0.82289  0.03528  0.99407  1.0000
  H   H129      1.0  0.68595  0.96518  0.43349999999999994  1.0000
  H   H130      1.0  0.70827  0.86899  0.32664  1.0000
  H   H131      1.0  0.039569999999999994  0.25813  0.26342  1.0000
  H   H132      1.0  0.10662999999999997  0.34111  0.2919  1.0000
  H   H133      1.0  0.04775000000000002  0.31195  0.46137  1.0000
  H   H134      1.0  0.95073  0.17502  0.98731  1.0000
  H   H135      1.0  0.92245  0.09216  0.27766  1.0000
  H   H136      1.0  0.07472000000000001  0.98916  0.61339  1.0000
  H   H137      1.0  0.26544  0.03242  0.90059  1.0000
  H   H138      1.0  0.25043  0.23155  0.92592  1.0000
  H   H139      1.0  0.14941999999999997  0.9394699999999999  0.80084  1.0000
  H   H140      1.0  0.22481  0.17546  0.59521  1.0000
  H   H141      1.0  0.21412  0.04166  0.60156  1.0000
  H   H142      1.0  0.00019999999999998318  0.8943699999999999  0.61169  1.0000
  H   H143      1.0  0.21251  0.03531  0.49421999999999994  1.0000
  H   H144      1.0  0.2792399999999999  0.9650999999999997  0.93342  1.0000
  H   H145      1.0  0.16060999999999998  0.86886  0.82654  1.0000
  H   H146      1.0  0.21919  0.25815  0.7638900000000001  1.0000
  H   H147      1.0  0.23464  0.34101  0.79211  1.0000
  H   H148      1.0  0.26434  0.31225  0.96184  1.0000
  H   H149      1.0  0.22442  0.17505  0.48728  1.0000
  H   H150      1.0  0.16944  0.09194  0.7775500000000001  1.0000
  H   H151      1.0  0.91439  0.92506  0.61318  1.0000
  H   H152      1.0  0.76732  0.7346399999999998  0.9002299999999999  1.0000
  H   H153      1.0  0.9812999999999998  0.74985  0.9255399999999999  1.0000
  H   H154      1.0  0.79043  0.85068  0.8005100000000002  1.0000
  H   H155      1.0  0.95066  0.77507  0.59537  1.0000
  H   H156      1.0  0.82761  0.78581  0.60133  1.0000
  H   H157      1.0  0.8942499999999999  0.9995999999999999  0.61144  1.0000
  H   H158      1.0  0.82302  0.78749  0.49394  1.0000
  H   H159      1.0  0.68632  0.72102  0.93321  1.0000
  H   H160      1.0  0.70875  0.83964  0.82618  1.0000
  H   H161      1.0  0.03929  0.78107  0.76364  1.0000
  H   H162      1.0  0.10651999999999999  0.7653799999999998  0.79197  1.0000
  H   H163      1.0  0.047950000000000034  0.73572  0.96161  1.0000
  H   H164      1.0  0.95084  0.77551  0.48747  1.0000
  H   H165      1.0  0.92275  0.83059  0.7774  1.0000
  H   H166      1.0  0.01101999999999999  0.08610999999999999  0.61406  1.0000
  H   H167      1.0  0.96742  0.23291  0.90065  1.0000
  H   H168      1.0  0.76887  0.018679999999999995  0.92521  1.0000
  H   H169      1.0  0.06036  0.20988  0.80096  1.0000
  H   H170      1.0  0.82459  0.04931  0.59522  1.0000
  H   H171      1.0  0.95839  0.17248  0.60143  1.0000
  H   H172      1.0  0.10592  0.10656  0.61248  1.0000
  H   H173      1.0  0.96472  0.17711  0.49407  1.0000
  H   H174      1.0  0.03482000000000002  0.31406  0.9335  1.0000
  H   H175      1.0  0.13101  0.29173  0.82664  1.0000
  H   H176      1.0  0.74187  0.96043  0.7634200000000001  1.0000
  H   H177      1.0  0.65889  0.89337  0.7919  1.0000
  H   H178      1.0  0.68806  0.95226  0.96137  1.0000
  H   H179      1.0  0.82498  0.04927  0.48730999999999997  1.0000
  H   H180      1.0  0.9078400000000002  0.07754  0.77766  1.0000
  H   H181      1.0  0.67847  0.25918  0.44606  1.0000
  H   H182      1.0  0.63368  0.06799  0.73314  1.0000
  H   H183      1.0  0.43464  0.08281  0.75888  1.0000
  H   H184      1.0  0.72748  0.18387  0.6336  1.0000
  H   H185      1.0  0.4905  0.10796  0.4275  1.0000
  H   H186      1.0  0.6244799999999999  0.1189  0.43383  1.0000
  H   H187      1.0  0.77343  0.33379  0.4458  1.0000
  H   H188      1.0  0.6308500000000002  0.12111  0.32628  1.0000
  H   H189      1.0  0.70069  0.05410999999999999  0.76691  1.0000
  H   H190      1.0  0.79777  0.17249999999999996  0.6604  1.0000
  H   H191      1.0  0.40835  0.11415  0.59673  1.0000
  H   H192      1.0  0.3252700000000001  0.09829999999999997  0.62465  1.0000
  H   H193      1.0  0.35366  0.06835  0.7944  1.0000
  H   H194      1.0  0.49111  0.1089  0.31965  1.0000
  H   H195      1.0  0.57454  0.16407999999999998  0.60942  1.0000
  H   H196      1.0  0.74066  0.41942  0.44602  1.0000
  H   H197      1.0  0.93195  0.5658  0.73312  1.0000
  H   H198      1.0  0.91755  0.35221  0.75902  1.0000
  H   H199      1.0  0.81603  0.5436  0.63359  1.0000
  H   H200      1.0  0.892  0.38259  0.4275300000000001  1.0000
  H   H201      1.0  0.88101  0.5056  0.43374  1.0000
  H   H202      1.0  0.66612  0.43976  0.44584  1.0000
  H   H203      1.0  0.87887  0.50981  0.32619  1.0000
  H   H204      1.0  0.9457799999999998  0.64668  0.76683  1.0000
  H   H205      1.0  0.82734  0.62525  0.66032  1.0000
  H   H206      1.0  0.88626  0.29486999999999997  0.59678  1.0000
  H   H207      1.0  0.9016700000000001  0.22736  0.62469  1.0000
  H   H208      1.0  0.93159  0.28541  0.79452  1.0000
  H   H209      1.0  0.8911000000000001  0.38229  0.31968  1.0000
  H   H210      1.0  0.83598  0.4106099999999999  0.60954  1.0000
  H   H211      1.0  0.58088  0.32186  0.44598999999999994  1.0000
  H   H212      1.0  0.43422000000000005  0.36616  0.73302  1.0000
  H   H213      1.0  0.64772  0.5655  0.75895  1.0000
  H   H214      1.0  0.45638  0.27245  0.6335  1.0000
  H   H215      1.0  0.61743  0.50954  0.42752  1.0000
  H   H216      1.0  0.49434  0.37555  0.43379  1.0000
  H   H217      1.0  0.56048  0.22689  0.44537000000000004  1.0000
  H   H218      1.0  0.49015  0.36917  0.32626  1.0000
  H   H219      1.0  0.35333  0.2990499999999999  0.76679  1.0000
  H   H220      1.0  0.37468  0.20206  0.66037  1.0000
  H   H221      1.0  0.70523  0.5915399999999998  0.59679  1.0000
  H   H222      1.0  0.7728  0.67443  0.62475  1.0000
  H   H223      1.0  0.71459  0.64629  0.79449  1.0000
  H   H224      1.0  0.61774  0.50894  0.31967  1.0000
  H   H225      1.0  0.58954  0.42591  0.60979  1.0000
  H   H226      1.0  0.74081  0.32153  0.9460599999999999  1.0000
  H   H227      1.0  0.9320100000000002  0.36632  0.23314  1.0000
  H   H228      1.0  0.91719  0.56536  0.25888  1.0000
  H   H229      1.0  0.81613  0.27252  0.1336  1.0000
  H   H230      1.0  0.89204  0.5095  0.9275000000000001  1.0000
  H   H231      1.0  0.88109  0.37551999999999996  0.93383  1.0000
  H   H232      1.0  0.66621  0.22657  0.9458000000000001  1.0000
  H   H233      1.0  0.87889  0.36915  0.82628  1.0000
  H   H234      1.0  0.94589  0.29931  0.26691  1.0000
  H   H235      1.0  0.8275  0.20223  0.1604  1.0000
  H   H236      1.0  0.8858499999999999  0.5916499999999998  0.09672999999999998  1.0000
  H   H237      1.0  0.9016999999999998  0.67473  0.12465000000000001  1.0000
  H   H238      1.0  0.9316499999999999  0.64634  0.2944  1.0000
  H   H239      1.0  0.8911  0.50889  0.81965  1.0000
  H   H240      1.0  0.83592  0.42546  0.10942  1.0000
  H   H241      1.0  0.58058  0.25934  0.94602  1.0000
  H   H242      1.0  0.4342  0.06805  0.23312  1.0000
  H   H243      1.0  0.64779  0.08245  0.25902  1.0000
  H   H244      1.0  0.4564  0.18396999999999994  0.13359  1.0000
  H   H245      1.0  0.61741  0.108  0.92753  1.0000
  H   H246      1.0  0.4944  0.11899  0.93374  1.0000
  H   H247      1.0  0.56024  0.33388  0.94584  1.0000
  H   H248      1.0  0.49019  0.12113  0.8261900000000001  1.0000
  H   H249      1.0  0.35332  0.05422  0.26683  1.0000
  H   H250      1.0  0.37476  0.17266  0.16032  1.0000
  H   H251      1.0  0.70513  0.11374  0.09677  1.0000
  H   H252      1.0  0.7726399999999999  0.09832999999999999  0.12469  1.0000
  H   H253      1.0  0.71459  0.06841  0.29452  1.0000
  H   H254      1.0  0.61771  0.1089  0.81968  1.0000
  H   H255      1.0  0.58939  0.16401999999999994  0.10954  1.0000
  H   H256      1.0  0.67814  0.41912  0.94599  1.0000
  H   H257      1.0  0.63384  0.56578  0.23302  1.0000
  H   H258      1.0  0.4344999999999999  0.35227999999999987  0.25895  1.0000
  H   H259      1.0  0.72755  0.54363  0.1335  1.0000
  H   H260      1.0  0.49046  0.38257  0.9275200000000001  1.0000
  H   H261      1.0  0.62445  0.50567  0.9337899999999999  1.0000
  H   H262      1.0  0.77311  0.43952  0.94537  1.0000
  H   H263      1.0  0.63083  0.50985  0.82626  1.0000
  H   H264      1.0  0.70095  0.64667  0.26679  1.0000
  H   H265      1.0  0.7979400000000002  0.62533  0.16037  1.0000
  H   H266      1.0  0.40846  0.29477  0.09679  1.0000
  H   H267      1.0  0.32558  0.2272  0.12475000000000001  1.0000
  H   H268      1.0  0.35371  0.28541  0.29449  1.0000
  H   H269      1.0  0.49106  0.38226  0.8196700000000001  1.0000
  H   H270      1.0  0.5741  0.41046  0.10979  1.0000
  C   C1        1.0  0.22789  0.44698  0.5847  1.0000
  C   C2        1.0  0.22672  0.44699  0.64932  1.0000
  C   C3        1.0  0.46104  0.43579  0.06323  1.0000
  C   C4        1.0  0.42078  0.44545  0.04823  1.0000
  C   C5        1.0  0.0011300000000000075  0.41616  0.04538  1.0000
  C   C6        1.0  0.37304  0.60139  0.81208  1.0000
  C   C7        1.0  0.95238  0.40759  0.06387  1.0000
  C   C8        1.0  0.33741  0.42394999999999994  0.05231  1.0000
  C   C9        1.0  0.07644  0.41945  0.06508  1.0000
  C   C10       1.0  0.38987  0.48881  0.99578  1.0000
  C   C11       1.0  0.49006  0.66742  0.88632  1.0000
  C   C12       1.0  0.32382  0.53362  0.88547  1.0000
  C   C13       1.0  0.18672  0.44318  0.73773  1.0000
  C   C14       1.0  0.44178  0.6359  0.8623800000000001  1.0000
  C   C15       1.0  0.26221999999999995  0.44972999999999996  0.74081  1.0000
  C   C16       1.0  0.42161999999999994  0.6393599999999999  0.8118300000000002  1.0000
  C   C17       1.0  0.36634  0.57677  0.86264  1.0000
  C   C18       1.0  0.26501  0.45024  0.68157  1.0000
  C   C19       1.0  0.3743900000000001  0.41631  0.07038  1.0000
  C   C20       1.0  0.4285  0.4826  0.01073  1.0000
  C   C21       1.0  0.06197999999999998  0.43663  0.97364  1.0000
  C   C22       1.0  0.016560000000000005  0.42862  0.9889299999999999  1.0000
  C   C23       1.0  0.031949999999999965  0.41174999999999995  0.08409  1.0000
  C   C24       1.0  0.18706  0.44376  0.67838  1.0000
  C   C25       1.0  0.5538100000000002  0.78147  0.58472  1.0000
  C   C26       1.0  0.55312  0.78  0.64933  1.0000
  C   C27       1.0  0.56434  0.025489999999999995  0.0633  1.0000
  C   C28       1.0  0.5546  0.9755099999999998  0.04833  1.0000
  C   C29       1.0  0.58374  0.58502  0.04544  1.0000
  C   C30       1.0  0.39878  0.77154  0.81208  1.0000
  C   C31       1.0  0.59235  0.54484  0.06389  1.0000
  C   C32       1.0  0.57609  0.91364  0.05227999999999999  1.0000
  C   C33       1.0  0.58078  0.65719  0.06513  1.0000
  C   C34       1.0  0.51127  0.90129  0.99577  1.0000
  C   C35       1.0  0.33263999999999994  0.82245  0.88595  1.0000
  C   C36       1.0  0.46647999999999995  0.7900199999999998  0.8855300000000002  1.0000
  C   C37       1.0  0.55681  0.74363  0.7377  1.0000
  C   C38       1.0  0.36432  0.80594  0.86203  1.0000
  C   C39       1.0  0.55024  0.81256  0.74085  1.0000
  C   C40       1.0  0.3609  0.78227  0.81156  1.0000
  C   C41       1.0  0.42334999999999995  0.78949  0.86267  1.0000
  C   C42       1.0  0.54967  0.81488  0.68161  1.0000
  C   C43       1.0  0.5837099999999998  0.9582199999999998  0.07046  1.0000
  C   C44       1.0  0.51744  0.9461  0.01085  1.0000
  C   C45       1.0  0.56355  0.6255799999999999  0.97364  1.0000
  C   C46       1.0  0.57133  0.58805  0.98899  1.0000
  C   C47       1.0  0.58824  0.6202499999999999  0.08415  1.0000
  C   C48       1.0  0.55624  0.74348  0.67835  1.0000
  C   C49       1.0  0.21869000000000005  0.7717  0.5847  1.0000
  C   C50       1.0  0.22005000000000005  0.77281  0.64929  1.0000
  C   C51       1.0  0.9743300000000001  0.53894  0.0634  1.0000
  C   C52       1.0  0.0244  0.57919  0.04857  1.0000
  C   C53       1.0  0.4149800000000001  0.99882  0.04535  1.0000
  C   C54       1.0  0.22838999999999995  0.62719  0.81211  1.0000
  C   C55       1.0  0.45519  0.04758  0.06384  1.0000
  C   C56       1.0  0.08638999999999995  0.66255  0.05254  1.0000
  C   C57       1.0  0.34298  0.92347  0.065  1.0000
  C   C58       1.0  0.09864999999999996  0.61003  0.99606  1.0000
  C   C59       1.0  0.17753999999999995  0.51012  0.88608  1.0000
  C   C60       1.0  0.20982999999999988  0.6763099999999997  0.88549  1.0000
  C   C61       1.0  0.25632  0.81313  0.73755  1.0000
  C   C62       1.0  0.19404  0.55833  0.86214  1.0000
  C   C63       1.0  0.18737000000000006  0.73761  0.7408900000000002  1.0000
  C   C64       1.0  0.21770999999999996  0.5786  0.81166  1.0000
  C   C65       1.0  0.21042  0.63378  0.86267  1.0000
  C   C66       1.0  0.18511  0.73456  0.68167  1.0000
  C   C67       1.0  0.04176000000000005  0.6256  0.07068  1.0000
  C   C68       1.0  0.05380999999999994  0.57142  0.01112  1.0000
  C   C69       1.0  0.37458  0.93795  0.9736  1.0000
  C   C70       1.0  0.41199  0.98339  0.9889000000000001  1.0000
  C   C71       1.0  0.37974  0.968  0.08402  1.0000
  C   C72       1.0  0.25649000000000005  0.81259  0.67821  1.0000
  C   C73       1.0  0.55302  0.77211  0.0847  1.0000
  C   C74       1.0  0.55301  0.77328  0.14932  1.0000
  C   C75       1.0  0.56421  0.53896  0.56323  1.0000
  C   C76       1.0  0.5545499999999999  0.5792299999999999  0.54823  1.0000
  C   C77       1.0  0.58384  0.99887  0.54538  1.0000
  C   C78       1.0  0.39862000000000003  0.62697  0.31208  1.0000
  C   C79       1.0  0.59241  0.04762  0.56387  1.0000
  C   C80       1.0  0.57605  0.66259  0.55231  1.0000
  C   C81       1.0  0.5805500000000002  0.92357  0.56508  1.0000
  C   C82       1.0  0.51119  0.61013  0.49578  1.0000
  C   C83       1.0  0.33258  0.50994  0.38632  1.0000
  C   C84       1.0  0.46638999999999997  0.6761899999999997  0.38547  1.0000
  C   C85       1.0  0.55682  0.81328  0.23773  1.0000
  C   C86       1.0  0.3641  0.55822  0.3623799999999999  1.0000
  C   C87       1.0  0.55027  0.73778  0.24081  1.0000
  C   C88       1.0  0.36064  0.57838  0.31183  1.0000
  C   C89       1.0  0.42323  0.63366  0.36264  1.0000
  C   C90       1.0  0.54976  0.735  0.18157  1.0000
  C   C91       1.0  0.58369  0.62561  0.57038  1.0000
  C   C92       1.0  0.5174  0.5715  0.51073  1.0000
  C   C93       1.0  0.56338  0.93802  0.47364  1.0000
  C   C94       1.0  0.57138  0.98344  0.48893  1.0000
  C   C95       1.0  0.5882499999999999  0.9680599999999999  0.58409  1.0000
  C   C96       1.0  0.55624  0.81295  0.17838  1.0000
  C   C97       1.0  0.21853  0.4462  0.08472  1.0000
  C   C98       1.0  0.22001000000000007  0.44688  0.14933  1.0000
  C   C99       1.0  0.97451  0.43566  0.5633  1.0000
  C   C100      1.0  0.024489999999999994  0.4454  0.54833  1.0000
  C   C101      1.0  0.41498  0.4162599999999999  0.54544  1.0000
  C   C102      1.0  0.22846  0.60122  0.31208  1.0000
  C   C103      1.0  0.45516  0.40765  0.56389  1.0000
  C   C104      1.0  0.08636999999999999  0.42391  0.55228  1.0000
  C   C105      1.0  0.34282  0.41922  0.56513  1.0000
  C   C106      1.0  0.09871000000000002  0.48873  0.49577  1.0000
  C   C107      1.0  0.17755  0.66736  0.38595000000000007  1.0000
  C   C108      1.0  0.20998  0.53352  0.38553  1.0000
  C   C109      1.0  0.2563800000000001  0.44319  0.23770000000000002  1.0000
  C   C110      1.0  0.19405999999999998  0.63568  0.36202999999999996  1.0000
  C   C111      1.0  0.18745  0.44976  0.24085  1.0000
  C   C112      1.0  0.21773  0.6391  0.31156  1.0000
  C   C113      1.0  0.21052  0.57666  0.36267  1.0000
  C   C114      1.0  0.18512  0.45033  0.18161  1.0000
  C   C115      1.0  0.04178999999999999  0.4163  0.57046  1.0000
  C   C116      1.0  0.05389999999999996  0.48255999999999993  0.51085  1.0000
  C   C117      1.0  0.37442  0.43645  0.47364  1.0000
  C   C118      1.0  0.41196  0.42867  0.48899  1.0000
  C   C119      1.0  0.37975  0.41176  0.58415  1.0000
  C   C120      1.0  0.25652  0.44376  0.17835  1.0000
  C   C121      1.0  0.2283099999999999  0.7813099999999997  0.0847  1.0000
  C   C122      1.0  0.22718999999999984  0.7799599999999998  0.14929  1.0000
  C   C123      1.0  0.46106  0.02566999999999999  0.5634  1.0000
  C   C124      1.0  0.42081  0.9756  0.54857  1.0000
  C   C125      1.0  0.0011700000000000208  0.58502  0.54535  1.0000
  C   C126      1.0  0.3728099999999999  0.7716099999999999  0.31211  1.0000
  C   C127      1.0  0.9524100000000001  0.54481  0.56384  1.0000
  C   C128      1.0  0.33745  0.91362  0.55254  1.0000
  C   C129      1.0  0.07653000000000001  0.65702  0.565  1.0000
  C   C130      1.0  0.3899799999999999  0.9013499999999998  0.49606000000000006  1.0000
  C   C131      1.0  0.48987999999999987  0.8224599999999997  0.38608  1.0000
  C   C132      1.0  0.3236899999999999  0.79017  0.38549  1.0000
  C   C133      1.0  0.1868699999999999  0.7436799999999998  0.23755  1.0000
  C   C134      1.0  0.4416799999999999  0.8059599999999998  0.36214  1.0000
  C   C135      1.0  0.2623899999999999  0.8126299999999999  0.24089000000000002  1.0000
  C   C136      1.0  0.4214  0.7823  0.31166  1.0000
  C   C137      1.0  0.36622999999999994  0.7895799999999998  0.36267  1.0000
  C   C138      1.0  0.2654499999999999  0.8148899999999998  0.18167  1.0000
  C   C139      1.0  0.3744  0.95824  0.57068  1.0000
  C   C140      1.0  0.42858  0.9462  0.51112  1.0000
  C   C141      1.0  0.06204999999999998  0.62542  0.4736  1.0000
  C   C142      1.0  0.016609999999999986  0.58801  0.4889  1.0000
  C   C143      1.0  0.03199999999999997  0.6202599999999999  0.58402  1.0000
  C   C144      1.0  0.18742  0.74351  0.17821  1.0000
  C   C145      1.0  0.8954000000000001  0.78043  0.9179  1.0000
  C   C146      1.0  0.89451  0.7805299999999998  0.9826100000000001  1.0000
  C   C147      1.0  0.12847  0.76947  0.39682  1.0000
  C   C148      1.0  0.08791999999999996  0.77876  0.38154  1.0000
  C   C149      1.0  0.6675899999999999  0.7494399999999998  0.37922  1.0000
  C   C150      1.0  0.03890000000000003  0.93417  0.14469  1.0000
  C   C151      1.0  0.61881  0.74058  0.3980000000000001  1.0000
  C   C152      1.0  0.004489999999999986  0.75718  0.38591  1.0000
  C   C153      1.0  0.7430799999999999  0.7529499999999998  0.3982200000000001  1.0000
  C   C154      1.0  0.05671999999999991  0.8221299999999998  0.32946  1.0000
  C   C155      1.0  0.15645  0.00032  0.21805  1.0000
  C   C156      1.0  0.99017  0.86707  0.21923000000000004  1.0000
  C   C157      1.0  0.85421  0.77684  0.07082  1.0000
  C   C158      1.0  0.10825999999999998  0.96881  0.19384  1.0000
  C   C159      1.0  0.9296399999999999  0.78338  0.07439  1.0000
  C   C160      1.0  0.08747  0.9722  0.14376  1.0000
  C   C161      1.0  0.03276999999999992  0.9096099999999998  0.1952  1.0000
  C   C162      1.0  0.93275  0.7839199999999998  0.01512  1.0000
  C   C163      1.0  0.04152000000000003  0.7494599999999999  0.4036  1.0000
  C   C164      1.0  0.0954299999999999  0.8158999999999997  0.34411  1.0000
  C   C165      1.0  0.72805  0.77005  0.30697  1.0000
  C   C166      1.0  0.6827  0.76197  0.32269  1.0000
  C   C167      1.0  0.69866  0.7451599999999999  0.41763  1.0000
  C   C168      1.0  0.85474  0.77731  0.01148  1.0000
  C   C169      1.0  0.21964999999999998  0.11471999999999999  0.9178599999999999  1.0000
  C   C170      1.0  0.21954000000000007  0.11379  0.9825600000000001  1.0000
  C   C171      1.0  0.23036  0.35846  0.39681  1.0000
  C   C172      1.0  0.22095  0.30864  0.38136  1.0000
  C   C173      1.0  0.25057999999999986  0.9180799999999998  0.37904  1.0000
  C   C174      1.0  0.06596000000000003  0.10461  0.14461  1.0000
  C   C175      1.0  0.2596599999999999  0.8782999999999997  0.39791  1.0000
  C   C176      1.0  0.24267  0.24689999999999995  0.38563000000000003  1.0000
  C   C177      1.0  0.24682000000000007  0.98994  0.39793  1.0000
  C   C178      1.0  0.17775  0.23418  0.32917  1.0000
  C   C179      1.0  0.9995799999999999  0.15558  0.21826  1.0000
  C   C180      1.0  0.13298999999999997  0.12286999999999997  0.2192  1.0000
  C   C181      1.0  0.22328  0.07731  0.07087  1.0000
  C   C182      1.0  0.03113  0.13904  0.19387  1.0000
  C   C183      1.0  0.2167  0.14618  0.07423  1.0000
  C   C184      1.0  0.02788  0.11505  0.14369  1.0000
  C   C185      1.0  0.09045  0.12295  0.19518000000000002  1.0000
  C   C186      1.0  0.21613  0.14867  0.01496  1.0000
  C   C187      1.0  0.25028  0.29158  0.40342  1.0000
  C   C188      1.0  0.18386  0.27907  0.34386999999999995  1.0000
  C   C189      1.0  0.22973  0.95774  0.30673  1.0000
  C   C190      1.0  0.23796999999999988  0.9205799999999998  0.32251  1.0000
  C   C191      1.0  0.2547500000000001  0.95341  0.4173899999999999  1.0000
  C   C192      1.0  0.22278  0.07728  0.01154  1.0000
  C   C193      1.0  0.8850599999999998  0.10465  0.91784  1.0000
  C   C194      1.0  0.88605  0.10547999999999999  0.98255  1.0000
  C   C195      1.0  0.64116  0.8717399999999997  0.39704  1.0000
  C   C196      1.0  0.69095  0.91225  0.38163  1.0000
  C   C197      1.0  0.08196  0.33232  0.37893  1.0000
  C   C198      1.0  0.8953199999999999  0.9611499999999997  0.14576  1.0000
  C   C199      1.0  0.12174000000000003  0.38118  0.39788  1.0000
  C   C200      1.0  0.75278  0.99568  0.38596  1.0000
  C   C201      1.0  0.010109999999999992  0.25662  0.39766  1.0000
  C   C202      1.0  0.7654500000000002  0.94344  0.32953  1.0000
  C   C203      1.0  0.84414  0.8436199999999999  0.21872  1.0000
  C   C204      1.0  0.87728  0.010139999999999998  0.21983000000000003  1.0000
  C   C205      1.0  0.92265  0.14576  0.07079  1.0000
  C   C206      1.0  0.86095  0.89197  0.1951  1.0000
  C   C207      1.0  0.85373  0.07032  0.0743  1.0000
  C   C208      1.0  0.8847  0.91259  0.14482  1.0000
  C   C209      1.0  0.87737  0.96744  0.19650000000000004  1.0000
  C   C210      1.0  0.85121  0.06723  0.01503  1.0000
  C   C211      1.0  0.70805  0.95864  0.40368  1.0000
  C   C212      1.0  0.7205300000000002  0.90472  0.34419  1.0000
  C   C213      1.0  0.04247999999999997  0.27185  0.30653  1.0000
  C   C214      1.0  0.07954000000000003  0.31728  0.32239  1.0000
  C   C215      1.0  0.046549999999999994  0.3011  0.41718  1.0000
  C   C216      1.0  0.92261  0.14524  0.01146  1.0000
  C   C217      1.0  0.21957  0.1046  0.4179  1.0000
  C   C218      1.0  0.21947  0.10547999999999999  0.48261  1.0000
  C   C219      1.0  0.23052999999999996  0.8715299999999999  0.89682  1.0000
  C   C220      1.0  0.22123999999999983  0.9120899999999997  0.8815399999999999  1.0000
  C   C221      1.0  0.25057  0.33242  0.87922  1.0000
  C   C222      1.0  0.06584  0.96111  0.64469  1.0000
  C   C223      1.0  0.25942  0.38119  0.898  1.0000
  C   C224      1.0  0.24281999999999992  0.9955199999999998  0.88591  1.0000
  C   C225      1.0  0.24705  0.25693  0.89822  1.0000
  C   C226      1.0  0.17788  0.94328  0.82946  1.0000
  C   C227      1.0  0.9996799999999999  0.84355  0.71805  1.0000
  C   C228      1.0  0.13293  0.00983  0.71923  1.0000
  C   C229      1.0  0.22316  0.14579  0.57082  1.0000
  C   C230      1.0  0.031189999999999878  0.8917499999999998  0.69384  1.0000
  C   C231      1.0  0.21663  0.07036  0.57439  1.0000
  C   C232      1.0  0.027809999999999988  0.91254  0.64376  1.0000
  C   C233      1.0  0.0904  0.96723  0.6952  1.0000
  C   C234      1.0  0.21608  0.06725  0.51512  1.0000
  C   C235      1.0  0.25054  0.95849  0.9036  1.0000
  C   C236      1.0  0.1841  0.90458  0.84411  1.0000
  C   C237      1.0  0.22996  0.27195  0.80697  1.0000
  C   C238      1.0  0.23804  0.3173  0.82269  1.0000
  C   C239      1.0  0.25484  0.30134  0.9176300000000001  1.0000
  C   C240      1.0  0.22268999999999997  0.14525999999999997  0.51148  1.0000
  C   C241      1.0  0.88528  0.78036  0.41786  1.0000
  C   C242      1.0  0.88621  0.78047  0.48256  1.0000
  C   C243      1.0  0.64154  0.76964  0.89681  1.0000
  C   C244      1.0  0.69136  0.7790599999999999  0.88136  1.0000
  C   C245      1.0  0.08192  0.74942  0.87904  1.0000
  C   C246      1.0  0.8953899999999999  0.9340399999999999  0.64461  1.0000
  C   C247      1.0  0.12170000000000006  0.74034  0.89791  1.0000
  C   C248      1.0  0.7531000000000002  0.75733  0.8856300000000001  1.0000
  C   C249      1.0  0.01005999999999997  0.7531799999999998  0.8979300000000001  1.0000
  C   C250      1.0  0.7658200000000001  0.8222499999999999  0.82917  1.0000
  C   C251      1.0  0.84442  0.00042  0.7182600000000001  1.0000
  C   C252      1.0  0.87713  0.86701  0.7192  1.0000
  C   C253      1.0  0.92269  0.77673  0.57087  1.0000
  C   C254      1.0  0.8609600000000002  0.96887  0.69387  1.0000
  C   C255      1.0  0.85381  0.7833  0.57423  1.0000
  C   C256      1.0  0.8849499999999999  0.9721299999999999  0.64369  1.0000
  C   C257      1.0  0.87705  0.90955  0.69518  1.0000
  C   C258      1.0  0.85133  0.78387  0.51496  1.0000
  C   C259      1.0  0.70842  0.74972  0.9034200000000001  1.0000
  C   C260      1.0  0.72093  0.8161399999999999  0.84387  1.0000
  C   C261      1.0  0.042269999999999974  0.77027  0.8067300000000001  1.0000
  C   C262      1.0  0.07942000000000003  0.76203  0.8225099999999999  1.0000
  C   C263      1.0  0.046589999999999916  0.7452499999999997  0.9173900000000001  1.0000
  C   C264      1.0  0.92272  0.77722  0.51154  1.0000
  C   C265      1.0  0.89535  0.11494  0.41784000000000004  1.0000
  C   C266      1.0  0.8945100000000002  0.11395  0.48255  1.0000
  C   C267      1.0  0.12826  0.35884999999999995  0.89704  1.0000
  C   C268      1.0  0.08774999999999994  0.3090499999999999  0.88163  1.0000
  C   C269      1.0  0.66768  0.91804  0.87893  1.0000
  C   C270      1.0  0.038850000000000016  0.10468  0.64576  1.0000
  C   C271      1.0  0.61882  0.87827  0.8978800000000001  1.0000
  C   C272      1.0  0.004330000000000002  0.24722  0.88596  1.0000
  C   C273      1.0  0.74338  0.9898899999999999  0.89766  1.0000
  C   C274      1.0  0.05656999999999999  0.23455  0.82953  1.0000
  C   C275      1.0  0.15638  0.15586  0.7187200000000001  1.0000
  C   C276      1.0  0.98986  0.12272  0.71983  1.0000
  C   C277      1.0  0.85424  0.07735  0.57079  1.0000
  C   C278      1.0  0.10803  0.13905  0.6951  1.0000
  C   C279      1.0  0.92968  0.14627  0.5743  1.0000
  C   C280      1.0  0.08741  0.11529999999999999  0.64482  1.0000
  C   C281      1.0  0.03255999999999999  0.12262999999999998  0.6965000000000001  1.0000
  C   C282      1.0  0.93277  0.14878999999999995  0.51503  1.0000
  C   C283      1.0  0.04136999999999997  0.29195  0.9036799999999999  1.0000
  C   C284      1.0  0.09528  0.27948  0.84419  1.0000
  C   C285      1.0  0.72815  0.9575299999999998  0.80653  1.0000
  C   C286      1.0  0.68272  0.9204599999999998  0.8224000000000001  1.0000
  C   C287      1.0  0.6988999999999999  0.9534599999999998  0.91718  1.0000
  C   C288      1.0  0.85476  0.07738999999999997  0.51146  1.0000
  C   C289      1.0  0.56187  0.11379999999999997  0.25034  1.0000
  C   C290      1.0  0.56073  0.11401  0.31494  1.0000
  C   C291      1.0  0.79452  0.10239  0.73028  1.0000
  C   C292      1.0  0.7541  0.1119  0.71505  1.0000
  C   C293      1.0  0.33362  0.08210999999999999  0.71172  1.0000
  C   C294      1.0  0.7061  0.26818  0.478  1.0000
  C   C295      1.0  0.2847  0.07313  0.73026  1.0000
  C   C296      1.0  0.67068  0.09052999999999997  0.7186999999999999  1.0000
  C   C297      1.0  0.40930000000000005  0.08612  0.73106  1.0000
  C   C298      1.0  0.72332  0.15537  0.66239  1.0000
  C   C299      1.0  0.82323  0.334  0.55192  1.0000
  C   C300      1.0  0.65696  0.20012  0.55119  1.0000
  C   C301      1.0  0.52033  0.10995  0.40314  1.0000
  C   C302      1.0  0.7749100000000002  0.30256  0.52813  1.0000
  C   C303      1.0  0.59586  0.11662  0.40665000000000007  1.0000
  C   C304      1.0  0.7546900000000002  0.30614  0.47771  1.0000
  C   C305      1.0  0.69946  0.24344  0.52847  1.0000
  C   C306      1.0  0.59897  0.11738999999999998  0.34741  1.0000
  C   C307      1.0  0.70758  0.08277  0.73691  1.0000
  C   C308      1.0  0.76189  0.14909  0.6776  1.0000
  C   C309      1.0  0.39445  0.1033  0.63977  1.0000
  C   C310      1.0  0.34894  0.09489  0.65528  1.0000
  C   C311      1.0  0.36469  0.07795  0.75024  1.0000
  C   C312      1.0  0.52091  0.11063  0.3438  1.0000
  C   C313      1.0  0.88616  0.44819999999999993  0.25028  1.0000
  C   C314      1.0  0.886  0.44682  0.31491  1.0000
  C   C315      1.0  0.8972800000000001  0.69206  0.73031  1.0000
  C   C316      1.0  0.8879100000000001  0.64221  0.7150100000000001  1.0000
  C   C317      1.0  0.91783  0.25173  0.7118  1.0000
  C   C318      1.0  0.73168  0.438  0.47803000000000007  1.0000
  C   C319      1.0  0.9266  0.21164  0.73032  1.0000
  C   C320      1.0  0.9094099999999999  0.58026  0.71865  1.0000
  C   C321      1.0  0.91416  0.3235799999999999  0.7311500000000001  1.0000
  C   C322      1.0  0.8445300000000001  0.56799  0.66233  1.0000
  C   C323      1.0  0.66596  0.48937  0.552  1.0000
  C   C324      1.0  0.7997500000000001  0.45686  0.55121  1.0000
  C   C325      1.0  0.89002  0.4104399999999999  0.40313  1.0000
  C   C326      1.0  0.69733  0.4724  0.52822  1.0000
  C   C327      1.0  0.88333  0.47929  0.40659999999999996  1.0000
  C   C328      1.0  0.69374  0.44864999999999994  0.47777  1.0000
  C   C329      1.0  0.7564299999999999  0.4560499999999999  0.5285  1.0000
  C   C330      1.0  0.8825899999999999  0.4816499999999999  0.34736  1.0000
  C   C331      1.0  0.9171199999999999  0.6248899999999998  0.73685  1.0000
  C   C332      1.0  0.8507599999999998  0.6127999999999999  0.67753  1.0000
  C   C333      1.0  0.89702  0.29172  0.63984  1.0000
  C   C334      1.0  0.90518  0.25445  0.65534  1.0000
  C   C335      1.0  0.9221  0.28698  0.75034  1.0000
  C   C336      1.0  0.8893800000000001  0.41038  0.34379  1.0000
  C   C337      1.0  0.5519  0.43816  0.25035  1.0000
  C   C338      1.0  0.55323  0.43929  0.31495  1.0000
  C   C339      1.0  0.30796  0.20521  0.73033  1.0000
  C   C340      1.0  0.35779  0.24572  0.7149599999999999  1.0000
  C   C341      1.0  0.74833  0.6662499999999998  0.7118  1.0000
  C   C342      1.0  0.5621599999999999  0.29413999999999996  0.47781000000000007  1.0000
  C   C343      1.0  0.78844  0.71513  0.73031  1.0000
  C   C344      1.0  0.41974999999999996  0.3291699999999999  0.71854  1.0000
  C   C345      1.0  0.6764  0.5907499999999999  0.7311000000000001  1.0000
  C   C346      1.0  0.43198  0.27656  0.66223  1.0000
  C   C347      1.0  0.51071  0.17687999999999998  0.55133  1.0000
  C   C348      1.0  0.5432100000000001  0.3430699999999999  0.55119  1.0000
  C   C349      1.0  0.58957  0.47971  0.40314  1.0000
  C   C350      1.0  0.52765  0.22521  0.52764  1.0000
  C   C351      1.0  0.52067  0.4041699999999999  0.40662  1.0000
  C   C352      1.0  0.55152  0.24556  0.47731  1.0000
  C   C353      1.0  0.54402  0.30063999999999996  0.52832  1.0000
  C   C354      1.0  0.51835  0.40105  0.34739000000000003  1.0000
  C   C355      1.0  0.37512  0.29224  0.73678  1.0000
  C   C356      1.0  0.3871699999999999  0.23796999999999993  0.67748  1.0000
  C   C357      1.0  0.70835  0.6054399999999998  0.63984  1.0000
  C   C358      1.0  0.74566  0.65086  0.65537  1.0000
  C   C359      1.0  0.71304  0.63526  0.75031  1.0000
  C   C360      1.0  0.58967  0.47912  0.34381  1.0000
  C   C361      1.0  0.8861999999999999  0.43813  0.75034  1.0000
  C   C362      1.0  0.8859899999999999  0.43926999999999994  0.81495  1.0000
  C   C363      1.0  0.89761  0.20548  0.23028  1.0000
  C   C364      1.0  0.8881  0.2459  0.21505  1.0000
  C   C365      1.0  0.91789  0.6663799999999999  0.21172  1.0000
  C   C366      1.0  0.7318200000000002  0.2939  0.9779999999999999  1.0000
  C   C367      1.0  0.92687  0.7153  0.23026  1.0000
  C   C368      1.0  0.90947  0.32932  0.2187  1.0000
  C   C369      1.0  0.91388  0.5907  0.23106  1.0000
  C   C370      1.0  0.84463  0.27668  0.16239  1.0000
  C   C371      1.0  0.666  0.17676999999999998  0.05191  1.0000
  C   C372      1.0  0.79988  0.34304  0.05119  1.0000
  C   C373      1.0  0.89005  0.4796699999999999  0.90314  1.0000
  C   C374      1.0  0.69744  0.22508999999999998  0.02813  1.0000
  C   C375      1.0  0.8833800000000003  0.40414  0.9066499999999998  1.0000
  C   C376      1.0  0.69386  0.24531  0.97771  1.0000
  C   C377      1.0  0.75656  0.30054  0.02847  1.0000
  C   C378      1.0  0.8826  0.40104  0.8474099999999999  1.0000
  C   C379      1.0  0.91723  0.29242  0.23691  1.0000
  C   C380      1.0  0.85091  0.23810999999999993  0.1776  1.0000
  C   C381      1.0  0.8967  0.60555  0.13977  1.0000
  C   C382      1.0  0.9051100000000001  0.65106  0.15528  1.0000
  C   C383      1.0  0.92205  0.63531  0.25024  1.0000
  C   C384      1.0  0.8893700000000002  0.47909  0.8437999999999999  1.0000
  C   C385      1.0  0.5518  0.11384  0.75029  1.0000
  C   C386      1.0  0.55318  0.11399999999999999  0.81491  1.0000
  C   C387      1.0  0.30794  0.10272  0.23030999999999996  1.0000
  C   C388      1.0  0.35779  0.11208999999999997  0.21501  1.0000
  C   C389      1.0  0.74827  0.08216  0.21180000000000002  1.0000
  C   C390      1.0  0.562  0.26832  0.97803  1.0000
  C   C391      1.0  0.78836  0.0734  0.23032  1.0000
  C   C392      1.0  0.41974  0.09059  0.21865000000000004  1.0000
  C   C393      1.0  0.67642  0.08583  0.23114  1.0000
  C   C394      1.0  0.43202  0.15547  0.16233  1.0000
  C   C395      1.0  0.5106400000000002  0.33403999999999995  0.052  1.0000
  C   C396      1.0  0.54314  0.20024999999999998  0.051210000000000006  1.0000
  C   C397      1.0  0.5895600000000002  0.10998  0.90313  1.0000
  C   C398      1.0  0.5276000000000001  0.30266999999999994  0.028219999999999995  1.0000
  C   C399      1.0  0.5207100000000002  0.11666999999999998  0.9066  1.0000
  C   C400      1.0  0.55136  0.30626  0.97777  1.0000
  C   C401      1.0  0.54396  0.24356999999999998  0.0285  1.0000
  C   C402      1.0  0.51835  0.11741  0.84736  1.0000
  C   C403      1.0  0.37511  0.08288  0.23684999999999998  1.0000
  C   C404      1.0  0.3872  0.14924  0.17753  1.0000
  C   C405      1.0  0.70828  0.10297999999999999  0.13984  1.0000
  C   C406      1.0  0.74555  0.09482  0.15534  1.0000
  C   C407      1.0  0.71302  0.07789999999999998  0.25034  1.0000
  C   C408      1.0  0.58962  0.11061999999999997  0.84379  1.0000
  C   C409      1.0  0.5618400000000002  0.4481  0.75035  1.0000
  C   C410      1.0  0.56071  0.44677  0.81495  1.0000
  C   C411      1.0  0.79479  0.69205  0.23033  1.0000
  C   C412      1.0  0.75428  0.64221  0.21496  1.0000
  C   C413      1.0  0.33376  0.25167  0.21180000000000002  1.0000
  C   C414      1.0  0.70586  0.43784  0.97781  1.0000
  C   C415      1.0  0.28488  0.21156  0.23030999999999996  1.0000
  C   C416      1.0  0.67083  0.5802499999999999  0.21854000000000004  1.0000
  C   C417      1.0  0.40926  0.3236  0.2311  1.0000
  C   C418      1.0  0.72344  0.56802  0.16223  1.0000
  C   C419      1.0  0.8231199999999999  0.48928999999999995  0.05133  1.0000
  C   C420      1.0  0.65693  0.4568  0.05119  1.0000
  C   C421      1.0  0.52029  0.41043  0.90314  1.0000
  C   C422      1.0  0.77479  0.47235  0.02764  1.0000
  C   C423      1.0  0.5958299999999999  0.47932999999999987  0.90663  1.0000
  C   C424      1.0  0.75444  0.44847999999999993  0.97731  1.0000
  C   C425      1.0  0.69936  0.45598  0.02832  1.0000
  C   C426      1.0  0.59895  0.48166  0.84739  1.0000
  C   C427      1.0  0.7077599999999998  0.6248799999999998  0.23677999999999996  1.0000
  C   C428      1.0  0.7620300000000002  0.61283  0.17748  1.0000
  C   C429      1.0  0.39455999999999997  0.29164999999999996  0.13984  1.0000
  C   C430      1.0  0.34914  0.25434  0.15537  1.0000
  C   C431      1.0  0.36474  0.28696  0.25031  1.0000
  C   C432      1.0  0.5208799999999999  0.4103299999999999  0.84381  1.0000
  N   N1        1.0  0.22357999999999997  0.44593999999999995  0.76854  1.0000
  N   N2        1.0  0.09159000000000003  0.43206  0.0109  1.0000
  N   N3        1.0  0.3447599999999999  0.4593799999999999  0.015400000000000002  1.0000
  N   N4        1.0  0.55412  0.77773  0.76854  1.0000
  N   N5        1.0  0.5682800000000002  0.65978  0.010919999999999997  1.0000
  N   N6        1.0  0.54073  0.88562  0.01527  1.0000
  N   N7        1.0  0.22221  0.77637  0.76847  1.0000
  N   N8        1.0  0.34043  0.90829  0.01084  1.0000
  N   N9        1.0  0.11441  0.65517  0.01559  1.0000
  N   N10       1.0  0.55406  0.77642  0.26854  1.0000
  N   N11       1.0  0.56794  0.90841  0.5109  1.0000
  N   N12       1.0  0.54063  0.65524  0.51539  1.0000
  N   N13       1.0  0.22226999999999997  0.44587999999999994  0.26854  1.0000
  N   N14       1.0  0.34022  0.43172  0.51092  1.0000
  N   N15       1.0  0.11438999999999998  0.4592699999999999  0.51527  1.0000
  N   N16       1.0  0.22363000000000005  0.7778  0.26847  1.0000
  N   N17       1.0  0.09171999999999994  0.65958  0.51084  1.0000
  N   N18       1.0  0.34483  0.8856  0.51559  1.0000
  N   N19       1.0  0.89091  0.77955  0.10193999999999999  1.0000
  N   N20       1.0  0.7578700000000003  0.76553  0.34394  1.0000
  N   N21       1.0  0.011679999999999939  0.7927399999999999  0.34928  1.0000
  N   N22       1.0  0.22055  0.11132  0.10186  1.0000
  N   N23       1.0  0.23417000000000002  0.99206  0.34364  1.0000
  N   N24       1.0  0.20718  0.21854  0.34894  1.0000
  N   N25       1.0  0.88865  0.10906  0.10187  1.0000
  N   N26       1.0  0.008139999999999998  0.24188  0.3434  1.0000
  N   N27       1.0  0.78112  0.98849  0.3493200000000001  1.0000
  N   N28       1.0  0.22045  0.10909  0.60194  1.0000
  N   N29       1.0  0.23447  0.24212999999999998  0.84394  1.0000
  N   N30       1.0  0.20725999999999997  0.98833  0.84928  1.0000
  N   N31       1.0  0.8886800000000002  0.77946  0.60186  1.0000
  N   N32       1.0  0.00793999999999996  0.7658399999999999  0.84364  1.0000
  N   N33       1.0  0.78145  0.79283  0.84894  1.0000
  N   N34       1.0  0.89094  0.11135  0.60187  1.0000
  N   N35       1.0  0.75812  0.99186  0.8434  1.0000
  N   N36       1.0  0.01151  0.21889  0.84932  1.0000
  N   N37       1.0  0.5570700000000002  0.11266  0.43418000000000007  1.0000
  N   N38       1.0  0.42429  0.09894999999999997  0.67687  1.0000
  N   N39       1.0  0.6781  0.12601  0.68181  1.0000
  N   N40       1.0  0.88727  0.44444  0.43416  1.0000
  N   N41       1.0  0.90149  0.32594  0.67694  1.0000
  N   N42       1.0  0.87393  0.55218  0.68177  1.0000
  N   N43       1.0  0.55552  0.44297  0.43416  1.0000
  N   N44       1.0  0.67405  0.57573  0.6769  1.0000
  N   N45       1.0  0.4477999999999999  0.32176999999999994  0.68164  1.0000
  N   N46       1.0  0.88734  0.44293999999999994  0.93418  1.0000
  N   N47       1.0  0.90105  0.57571  0.17687  1.0000
  N   N48       1.0  0.87399  0.32188999999999995  0.18181  1.0000
  N   N49       1.0  0.55556  0.11273  0.93416  1.0000
  N   N50       1.0  0.67406  0.09851  0.17694  1.0000
  N   N51       1.0  0.44782  0.12607  0.18177000000000001  1.0000
  N   N52       1.0  0.55703  0.44448  0.93416  1.0000
  N   N53       1.0  0.42428  0.3259499999999999  0.1769  1.0000
  N   N54       1.0  0.67823  0.5522  0.18164000000000002  1.0000
  O   O1        1.0  0.22681  0.46258  0.94602  1.0000
  O   O2        1.0  0.92234  0.40221  0.02547  1.0000
  O   O3        1.0  0.28652  0.51645  0.85396  1.0000
  O   O4        1.0  0.45439  0.41125  0.10864  1.0000
  O   O5        1.0  0.52153  0.6974699999999999  0.85195  1.0000
  O   O6        1.0  0.49626999999999993  0.45231  0.02902  1.0000
  O   O7        1.0  0.26253  0.44394  0.56238  1.0000
  O   O8        1.0  0.40813999999999995  0.5977699999999999  0.89411  1.0000
  O   O9        1.0  0.32864  0.51843  0.93419  1.0000
  O   O10       1.0  0.19398999999999997  0.44977999999999996  0.56036  1.0000
  O   O11       1.0  0.94553  0.40622  0.11770000000000001  1.0000
  O   O12       1.0  0.49620999999999993  0.66289  0.93955  1.0000
  O   O13       1.0  0.26518999999999987  0.4115099999999999  0.85982  1.0000
  O   O14       1.0  0.12137999999999992  0.37697999999999987  0.94208  1.0000
  O   O15       1.0  0.17626999999999998  0.4787099999999999  0.85179  1.0000
  O   O16       1.0  0.16401999999999994  0.3771499999999999  0.86353  1.0000
  O   O17       1.0  0.18109  0.44369  0.06235  1.0000
  O   O18       1.0  0.25462  0.44782  0.06029000000000001  1.0000
  O   O19       1.0  0.26061  0.38777  0.95188  1.0000
  O   O20       1.0  0.16702000000000003  0.50404  0.93937  1.0000
  O   O21       1.0  0.53848  0.76443  0.946  1.0000
  O   O22       1.0  0.5978  0.52029  0.02547  1.0000
  O   O23       1.0  0.48357  0.76986  0.85399  1.0000
  O   O24       1.0  0.58904  0.04351  0.10857  1.0000
  O   O25       1.0  0.30246999999999996  0.82376  0.85173  1.0000
  O   O26       1.0  0.5477  0.04411  0.02909  1.0000
  O   O27       1.0  0.55632  0.81892  0.56235  1.0000
  O   O28       1.0  0.40233999999999986  0.8103699999999998  0.89397  1.0000
  O   O29       1.0  0.48176000000000013  0.80997  0.93426  1.0000
  O   O30       1.0  0.5521799999999999  0.7453799999999998  0.56029  1.0000
  O   O31       1.0  0.59377  0.53935  0.11772  1.0000
  O   O32       1.0  0.33714000000000005  0.83295  0.9392500000000001  1.0000
  O   O33       1.0  0.58832  0.85384  0.85982  1.0000
  O   O34       1.0  0.62352  0.74441  0.94176  1.0000
  O   O35       1.0  0.62307  0.78706  0.86353  1.0000
  O   O36       1.0  0.5560599999999999  0.7374699999999998  0.062380000000000005  1.0000
  O   O37       1.0  0.55022  0.80602  0.06036  1.0000
  O   O38       1.0  0.61236  0.87286  0.95179  1.0000
  O   O39       1.0  0.23565000000000005  0.77301  0.94593  1.0000
  O   O40       1.0  0.47979  0.07767  0.02547  1.0000
  O   O41       1.0  0.23006999999999989  0.7136099999999997  0.85399  1.0000
  O   O42       1.0  0.95617  0.54554  0.10855  1.0000
  O   O43       1.0  0.95585  0.50375  0.02907  1.0000
  O   O44       1.0  0.18186999999999995  0.73593  0.56242  1.0000
  O   O45       1.0  0.1895800000000001  0.5919  0.89402  1.0000
  O   O46       1.0  0.18978999999999993  0.6715  0.93418  1.0000
  O   O47       1.0  0.25426  0.80671  0.56019  1.0000
  O   O48       1.0  0.46072  0.05439999999999999  0.11768000000000002  1.0000
  O   O49       1.0  0.14605  0.73415  0.85988  1.0000
  O   O50       1.0  0.25579999999999997  0.87838  0.9416000000000001  1.0000
  O   O51       1.0  0.21280999999999994  0.8356999999999999  0.86337  1.0000
  O   O52       1.0  0.2640700000000001  0.81813  0.06242000000000001  1.0000
  O   O53       1.0  0.19328999999999993  0.74575  0.06019  1.0000
  O   O54       1.0  0.12716999999999995  0.73941  0.95183  1.0000
  O   O55       1.0  0.53742  0.7732  0.44602  1.0000
  O   O56       1.0  0.59779  0.07765999999999999  0.52547  1.0000
  O   O57       1.0  0.48355  0.71348  0.35396000000000005  1.0000
  O   O58       1.0  0.58875  0.54561  0.60864  1.0000
  O   O59       1.0  0.30253  0.47847  0.35195000000000004  1.0000
  O   O60       1.0  0.54769  0.50373  0.52902  1.0000
  O   O61       1.0  0.4022300000000001  0.59186  0.39411000000000007  1.0000
  O   O62       1.0  0.48158  0.67136  0.43419  1.0000
  O   O63       1.0  0.59378  0.05446999999999999  0.6177  1.0000
  O   O64       1.0  0.33710999999999997  0.50379  0.43955  1.0000
  O   O65       1.0  0.5885000000000002  0.73481  0.35982  1.0000
  O   O66       1.0  0.62302  0.87863  0.44208  1.0000
  O   O67       1.0  0.52129  0.82373  0.35179  1.0000
  O   O68       1.0  0.62285  0.83598  0.36353  1.0000
  O   O69       1.0  0.61223  0.7394  0.45188  1.0000
  O   O70       1.0  0.4959599999999999  0.8329799999999998  0.43937  1.0000
  O   O71       1.0  0.23557  0.46152  0.44600000000000006  1.0000
  O   O72       1.0  0.47972  0.4022  0.52547  1.0000
  O   O73       1.0  0.23013999999999996  0.51644  0.35399  1.0000
  O   O74       1.0  0.95649  0.41096  0.60857  1.0000
  O   O75       1.0  0.17625000000000005  0.69754  0.35173  1.0000
  O   O76       1.0  0.95588  0.4523  0.52909  1.0000
  O   O77       1.0  0.18964000000000006  0.59766  0.39397000000000004  1.0000
  O   O78       1.0  0.19004  0.51825  0.43426000000000003  1.0000
  O   O79       1.0  0.46065  0.40624  0.61772  1.0000
  O   O80       1.0  0.16705999999999988  0.6628599999999998  0.4392499999999999  1.0000
  O   O81       1.0  0.14615999999999993  0.4116799999999999  0.35982  1.0000
  O   O82       1.0  0.25559  0.37649  0.44176000000000004  1.0000
  O   O83       1.0  0.21293999999999996  0.37692999999999993  0.36353  1.0000
  O   O84       1.0  0.12713999999999998  0.38764  0.45179  1.0000
  O   O85       1.0  0.22699000000000005  0.76435  0.44593  1.0000
  O   O86       1.0  0.92233  0.52021  0.52547  1.0000
  O   O87       1.0  0.28639  0.76993  0.35399  1.0000
  O   O88       1.0  0.45446  0.04383  0.60855  1.0000
  O   O89       1.0  0.49625  0.044149999999999995  0.52907  1.0000
  O   O90       1.0  0.40810000000000013  0.81042  0.39402000000000004  1.0000
  O   O91       1.0  0.32851  0.81021  0.43418000000000007  1.0000
  O   O92       1.0  0.94559  0.53929  0.61768  1.0000
  O   O93       1.0  0.26586  0.85395  0.3598799999999999  1.0000
  O   O94       1.0  0.12161999999999998  0.7442  0.4416  1.0000
  O   O95       1.0  0.1642999999999999  0.7871899999999997  0.36336999999999997  1.0000
  O   O96       1.0  0.26059  0.87284  0.45183  1.0000
  O   O97       1.0  0.8930000000000002  0.7955699999999999  0.27988  1.0000
  O   O98       1.0  0.9525  0.85019  0.18839  1.0000
  O   O99       1.0  0.18809999999999996  0.031049999999999994  0.18457  1.0000
  O   O100      1.0  0.9305299999999999  0.77893  0.89465  1.0000
  O   O101      1.0  0.07494999999999997  0.93068  0.2258  1.0000
  O   O102      1.0  0.99508  0.8522099999999999  0.26817  1.0000
  O   O103      1.0  0.86031  0.78158  0.8942400000000001  1.0000
  O   O104      1.0  0.16235999999999995  0.9951799999999998  0.2712  1.0000
  O   O105      1.0  0.9319499999999998  0.7451599999999999  0.19177  1.0000
  O   O106      1.0  0.78764  0.7104599999999999  0.27486  1.0000
  O   O107      1.0  0.8432899999999999  0.8121899999999999  0.18495  1.0000
  O   O108      1.0  0.8309  0.71024  0.19733  1.0000
  O   O109      1.0  0.8486799999999999  0.7789699999999999  0.39462  1.0000
  O   O110      1.0  0.92145  0.78139  0.39422  1.0000
  O   O111      1.0  0.92872  0.7223199999999999  0.28408  1.0000
  O   O112      1.0  0.83282  0.83736  0.27174  1.0000
  O   O113      1.0  0.20441  0.097  0.27983  1.0000
  O   O114      1.0  0.14992  0.10222999999999999  0.18823  1.0000
  O   O115      1.0  0.96903  0.15693  0.18487  1.0000
  O   O116      1.0  0.22103  0.15132  0.89462  1.0000
  O   O117      1.0  0.06928  0.1439  0.22582999999999998  1.0000
  O   O118      1.0  0.14785  0.14236  0.26822  1.0000
  O   O119      1.0  0.21861  0.07855  0.8942199999999999  1.0000
  O   O120      1.0  0.0045900000000000055  0.16621  0.27152  1.0000
  O   O121      1.0  0.25505  0.18683  0.19176  1.0000
  O   O122      1.0  0.28947  0.07707  0.27478  1.0000
  O   O123      1.0  0.28978  0.12069  0.19733  1.0000
  O   O124      1.0  0.22107999999999997  0.06946  0.39465000000000006  1.0000
  O   O125      1.0  0.21842  0.13969  0.39424000000000003  1.0000
  O   O126      1.0  0.27784  0.2062  0.28412  1.0000
  O   O127      1.0  0.9026  0.10729  0.27986  1.0000
  O   O128      1.0  0.89775  0.04752  0.18847  1.0000
  O   O129      1.0  0.84843  0.06947  0.8946  1.0000
  O   O130      1.0  0.85644  0.92535  0.22737000000000002  1.0000
  O   O131      1.0  0.85758  0.00557  0.26867  1.0000
  O   O132      1.0  0.92127  0.13981  0.89423  1.0000
  O   O133      1.0  0.81312  0.06839  0.19177  1.0000
  O   O134      1.0  0.92323  0.21261  0.27477  1.0000
  O   O135      1.0  0.87972  0.16941  0.19724  1.0000
  O   O136      1.0  0.93053  0.15157  0.39460000000000006  1.0000
  O   O137      1.0  0.86019  0.07872  0.39423  1.0000
  O   O138      1.0  0.79363  0.07163  0.28415  1.0000
  O   O139      1.0  0.20443  0.107  0.77988  1.0000
  O   O140      1.0  0.14981  0.0475  0.6884  1.0000
  O   O141      1.0  0.96895  0.8119  0.6845699999999999  1.0000
  O   O142      1.0  0.06933000000000002  0.92506  0.7258  1.0000
  O   O143      1.0  0.14779  0.00492  0.76817  1.0000
  O   O144      1.0  0.004819999999999977  0.83765  0.7712  1.0000
  O   O145      1.0  0.25484  0.06804  0.69177  1.0000
  O   O146      1.0  0.28954  0.21236  0.77486  1.0000
  O   O147      1.0  0.18782  0.15671  0.68495  1.0000
  O   O148      1.0  0.28976  0.1691  0.69734  1.0000
  O   O149      1.0  0.27768  0.07128  0.78408  1.0000
  O   O150      1.0  0.16264  0.16718  0.77174  1.0000
  O   O151      1.0  0.903  0.79559  0.77983  1.0000
  O   O152      1.0  0.8977700000000002  0.85008  0.6882299999999999  1.0000
  O   O153      1.0  0.84307  0.03097  0.68487  1.0000
  O   O154      1.0  0.8560999999999999  0.9307299999999997  0.72583  1.0000
  O   O155      1.0  0.85764  0.85215  0.76822  1.0000
  O   O156      1.0  0.83378  0.99542  0.7715199999999999  1.0000
  O   O157      1.0  0.81317  0.74495  0.6917599999999999  1.0000
  O   O158      1.0  0.92293  0.71053  0.77478  1.0000
  O   O159      1.0  0.8793099999999999  0.7102199999999997  0.6973299999999999  1.0000
  O   O160      1.0  0.7938  0.72216  0.7841200000000002  1.0000
  O   O161      1.0  0.89271  0.0974  0.77986  1.0000
  O   O162      1.0  0.95248  0.10226  0.68847  1.0000
  O   O163      1.0  0.07466  0.14357  0.72737  1.0000
  O   O164      1.0  0.99443  0.14242  0.76867  1.0000
  O   O165      1.0  0.93161  0.18687999999999994  0.69177  1.0000
  O   O166      1.0  0.78739  0.07676999999999999  0.7747699999999998  1.0000
  O   O167      1.0  0.8305900000000003  0.12028  0.69724  1.0000
  O   O168      1.0  0.92837  0.20637  0.7841499999999999  1.0000
  O   O169      1.0  0.55949  0.1291  0.61177  1.0000
  O   O170      1.0  0.6195000000000002  0.18328  0.51999  1.0000
  O   O171      1.0  0.85464  0.36408  0.51755  1.0000
  O   O172      1.0  0.59732  0.11215999999999997  0.22807  1.0000
  O   O173      1.0  0.74133  0.26437  0.55982  1.0000
  O   O174      1.0  0.66193  0.18449  0.59957  1.0000
  O   O175      1.0  0.52709  0.11488999999999999  0.22591999999999998  1.0000
  O   O176      1.0  0.82941  0.32939  0.60513  1.0000
  O   O177      1.0  0.50954  0.14546  0.51725  1.0000
  O   O178      1.0  0.5148000000000003  0.11242  0.72804  1.0000
  O   O179      1.0  0.5876199999999999  0.1148  0.7258899999999999  1.0000
  O   O180      1.0  0.49966  0.17076  0.60448  1.0000
  O   O181      1.0  0.87094  0.43083  0.61174  1.0000
  O   O182      1.0  0.81661  0.43626999999999994  0.52006  1.0000
  O   O183      1.0  0.63601  0.49088  0.51758  1.0000
  O   O184      1.0  0.88758  0.4852  0.22804000000000002  1.0000
  O   O185      1.0  0.73552  0.47696999999999995  0.55988  1.0000
  O   O186      1.0  0.8153500000000001  0.4775  0.59958  1.0000
  O   O187      1.0  0.8852  0.41238  0.22589  1.0000
  O   O188      1.0  0.67049  0.50004  0.60524  1.0000
  O   O189      1.0  0.88784  0.40268  0.72807  1.0000
  O   O190      1.0  0.8851099999999998  0.47292  0.72592  1.0000
  O   O191      1.0  0.56913  0.44043  0.61169  1.0000
  O   O192      1.0  0.5636  0.3805  0.51993  1.0000
  O   O193      1.0  0.51476  0.40275999999999995  0.22806  1.0000
  O   O194      1.0  0.52306  0.2587  0.55954  1.0000
  O   O195      1.0  0.52279  0.33804  0.59969  1.0000
  O   O196      1.0  0.58784  0.4729  0.22596  1.0000
  O   O197      1.0  0.59724  0.48524  0.72806  1.0000
  O   O198      1.0  0.5271  0.41216  0.72596  1.0000
  O   O199      1.0  0.8709  0.4405099999999999  0.11177  1.0000
  O   O200      1.0  0.81672  0.3805  0.01999  1.0000
  O   O201      1.0  0.63592  0.14536  0.01755  1.0000
  O   O202      1.0  0.73563  0.25867  0.059820000000000005  1.0000
  O   O203      1.0  0.8155100000000002  0.33807  0.09957  1.0000
  O   O204      1.0  0.67061  0.17059  0.10513000000000002  1.0000
  O   O205      1.0  0.85454  0.4904699999999999  0.01725  1.0000
  O   O206      1.0  0.82924  0.50034  0.10448  1.0000
  O   O207      1.0  0.56917  0.12906  0.11174  1.0000
  O   O208      1.0  0.56373  0.18339  0.02006  1.0000
  O   O209      1.0  0.50912  0.3639899999999999  0.01758  1.0000
  O   O210      1.0  0.52303  0.26448  0.05988  1.0000
  O   O211      1.0  0.5225  0.18464999999999995  0.09958  1.0000
  O   O212      1.0  0.49996  0.3295099999999999  0.10524  1.0000
  O   O213      1.0  0.55957  0.43087  0.11169  1.0000
  O   O214      1.0  0.6195  0.4364  0.01992  1.0000
  O   O215      1.0  0.7413  0.47694  0.05954  1.0000
  O   O216      1.0  0.66196  0.47721  0.09969  1.0000
