data_image0
_chemical_formula_structural       Pr16Co8H192C384N64O128
_chemical_formula_sum              "Pr16 Co8 H192 C384 N64 O128"
_cell_length_a       11.2367
_cell_length_b       32.9682
_cell_length_c       32.96820000000001
_cell_angle_alpha    88.3357
_cell_angle_beta     80.1879
_cell_angle_gamma    80.18770000000002

_space_group_name_H-M_alt    "P 1"
_space_group_IT_number       1

loop_
  _space_group_symop_operation_xyz
  'x, y, z'

loop_
  _atom_site_type_symbol
  _atom_site_label
  _atom_site_symmetry_multiplicity
  _atom_site_fract_x
  _atom_site_fract_y
  _atom_site_fract_z
  _atom_site_occupancy
  Pr  Pr1       1.0  0.8164600000000001  0.97138  0.17134  1.0000
  Pr  Pr2       1.0  0.31687  0.97408  0.17314  1.0000
  Pr  Pr3       1.0  0.4591800000000001  0.52862  0.32866  1.0000
  Pr  Pr4       1.0  0.9640900000000001  0.52592  0.32686  1.0000
  Pr  Pr5       1.0  0.9878  0.82866  0.47138  1.0000
  Pr  Pr6       1.0  0.49001999999999996  0.82685  0.47408  1.0000
  Pr  Pr7       1.0  0.7878400000000002  0.6713400000000003  0.028620000000000007  1.0000
  Pr  Pr8       1.0  0.2909399999999999  0.6731500000000002  0.02592  1.0000
  Pr  Pr9       1.0  0.18354  0.028620000000000007  0.82866  1.0000
  Pr  Pr10      1.0  0.68313  0.025920000000000006  0.82686  1.0000
  Pr  Pr11      1.0  0.54082  0.47138  0.6713400000000002  1.0000
  Pr  Pr12      1.0  0.03591000000000005  0.47408  0.67314  1.0000
  Pr  Pr13      1.0  0.01219999999999999  0.17134  0.52862  1.0000
  Pr  Pr14      1.0  0.50998  0.17315  0.52592  1.0000
  Pr  Pr15      1.0  0.2121600000000001  0.32866  0.97138  1.0000
  Pr  Pr16      1.0  0.70906  0.32685  0.97408  1.0000
  Co  Co1       1.0  0.71127  0.87107  0.96359  1.0000
  Co  Co2       1.0  0.04592999999999986  0.6289300000000002  0.53641  1.0000
  Co  Co3       1.0  0.6748600000000002  0.03641  0.37107  1.0000
  Co  Co4       1.0  0.58234  0.46359  0.12893  1.0000
  Co  Co5       1.0  0.28873  0.12893  0.03641  1.0000
  Co  Co6       1.0  0.9540700000000001  0.3710700000000001  0.46359  1.0000
  Co  Co7       1.0  0.32514000000000004  0.96359  0.62893  1.0000
  Co  Co8       1.0  0.41766  0.53641  0.87107  1.0000
  H   H1        1.0  0.9598000000000001  0.0165  0.0593  1.0000
  H   H2        1.0  0.9357000000000001  0.0639  0.0061  1.0000
  H   H3        1.0  0.0661000000000001  0.1137  0.9966999999999999  1.0000
  H   H4        1.0  0.4144  0.1389  0.1117  1.0000
  H   H5        1.0  0.3471  0.1482  0.18  1.0000
  H   H6        1.0  0.1651  0.1267  0.2097  1.0000
  H   H7        1.0  0.5553999999999999  0.8423  0.1327  1.0000
  H   H8        1.0  0.6635000000000001  0.7874  0.0936  1.0000
  H   H9        1.0  0.7592000000000002  0.7989  0.0267  1.0000
  H   H10       1.0  0.6359000000000002  0.9668  0.9418  1.0000
  H   H11       1.0  0.6526999999999998  0.0283  0.9723  1.0000
  H   H12       1.0  0.6973  0.026  0.038  1.0000
  H   H13       1.0  0.6669999999999999  0.12360000000000002  0.2198  1.0000
  H   H14       1.0  0.8246  0.1281  0.2557  1.0000
  H   H15       1.0  0.8425  0.0866  0.31300000000000006  1.0000
  H   H16       1.0  0.42379999999999984  0.9995000000000002  0.3961  1.0000
  H   H17       1.0  0.3188000000000001  0.9626  0.361  1.0000
  H   H18       1.0  0.3752000000000002  0.9555  0.2903  1.0000
  H   H19       1.0  0.10209999999999998  0.9565  0.3135  1.0000
  H   H20       1.0  0.015599999999999937  0.9254  0.3718  1.0000
  H   H21       1.0  0.9577000000000004  0.8655  0.3633  1.0000
  H   H22       1.0  0.26820000000000005  0.7597  0.2059  1.0000
  H   H23       1.0  0.2673000000000002  0.7855  0.1395  1.0000
  H   H24       1.0  0.12699999999999997  0.8452  0.134  1.0000
  H   H25       1.0  0.5355999999999999  0.4835  0.4407  1.0000
  H   H26       1.0  0.5057000000000001  0.4361  0.49389999999999995  1.0000
  H   H27       1.0  0.6765000000000001  0.3863  0.5033  1.0000
  H   H28       1.0  0.16500000000000006  0.3611  0.3883  1.0000
  H   H29       1.0  0.1753  0.3518  0.32  1.0000
  H   H30       1.0  0.0015000000000000182  0.3733  0.2903  1.0000
  H   H31       1.0  0.030399999999999976  0.6577  0.3673  1.0000
  H   H32       1.0  0.04450000000000001  0.7126  0.4064  1.0000
  H   H33       1.0  0.0848  0.7011  0.4733  1.0000
  H   H34       1.0  0.04449999999999997  0.5332  0.5582  1.0000
  H   H35       1.0  0.15329999999999996  0.4717  0.5277  1.0000
  H   H36       1.0  0.2612999999999999  0.474  0.462  1.0000
  H   H37       1.0  0.5104000000000002  0.3764  0.2802  1.0000
  H   H38       1.0  0.7084  0.3719  0.24430000000000004  1.0000
  H   H39       1.0  0.7421000000000001  0.4134  0.187  1.0000
  H   H40       1.0  0.3194  0.5005  0.1039  1.0000
  H   H41       1.0  0.14239999999999997  0.5374  0.139  1.0000
  H   H42       1.0  0.12099999999999991  0.5445  0.2097  1.0000
  H   H43       1.0  0.8721000000000002  0.5435  0.18650000000000005  1.0000
  H   H44       1.0  0.8128000000000001  0.5746  0.1282  1.0000
  H   H45       1.0  0.6865  0.6345  0.1367  1.0000
  H   H46       1.0  0.7338000000000002  0.7403  0.2941  1.0000
  H   H47       1.0  0.6923000000000001  0.7145  0.3605  1.0000
  H   H48       1.0  0.6062000000000001  0.6548  0.366  1.0000
  H   H49       1.0  0.019099999999999954  0.9407  0.5165  1.0000
  H   H50       1.0  0.9418  0.9939000000000001  0.5639  1.0000
  H   H51       1.0  0.0628  0.0033  0.6137  1.0000
  H   H52       1.0  0.5261  0.8883  0.6389  1.0000
  H   H53       1.0  0.5271  0.82  0.6482  1.0000
  H   H54       1.0  0.37479999999999986  0.7903  0.6267  1.0000
  H   H55       1.0  0.6881000000000002  0.8673  0.3423  1.0000
  H   H56       1.0  0.7571  0.9064  0.2874  1.0000
  H   H57       1.0  0.7859  0.9733  0.2989  1.0000
  H   H58       1.0  0.5777000000000002  0.0582  0.4668  1.0000
  H   H59       1.0  0.625  0.0277  0.5283000000000002  1.0000
  H   H60       1.0  0.7353000000000001  0.962  0.526  1.0000
  H   H61       1.0  0.8867999999999999  0.7802  0.6236  1.0000
  H   H62       1.0  0.08029999999999995  0.7443  0.6281  1.0000
  H   H63       1.0  0.15550000000000008  0.687  0.5866  1.0000
  H   H64       1.0  0.8199000000000001  0.6039  0.4995  1.0000
  H   H65       1.0  0.6798000000000002  0.639  0.4626  1.0000
  H   H66       1.0  0.6655  0.7097  0.4555  1.0000
  H   H67       1.0  0.4156000000000001  0.6865  0.4565  1.0000
  H   H68       1.0  0.38740000000000013  0.6282  0.4254  1.0000
  H   H69       1.0  0.32100000000000006  0.6367  0.3655  1.0000
  H   H70       1.0  0.4741000000000001  0.7941  0.2597000000000001  1.0000
  H   H71       1.0  0.4067999999999999  0.8605  0.2855  1.0000
  H   H72       1.0  0.26100000000000007  0.866  0.3452  1.0000
  H   H73       1.0  0.9762999999999998  0.5593  0.9835  1.0000
  H   H74       1.0  0.9996000000000002  0.5061  0.9361000000000003  1.0000
  H   H75       1.0  0.17980000000000007  0.4966999999999999  0.8863  1.0000
  H   H76       1.0  0.5532999999999999  0.6117  0.8611  1.0000
  H   H77       1.0  0.4953000000000002  0.68  0.8518  1.0000
  H   H78       1.0  0.2918  0.7097  0.8733  1.0000
  H   H79       1.0  0.3977  0.6327  0.1577  1.0000
  H   H80       1.0  0.4509  0.5936  0.2126  1.0000
  H   H81       1.0  0.5581  0.5267  0.2011  1.0000
  H   H82       1.0  0.6027000000000001  0.4418  0.0332  1.0000
  H   H83       1.0  0.6810000000000002  0.4723  0.9717  1.0000
  H   H84       1.0  0.7233  0.538  0.974  1.0000
  H   H85       1.0  0.7906  0.7198  0.8764  1.0000
  H   H86       1.0  0.9526999999999995  0.7557  0.8719  1.0000
  H   H87       1.0  0.9291000000000003  0.813  0.9134  1.0000
  H   H88       1.0  0.4233  0.8961  0.0005  1.0000
  H   H89       1.0  0.28139999999999993  0.861  0.0374  1.0000
  H   H90       1.0  0.33070000000000005  0.7903  0.0445  1.0000
  H   H91       1.0  0.05860000000000001  0.8135  0.04350000000000001  1.0000
  H   H92       1.0  0.941  0.8718  0.0746  1.0000
  H   H93       1.0  0.8232000000000003  0.8633  0.1345  1.0000
  H   H94       1.0  0.02790000000000004  0.7059  0.2403  1.0000
  H   H95       1.0  0.0528  0.6395  0.2145  1.0000
  H   H96       1.0  0.9722000000000001  0.634  0.1548  1.0000
  H   H97       1.0  0.04019999999999998  0.9835  0.9407  1.0000
  H   H98       1.0  0.06430000000000012  0.9361  0.9939  1.0000
  H   H99       1.0  0.9339000000000002  0.8863  0.0033  1.0000
  H   H100      1.0  0.5855999999999999  0.8611  0.8883000000000002  1.0000
  H   H101      1.0  0.6529000000000003  0.8518  0.82  1.0000
  H   H102      1.0  0.8349  0.8733  0.7903  1.0000
  H   H103      1.0  0.4446  0.1577  0.8673  1.0000
  H   H104      1.0  0.3365000000000001  0.2126  0.9064  1.0000
  H   H105      1.0  0.24079999999999993  0.2011  0.9733  1.0000
  H   H106      1.0  0.36410000000000003  0.0332  0.0582  1.0000
  H   H107      1.0  0.34730000000000005  0.9717  0.0277  1.0000
  H   H108      1.0  0.3027000000000001  0.974  0.962  1.0000
  H   H109      1.0  0.3330000000000002  0.8764  0.7802  1.0000
  H   H110      1.0  0.17540000000000014  0.8719  0.7443  1.0000
  H   H111      1.0  0.15749999999999995  0.9134  0.687  1.0000
  H   H112      1.0  0.5762  0.0005  0.6039  1.0000
  H   H113      1.0  0.6812  0.0374  0.639  1.0000
  H   H114      1.0  0.6248  0.0445  0.7097  1.0000
  H   H115      1.0  0.8978999999999999  0.0435  0.6865  1.0000
  H   H116      1.0  0.9844000000000003  0.0746  0.6282  1.0000
  H   H117      1.0  0.04230000000000002  0.1345  0.6367  1.0000
  H   H118      1.0  0.7318000000000001  0.2403  0.7941  1.0000
  H   H119      1.0  0.7326999999999999  0.2145  0.8605000000000003  1.0000
  H   H120      1.0  0.873  0.1548  0.8660000000000002  1.0000
  H   H121      1.0  0.4644000000000001  0.5165  0.5593  1.0000
  H   H122      1.0  0.4942999999999999  0.5639  0.5061000000000002  1.0000
  H   H123      1.0  0.3235  0.6137  0.4966999999999999  1.0000
  H   H124      1.0  0.8349999999999997  0.6389  0.6117  1.0000
  H   H125      1.0  0.8247  0.6482  0.68  1.0000
  H   H126      1.0  0.9985  0.6267  0.7097  1.0000
  H   H127      1.0  0.9696  0.3423  0.6327000000000003  1.0000
  H   H128      1.0  0.9555  0.2874  0.5936  1.0000
  H   H129      1.0  0.9152000000000002  0.2989  0.5267  1.0000
  H   H130      1.0  0.9555  0.4668  0.4418  1.0000
  H   H131      1.0  0.8467000000000002  0.5283  0.4723  1.0000
  H   H132      1.0  0.7387  0.526  0.538  1.0000
  H   H133      1.0  0.4896  0.6236  0.7198  1.0000
  H   H134      1.0  0.29159999999999997  0.6281  0.7557  1.0000
  H   H135      1.0  0.2579  0.5866  0.813  1.0000
  H   H136      1.0  0.6805999999999999  0.49949999999999994  0.8961000000000002  1.0000
  H   H137      1.0  0.8576000000000003  0.4626  0.861  1.0000
  H   H138      1.0  0.8789999999999999  0.4555  0.7903  1.0000
  H   H139      1.0  0.1279000000000001  0.4565  0.8135  1.0000
  H   H140      1.0  0.18720000000000026  0.4254  0.8718  1.0000
  H   H141      1.0  0.31349999999999995  0.3655  0.8633  1.0000
  H   H142      1.0  0.26620000000000005  0.2597  0.7059  1.0000
  H   H143      1.0  0.3076999999999999  0.2855  0.6395  1.0000
  H   H144      1.0  0.39380000000000004  0.3452  0.634  1.0000
  H   H145      1.0  0.9809  0.0593  0.4835  1.0000
  H   H146      1.0  0.058199999999999995  0.0061  0.4361  1.0000
  H   H147      1.0  0.9372000000000001  0.9967  0.3863  1.0000
  H   H148      1.0  0.4739000000000001  0.1117  0.3611  1.0000
  H   H149      1.0  0.4729  0.18  0.3518  1.0000
  H   H150      1.0  0.6252  0.2097  0.3733  1.0000
  H   H151      1.0  0.3119  0.1327  0.6577  1.0000
  H   H152      1.0  0.2429  0.0936  0.7126  1.0000
  H   H153      1.0  0.2141  0.0267  0.7011  1.0000
  H   H154      1.0  0.42230000000000006  0.9418  0.5332  1.0000
  H   H155      1.0  0.3750000000000001  0.9723  0.4717  1.0000
  H   H156      1.0  0.26470000000000005  0.038  0.474  1.0000
  H   H157      1.0  0.11320000000000004  0.2198  0.3764  1.0000
  H   H158      1.0  0.9196999999999995  0.2557  0.3719000000000001  1.0000
  H   H159      1.0  0.8445000000000001  0.313  0.4134  1.0000
  H   H160      1.0  0.18009999999999982  0.3961  0.5005000000000002  1.0000
  H   H161      1.0  0.3202  0.361  0.5374  1.0000
  H   H162      1.0  0.33450000000000013  0.2903  0.5445  1.0000
  H   H163      1.0  0.5844  0.3135  0.5435  1.0000
  H   H164      1.0  0.6126000000000003  0.3718  0.5746  1.0000
  H   H165      1.0  0.6790000000000002  0.3633  0.6345  1.0000
  H   H166      1.0  0.5259  0.2059  0.7403  1.0000
  H   H167      1.0  0.5932  0.1395  0.7145  1.0000
  H   H168      1.0  0.7390000000000002  0.134  0.6548  1.0000
  H   H169      1.0  0.02370000000000002  0.4407  0.0165  1.0000
  H   H170      1.0  0.0004000000000000075  0.4939  0.0639  1.0000
  H   H171      1.0  0.8202000000000003  0.5033  0.1137  1.0000
  H   H172      1.0  0.4467  0.3883  0.1389  1.0000
  H   H173      1.0  0.5047  0.32  0.1482  1.0000
  H   H174      1.0  0.7082  0.2903  0.1267  1.0000
  H   H175      1.0  0.6023  0.3673  0.8423  1.0000
  H   H176      1.0  0.5491  0.4064  0.7874  1.0000
  H   H177      1.0  0.44190000000000007  0.4733  0.7989  1.0000
  H   H178      1.0  0.3973  0.5582  0.9668  1.0000
  H   H179      1.0  0.319  0.5277  0.0283  1.0000
  H   H180      1.0  0.27670000000000006  0.462  0.026  1.0000
  H   H181      1.0  0.20940000000000003  0.2802  0.12360000000000002  1.0000
  H   H182      1.0  0.04729999999999999  0.2443  0.1281  1.0000
  H   H183      1.0  0.07090000000000002  0.187  0.0866  1.0000
  H   H184      1.0  0.5766999999999999  0.1039  0.9995000000000002  1.0000
  H   H185      1.0  0.7186  0.139  0.9626000000000001  1.0000
  H   H186      1.0  0.6692999999999999  0.2097  0.9555  1.0000
  H   H187      1.0  0.9414  0.1865  0.9565  1.0000
  H   H188      1.0  0.05900000000000002  0.1282  0.9254  1.0000
  H   H189      1.0  0.17680000000000004  0.1367  0.8655  1.0000
  H   H190      1.0  0.9721000000000006  0.2941  0.7597  1.0000
  H   H191      1.0  0.9471999999999998  0.3605  0.7855  1.0000
  H   H192      1.0  0.027799999999999946  0.366  0.8452  1.0000
  C   C1        1.0  0.06920000000000003  0.0179  0.1231  1.0000
  C   C2        1.0  0.0545  0.0495  0.0891  1.0000
  C   C3        1.0  0.9945  0.0403  0.0579  1.0000
  C   C4        1.0  0.9867000000000002  0.0667  0.0249  1.0000
  C   C5        1.0  0.05930000000000001  0.0984  0.0208  1.0000
  C   C6        1.0  0.11110000000000002  0.0834  0.0848  1.0000
  C   C7        1.0  0.1745  0.1005  0.11630000000000003  1.0000
  C   C8        1.0  0.3414  0.1304  0.12360000000000002  1.0000
  C   C9        1.0  0.3025  0.1359  0.1639  1.0000
  C   C10       1.0  0.1931  0.123  0.1816  1.0000
  C   C11       1.0  0.1264  0.1049  0.1583  1.0000
  C   C12       1.0  0.010400000000000017  0.0911  0.1777  1.0000
  C   C13       1.0  0.5013  0.9213  0.1135  1.0000
  C   C14       1.0  0.5882  0.8861  0.0897  1.0000
  C   C15       1.0  0.5946000000000001  0.8465  0.1061  1.0000
  C   C16       1.0  0.6584  0.814  0.0832  1.0000
  C   C17       1.0  0.7173  0.8212  0.0428  1.0000
  C   C18       1.0  0.6565  0.8916  0.0502  1.0000
  C   C19       1.0  0.665  0.9314  0.03  1.0000
  C   C20       1.0  0.6455999999999997  0.9667  0.9693000000000003  1.0000
  C   C21       1.0  0.6593000000000001  0.0038  0.9869999999999999  1.0000
  C   C22       1.0  0.6827  0.0022  0.0264  1.0000
  C   C23       1.0  0.6851  0.966  0.05  1.0000
  C   C24       1.0  0.7294  0.9635  0.0905  1.0000
  C   C25       1.0  0.4920000000000001  0.0793  0.2307  1.0000
  C   C26       1.0  0.5948000000000001  0.0801  0.2549  1.0000
  C   C27       1.0  0.676  0.107  0.2428  1.0000
  C   C28       1.0  0.7704  0.1099  0.2639  1.0000
  C   C29       1.0  0.7809  0.0847  0.2979  1.0000
  C   C30       1.0  0.616  0.0555  0.2881  1.0000
  C   C31       1.0  0.5385000000000001  0.0244  0.3058000000000001  1.0000
  C   C32       1.0  0.43839999999999996  0.9998  0.3674  1.0000
  C   C33       1.0  0.37890000000000024  0.9764  0.3468  1.0000
  C   C34       1.0  0.4092999999999999  0.9733  0.3045  1.0000
  C   C35       1.0  0.4899  0.9966000000000002  0.2834  1.0000
  C   C36       1.0  0.5351  0.9889  0.2377  1.0000
  C   C37       1.0  0.1131  0.909  0.2738  1.0000
  C   C38       1.0  0.08370000000000004  0.9303  0.3121  1.0000
  C   C39       1.0  0.03019999999999999  0.913  0.346  1.0000
  C   C40       1.0  0.9996  0.8769  0.3401  1.0000
  C   C41       1.0  0.08169999999999995  0.87  0.2706  1.0000
  C   C42       1.0  0.11899999999999991  0.846  0.23260000000000006  1.0000
  C   C43       1.0  0.2288000000000001  0.7865  0.2027  1.0000
  C   C44       1.0  0.2219  0.7999  0.1625  1.0000
  C   C45       1.0  0.1432  0.8358  0.1596  1.0000
  C   C46       1.0  0.08370000000000011  0.8596  0.1966  1.0000
  C   C47       1.0  0.9907999999999999  0.8994  0.19180000000000005  1.0000
  C   C48       1.0  0.1876  0.929  0.2388  1.0000
  C   C49       1.0  0.7101999999999999  0.4821  0.3769000000000001  1.0000
  C   C50       1.0  0.6931000000000002  0.4505  0.4109  1.0000
  C   C51       1.0  0.5926999999999999  0.4597  0.4421  1.0000
  C   C52       1.0  0.5783  0.4333  0.4751  1.0000
  C   C53       1.0  0.6785000000000001  0.4016  0.4792  1.0000
  C   C54       1.0  0.7793000000000002  0.4166  0.4152  1.0000
  C   C55       1.0  0.8913000000000001  0.3995  0.3837  1.0000
  C   C56       1.0  0.09539999999999998  0.3696  0.3764  1.0000
  C   C57       1.0  0.1023  0.3641  0.3361  1.0000
  C   C58       1.0  0.9977000000000005  0.377  0.3184  1.0000
  C   C59       1.0  0.8895999999999998  0.3951  0.3417  1.0000
  C   C60       1.0  0.7792  0.4089  0.3223  1.0000
  C   C61       1.0  0.036100000000000056  0.5787  0.3865  1.0000
  C   C62       1.0  0.06399999999999993  0.6139  0.4103  1.0000
  C   C63       1.0  0.047200000000000054  0.6535  0.3939  1.0000
  C   C64       1.0  0.055599999999999976  0.686  0.4168  1.0000
  C   C65       1.0  0.08130000000000011  0.6788  0.4572  1.0000
  C   C66       1.0  0.09829999999999997  0.6084  0.4498  1.0000
  C   C67       1.0  0.12640000000000004  0.5686  0.47  1.0000
  C   C68       1.0  0.08160000000000002  0.5333  0.5307  1.0000
  C   C69       1.0  0.15010000000000004  0.4962  0.513  1.0000
  C   C70       1.0  0.21130000000000002  0.4978  0.47360000000000013  1.0000
  C   C71       1.0  0.20110000000000008  0.534  0.45  1.0000
  C   C72       1.0  0.28340000000000004  0.5365  0.4095  1.0000
  C   C73       1.0  0.302  0.4207  0.2693  1.0000
  C   C74       1.0  0.4298  0.4199  0.24510000000000007  1.0000
  C   C75       1.0  0.5258  0.393  0.2572  1.0000
  C   C76       1.0  0.6442  0.3901  0.2361  1.0000
  C   C77       1.0  0.6635000000000001  0.4153  0.2021  1.0000
  C   C78       1.0  0.4596000000000003  0.4445  0.2119  1.0000
  C   C79       1.0  0.3687  0.4756  0.1942  1.0000
  C   C80       1.0  0.3055999999999999  0.5002  0.1326  1.0000
  C   C81       1.0  0.20210000000000003  0.5236  0.1532  1.0000
  C   C82       1.0  0.18710000000000002  0.5267  0.1955  1.0000
  C   C83       1.0  0.2699  0.5034  0.2166  1.0000
  C   C84       1.0  0.2617  0.5111  0.2623  1.0000
  C   C85       1.0  0.7959  0.591  0.2262  1.0000
  C   C86       1.0  0.8261000000000002  0.5697  0.18790000000000007  1.0000
  C   C87       1.0  0.7892000000000001  0.587  0.15400000000000003  1.0000
  C   C88       1.0  0.7166000000000001  0.6231  0.1599  1.0000
  C   C89       1.0  0.7222999999999999  0.63  0.2294  1.0000
  C   C90       1.0  0.6976000000000002  0.654  0.2674  1.0000
  C   C91       1.0  0.718  0.7135  0.2973  1.0000
  C   C92       1.0  0.6842999999999999  0.7001  0.33750000000000013  1.0000
  C   C93       1.0  0.6386  0.6642  0.3404  1.0000
  C   C94       1.0  0.6399000000000002  0.6404  0.3034  1.0000
  C   C95       1.0  0.5820000000000001  0.6006  0.3082  1.0000
  C   C96       1.0  0.8554000000000003  0.571  0.2612  1.0000
  C   C97       1.0  0.1923  0.8769  0.5179  1.0000
  C   C98       1.0  0.14360000000000003  0.9109  0.5495  1.0000
  C   C99       1.0  0.05240000000000007  0.9421  0.5403  1.0000
  C   C100      1.0  0.01160000000000002  0.9751  0.5667  1.0000
  C   C101      1.0  0.08010000000000009  0.9792  0.5984  1.0000
  C   C102      1.0  0.1959000000000001  0.9152  0.5834  1.0000
  C   C103      1.0  0.2907999999999999  0.8837  0.6005000000000003  1.0000
  C   C104      1.0  0.465  0.8764  0.6304  1.0000
  C   C105      1.0  0.46640000000000004  0.8361  0.6359  1.0000
  C   C106      1.0  0.37470000000000014  0.8184  0.623  1.0000
  C   C107      1.0  0.2847  0.8417  0.6049000000000001  1.0000
  C   C108      1.0  0.18809999999999996  0.8223  0.5911  1.0000
  C   C109      1.0  0.6148000000000002  0.8865  0.4213  1.0000
  C   C110      1.0  0.6779  0.9103  0.3861  1.0000
  C   C111      1.0  0.7007  0.8939  0.3465  1.0000
  C   C112      1.0  0.7416  0.9168  0.314  1.0000
  C   C113      1.0  0.7601  0.9572  0.3212  1.0000
  C   C114      1.0  0.7066999999999999  0.9498  0.3916  1.0000
  C   C115      1.0  0.6950000000000001  0.97  0.4314  1.0000
  C   C116      1.0  0.6149  0.0307  0.4667  1.0000
  C   C117      1.0  0.6462999999999999  0.013  0.5038  1.0000
  C   C118      1.0  0.7091000000000001  0.9736  0.5022  1.0000
  C   C119      1.0  0.7351000000000002  0.95  0.466  1.0000
  C   C120      1.0  0.8199000000000002  0.9095  0.4635  1.0000
  C   C121      1.0  0.7227  0.7693  0.5793  1.0000
  C   C122      1.0  0.8497000000000002  0.7451  0.5801  1.0000
  C   C123      1.0  0.9188  0.7572  0.607  1.0000
  C   C124      1.0  0.03429999999999992  0.7361  0.6099  1.0000
  C   C125      1.0  0.07880000000000009  0.7021  0.5847  1.0000
  C   C126      1.0  0.9041  0.7119  0.5555  1.0000
  C   C127      1.0  0.8443  0.6942  0.5244  1.0000
  C   C128      1.0  0.8058  0.6326  0.4998  1.0000
  C   C129      1.0  0.7257000000000001  0.6532  0.4764  1.0000
  C   C130      1.0  0.7138000000000001  0.6955  0.4733  1.0000
  C   C131      1.0  0.7733  0.7166  0.49660000000000004  1.0000
  C   C132      1.0  0.7728  0.7623  0.4889  1.0000
  C   C133      1.0  0.3869  0.7262  0.409  1.0000
  C   C134      1.0  0.39579999999999993  0.6879  0.4303  1.0000
  C   C135      1.0  0.3762000000000001  0.654  0.4130000000000001  1.0000
  C   C136      1.0  0.33969999999999995  0.6599  0.3769000000000001  1.0000
  C   C137      1.0  0.3523  0.7294  0.37  1.0000
  C   C138      1.0  0.3516000000000001  0.7674  0.346  1.0000
  C   C139      1.0  0.43150000000000005  0.7973  0.2865  1.0000
  C   C140      1.0  0.3844  0.8375  0.2999  1.0000
  C   C141      1.0  0.30279999999999996  0.8404  0.3358000000000001  1.0000
  C   C142      1.0  0.2803  0.8034  0.3596  1.0000
  C   C143      1.0  0.18259999999999996  0.8082  0.3994  1.0000
  C   C144      1.0  0.4264  0.7612  0.429  1.0000
  C   C145      1.0  0.08710000000000004  0.6231  0.9821  1.0000
  C   C146      1.0  0.10399999999999993  0.5891  0.9505000000000002  1.0000
  C   C147      1.0  0.03479999999999994  0.5579  0.9597  1.0000
  C   C148      1.0  0.05340000000000003  0.5249  0.9333  1.0000
  C   C149      1.0  0.15769999999999995  0.5208  0.9016000000000002  1.0000
  C   C150      1.0  0.1945  0.5848  0.9166  1.0000
  C   C151      1.0  0.275  0.6163  0.8995  1.0000
  C   C152      1.0  0.47179999999999994  0.6236  0.8696  1.0000
  C   C153      1.0  0.4384000000000001  0.6639  0.8641  1.0000
  C   C154      1.0  0.31609999999999994  0.6816  0.877  1.0000
  C   C155      1.0  0.23130000000000006  0.6583  0.8951  1.0000
  C   C156      1.0  0.10149999999999991  0.6777  0.9089  1.0000
  C   C157      1.0  0.42260000000000003  0.6135  0.0787  1.0000
  C   C158      1.0  0.4743  0.5897  0.1139  1.0000
  C   C159      1.0  0.4411  0.6061  0.1535  1.0000
  C   C160      1.0  0.4724000000000002  0.5832  0.186  1.0000
  C   C161      1.0  0.5385000000000001  0.5428  0.1788  1.0000
  C   C162      1.0  0.5481  0.5502  0.10840000000000002  1.0000
  C   C163      1.0  0.5964  0.53  0.0686  1.0000
  C   C164      1.0  0.6123000000000001  0.4693  0.0333  1.0000
  C   C165      1.0  0.6631  0.487  0.9962000000000001  1.0000
  C   C166      1.0  0.6848999999999998  0.5264  0.9978  1.0000
  C   C167      1.0  0.6511  0.55  0.034  1.0000
  C   C168      1.0  0.6929  0.5905  0.0365  1.0000
  C   C169      1.0  0.5712999999999999  0.7307  0.9207  1.0000
  C   C170      1.0  0.6749000000000002  0.7549  0.9199  1.0000
  C   C171      1.0  0.783  0.7428  0.893  1.0000
  C   C172      1.0  0.8802999999999999  0.7639  0.8901  1.0000
  C   C173      1.0  0.8655999999999999  0.7979  0.9153  1.0000
  C   C174      1.0  0.6715000000000002  0.7881  0.9445  1.0000
  C   C175      1.0  0.5629  0.8058  0.9756  1.0000
  C   C176      1.0  0.43820000000000003  0.8674  0.0002  1.0000
  C   C177      1.0  0.3553  0.8468  0.0236  1.0000
  C   C178      1.0  0.3825999999999999  0.8045  0.0267  1.0000
  C   C179      1.0  0.48650000000000015  0.7834  0.0034000000000000002  1.0000
  C   C180      1.0  0.5240000000000001  0.7377  0.0111  1.0000
  C   C181      1.0  0.022099999999999988  0.7738  0.091  1.0000
  C   C182      1.0  0.013999999999999985  0.8121  0.0697  1.0000
  C   C183      1.0  0.9432  0.846  0.08700000000000002  1.0000
  C   C184      1.0  0.8765000000000001  0.8401  0.1231  1.0000
  C   C185      1.0  0.9517000000000001  0.7706  0.13  1.0000
  C   C186      1.0  0.9650000000000002  0.7326  0.15400000000000003  1.0000
  C   C187      1.0  0.01530000000000002  0.7027  0.2135  1.0000
  C   C188      1.0  0.021799999999999955  0.6625  0.2001  1.0000
  C   C189      1.0  0.979  0.6596  0.1642  1.0000
  C   C190      1.0  0.9433  0.6966  0.14040000000000005  1.0000
  C   C191      1.0  0.8902000000000001  0.6918  0.1006  1.0000
  C   C192      1.0  0.11660000000000002  0.7388  0.071  1.0000
  C   C193      1.0  0.9308  0.9821  0.8769  1.0000
  C   C194      1.0  0.9455000000000001  0.9505  0.9109  1.0000
  C   C195      1.0  0.005500000000000014  0.9597  0.9421  1.0000
  C   C196      1.0  0.01330000000000014  0.9333  0.9751  1.0000
  C   C197      1.0  0.9407000000000001  0.9016  0.9792  1.0000
  C   C198      1.0  0.8888999999999999  0.9166  0.9152  1.0000
  C   C199      1.0  0.8255000000000001  0.8995  0.8837  1.0000
  C   C200      1.0  0.6586000000000005  0.8696  0.8764  1.0000
  C   C201      1.0  0.6975  0.8641  0.8361000000000002  1.0000
  C   C202      1.0  0.8069000000000004  0.877  0.8184  1.0000
  C   C203      1.0  0.8736  0.8951  0.8417  1.0000
  C   C204      1.0  0.9896000000000003  0.9089  0.8223  1.0000
  C   C205      1.0  0.4987000000000001  0.0787  0.8865  1.0000
  C   C206      1.0  0.4118000000000001  0.1139  0.9103  1.0000
  C   C207      1.0  0.4054  0.1535  0.8939  1.0000
  C   C208      1.0  0.3416  0.186  0.9168  1.0000
  C   C209      1.0  0.2827  0.1788  0.9572000000000003  1.0000
  C   C210      1.0  0.3435  0.1084  0.9498  1.0000
  C   C211      1.0  0.3350000000000003  0.0686  0.97  1.0000
  C   C212      1.0  0.35440000000000005  0.0333  0.0307  1.0000
  C   C213      1.0  0.34070000000000006  0.9962  0.013  1.0000
  C   C214      1.0  0.31729999999999997  0.9978  0.9736  1.0000
  C   C215      1.0  0.31490000000000007  0.034  0.95  1.0000
  C   C216      1.0  0.2706  0.0365  0.9095  1.0000
  C   C217      1.0  0.508  0.9207  0.7693000000000001  1.0000
  C   C218      1.0  0.40520000000000017  0.9199  0.7451  1.0000
  C   C219      1.0  0.32400000000000007  0.893  0.7572000000000002  1.0000
  C   C220      1.0  0.22959999999999994  0.8901  0.7361000000000002  1.0000
  C   C221      1.0  0.2191  0.9153  0.7021  1.0000
  C   C222      1.0  0.3839999999999999  0.9445  0.7119  1.0000
  C   C223      1.0  0.4614999999999998  0.9756  0.6942  1.0000
  C   C224      1.0  0.5616  0.0002  0.6326  1.0000
  C   C225      1.0  0.6211  0.0236  0.6532  1.0000
  C   C226      1.0  0.5907000000000002  0.0267  0.6955  1.0000
  C   C227      1.0  0.5101  0.0034  0.7166  1.0000
  C   C228      1.0  0.46490000000000004  0.0111  0.7623  1.0000
  C   C229      1.0  0.8868999999999999  0.091  0.7262  1.0000
  C   C230      1.0  0.9163  0.0697  0.6879  1.0000
  C   C231      1.0  0.9698  0.087  0.654  1.0000
  C   C232      1.0  0.0004000000000000075  0.1231  0.6599  1.0000
  C   C233      1.0  0.9183000000000001  0.13  0.7294000000000003  1.0000
  C   C234      1.0  0.881  0.154  0.7674  1.0000
  C   C235      1.0  0.7711999999999999  0.2135  0.7973  1.0000
  C   C236      1.0  0.7781  0.2001  0.8375  1.0000
  C   C237      1.0  0.8568  0.1642  0.8404  1.0000
  C   C238      1.0  0.9163  0.1404  0.8034  1.0000
  C   C239      1.0  0.009199999999999955  0.1006  0.8082000000000001  1.0000
  C   C240      1.0  0.8124  0.071  0.7612  1.0000
  C   C241      1.0  0.28980000000000006  0.5179  0.6231  1.0000
  C   C242      1.0  0.3069  0.5495  0.5891  1.0000
  C   C243      1.0  0.40729999999999983  0.5403  0.5579  1.0000
  C   C244      1.0  0.4217  0.5667  0.5249  1.0000
  C   C245      1.0  0.32149999999999995  0.5984  0.5208  1.0000
  C   C246      1.0  0.2206999999999999  0.5834  0.5848  1.0000
  C   C247      1.0  0.1087  0.6005  0.6163  1.0000
  C   C248      1.0  0.9046000000000001  0.6304  0.6236  1.0000
  C   C249      1.0  0.8977  0.6359  0.6639  1.0000
  C   C250      1.0  0.0022999999999999145  0.623  0.6816000000000002  1.0000
  C   C251      1.0  0.11040000000000001  0.6049  0.6583000000000002  1.0000
  C   C252      1.0  0.22079999999999997  0.5911  0.6777  1.0000
  C   C253      1.0  0.9639000000000001  0.4213  0.6135  1.0000
  C   C254      1.0  0.9360000000000003  0.3861  0.5897  1.0000
  C   C255      1.0  0.9528000000000001  0.3465  0.6061000000000002  1.0000
  C   C256      1.0  0.9444  0.314  0.5832  1.0000
  C   C257      1.0  0.9187  0.3212  0.5428  1.0000
  C   C258      1.0  0.9017000000000002  0.3916  0.5502  1.0000
  C   C259      1.0  0.8736  0.4314  0.53  1.0000
  C   C260      1.0  0.9184000000000001  0.4667  0.4693  1.0000
  C   C261      1.0  0.8499  0.5038  0.487  1.0000
  C   C262      1.0  0.7886999999999998  0.5022  0.5264  1.0000
  C   C263      1.0  0.7989000000000002  0.466  0.55  1.0000
  C   C264      1.0  0.7166000000000001  0.4635  0.5905000000000002  1.0000
  C   C265      1.0  0.698  0.5793  0.7307  1.0000
  C   C266      1.0  0.5702000000000002  0.5801  0.7549000000000002  1.0000
  C   C267      1.0  0.4741999999999999  0.607  0.7428  1.0000
  C   C268      1.0  0.35579999999999995  0.6099  0.7639  1.0000
  C   C269      1.0  0.3365000000000001  0.5847  0.7979  1.0000
  C   C270      1.0  0.5404  0.5555  0.7881  1.0000
  C   C271      1.0  0.6313000000000001  0.5244  0.8058  1.0000
  C   C272      1.0  0.6944  0.4998  0.8674  1.0000
  C   C273      1.0  0.7979  0.4764  0.8468  1.0000
  C   C274      1.0  0.8128999999999998  0.4733  0.8045  1.0000
  C   C275      1.0  0.7301  0.49659999999999993  0.7834  1.0000
  C   C276      1.0  0.7383000000000004  0.4889  0.7377  1.0000
  C   C277      1.0  0.20409999999999995  0.409  0.7738000000000003  1.0000
  C   C278      1.0  0.17389999999999997  0.4303  0.8121  1.0000
  C   C279      1.0  0.2108000000000001  0.413  0.8460000000000002  1.0000
  C   C280      1.0  0.28339999999999993  0.3769  0.8401  1.0000
  C   C281      1.0  0.27770000000000006  0.37  0.7706  1.0000
  C   C282      1.0  0.3024  0.346  0.7326  1.0000
  C   C283      1.0  0.28199999999999986  0.2865  0.7027000000000002  1.0000
  C   C284      1.0  0.3157  0.2999  0.6625  1.0000
  C   C285      1.0  0.3614  0.3358  0.6596  1.0000
  C   C286      1.0  0.36010000000000025  0.3596  0.6966  1.0000
  C   C287      1.0  0.4180000000000001  0.3994  0.6918  1.0000
  C   C288      1.0  0.14460000000000003  0.429  0.7388  1.0000
  C   C289      1.0  0.8077000000000001  0.1231  0.4821  1.0000
  C   C290      1.0  0.8564000000000007  0.0891  0.4505  1.0000
  C   C291      1.0  0.9476000000000002  0.0579  0.4597000000000001  1.0000
  C   C292      1.0  0.9884  0.0249  0.4333  1.0000
  C   C293      1.0  0.9199000000000003  0.0208  0.4016  1.0000
  C   C294      1.0  0.8041000000000001  0.0848  0.4166  1.0000
  C   C295      1.0  0.7092000000000003  0.1163  0.3995  1.0000
  C   C296      1.0  0.535  0.12360000000000002  0.3696  1.0000
  C   C297      1.0  0.5336000000000001  0.1639  0.36410000000000003  1.0000
  C   C298      1.0  0.6253  0.1816  0.377  1.0000
  C   C299      1.0  0.7153000000000003  0.1583  0.3951  1.0000
  C   C300      1.0  0.8119  0.1777  0.4089  1.0000
  C   C301      1.0  0.3851999999999999  0.1135  0.5787  1.0000
  C   C302      1.0  0.32210000000000005  0.0897  0.6139  1.0000
  C   C303      1.0  0.2993  0.1061  0.6535  1.0000
  C   C304      1.0  0.2584000000000001  0.0832  0.6860000000000002  1.0000
  C   C305      1.0  0.2399  0.0428  0.6788  1.0000
  C   C306      1.0  0.29329999999999995  0.0502  0.6084  1.0000
  C   C307      1.0  0.305  0.03  0.5686  1.0000
  C   C308      1.0  0.3851000000000001  0.9693  0.5333  1.0000
  C   C309      1.0  0.3537000000000001  0.9869999999999999  0.4961999999999999  1.0000
  C   C310      1.0  0.29089999999999994  0.0264  0.4978  1.0000
  C   C311      1.0  0.26489999999999997  0.05  0.534  1.0000
  C   C312      1.0  0.1801  0.0905  0.5365  1.0000
  C   C313      1.0  0.27730000000000005  0.2307  0.4207  1.0000
  C   C314      1.0  0.15029999999999996  0.2549  0.4199  1.0000
  C   C315      1.0  0.08119999999999995  0.2428  0.3930000000000001  1.0000
  C   C316      1.0  0.9657000000000001  0.2639  0.3901  1.0000
  C   C317      1.0  0.9212  0.2979  0.4153  1.0000
  C   C318      1.0  0.09590000000000007  0.2881  0.4445  1.0000
  C   C319      1.0  0.1557  0.3058  0.4756  1.0000
  C   C320      1.0  0.19419999999999998  0.3674  0.5002  1.0000
  C   C321      1.0  0.2743  0.3468  0.5236  1.0000
  C   C322      1.0  0.2862000000000001  0.3045  0.5267  1.0000
  C   C323      1.0  0.22669999999999993  0.2834  0.5034  1.0000
  C   C324      1.0  0.22719999999999999  0.2377  0.5111  1.0000
  C   C325      1.0  0.6131  0.2738  0.591  1.0000
  C   C326      1.0  0.6042000000000001  0.3121  0.5697  1.0000
  C   C327      1.0  0.6238000000000002  0.346  0.587  1.0000
  C   C328      1.0  0.6602999999999998  0.3401  0.6231  1.0000
  C   C329      1.0  0.6477  0.2706  0.63  1.0000
  C   C330      1.0  0.6484  0.2326  0.654  1.0000
  C   C331      1.0  0.5685  0.2027  0.7135  1.0000
  C   C332      1.0  0.6156000000000001  0.1625  0.7001  1.0000
  C   C333      1.0  0.6972  0.1596  0.6642  1.0000
  C   C334      1.0  0.7197  0.1966  0.6404  1.0000
  C   C335      1.0  0.8174000000000001  0.1918  0.6006  1.0000
  C   C336      1.0  0.5736  0.2388  0.571  1.0000
  C   C337      1.0  0.9129  0.3769  0.0179  1.0000
  C   C338      1.0  0.896  0.4109  0.0495  1.0000
  C   C339      1.0  0.9652000000000005  0.4421  0.0403  1.0000
  C   C340      1.0  0.9466000000000001  0.4751  0.0667  1.0000
  C   C341      1.0  0.8423  0.4792  0.09840000000000003  1.0000
  C   C342      1.0  0.8055  0.4152  0.08340000000000003  1.0000
  C   C343      1.0  0.725  0.3837  0.1005  1.0000
  C   C344      1.0  0.5281999999999999  0.3764  0.13040000000000004  1.0000
  C   C345      1.0  0.5615999999999999  0.3361  0.1359  1.0000
  C   C346      1.0  0.6839  0.3184  0.123  1.0000
  C   C347      1.0  0.7687  0.3417  0.1049  1.0000
  C   C348      1.0  0.8985  0.3223  0.0911  1.0000
  C   C349      1.0  0.5774  0.3865  0.9213  1.0000
  C   C350      1.0  0.5257  0.4103  0.8861000000000002  1.0000
  C   C351      1.0  0.5589000000000001  0.3939  0.8465  1.0000
  C   C352      1.0  0.5276  0.4168  0.814  1.0000
  C   C353      1.0  0.4614999999999999  0.4572  0.8212  1.0000
  C   C354      1.0  0.45189999999999986  0.4498  0.8916000000000002  1.0000
  C   C355      1.0  0.4036  0.47  0.9314  1.0000
  C   C356      1.0  0.38770000000000004  0.5307  0.9667  1.0000
  C   C357      1.0  0.3369  0.513  0.0038  1.0000
  C   C358      1.0  0.31509999999999994  0.4736  0.0022  1.0000
  C   C359      1.0  0.3489  0.45  0.9660000000000002  1.0000
  C   C360      1.0  0.3071  0.4095  0.9635  1.0000
  C   C361      1.0  0.4287  0.2693  0.0793  1.0000
  C   C362      1.0  0.3251  0.2451  0.0801  1.0000
  C   C363      1.0  0.21699999999999997  0.2572  0.10700000000000003  1.0000
  C   C364      1.0  0.1197  0.2361  0.1099  1.0000
  C   C365      1.0  0.13440000000000002  0.2021  0.0847  1.0000
  C   C366      1.0  0.3285  0.2119  0.0555  1.0000
  C   C367      1.0  0.4371  0.1942  0.0244  1.0000
  C   C368      1.0  0.5618  0.1326  0.9998  1.0000
  C   C369      1.0  0.6447000000000002  0.1532  0.9764  1.0000
  C   C370      1.0  0.6174  0.1955  0.9733  1.0000
  C   C371      1.0  0.5134999999999998  0.2166  0.9966  1.0000
  C   C372      1.0  0.476  0.2623  0.9889  1.0000
  C   C373      1.0  0.9779000000000001  0.2262  0.909  1.0000
  C   C374      1.0  0.9859999999999999  0.1879  0.9303  1.0000
  C   C375      1.0  0.05679999999999997  0.154  0.913  1.0000
  C   C376      1.0  0.12350000000000008  0.1599  0.8769  1.0000
  C   C377      1.0  0.048300000000000065  0.2294  0.87  1.0000
  C   C378      1.0  0.03499999999999993  0.2674  0.8460000000000002  1.0000
  C   C379      1.0  0.9846999999999998  0.2973  0.7865  1.0000
  C   C380      1.0  0.9781999999999998  0.3375  0.7999  1.0000
  C   C381      1.0  0.02099999999999996  0.3404  0.8358  1.0000
  C   C382      1.0  0.0567  0.3034  0.8596  1.0000
  C   C383      1.0  0.10979999999999994  0.3082  0.8994000000000002  1.0000
  C   C384      1.0  0.8834  0.2612  0.929  1.0000
  N   N1        1.0  0.11730000000000002  0.1068  0.0504  1.0000
  N   N2        1.0  0.2791  0.1128  0.099  1.0000
  N   N3        1.0  0.6463  0.9316  0.9901999999999999  1.0000
  N   N4        1.0  0.7146999999999999  0.8584  0.027200000000000002  1.0000
  N   N5        1.0  0.7058  0.0578  0.3096  1.0000
  N   N6        1.0  0.5176  0.0235  0.3477  1.0000
  N   N7        1.0  0.0199999999999999  0.8534  0.3054  1.0000
  N   N8        1.0  0.18510000000000001  0.808  0.237  1.0000
  N   N9        1.0  0.7745  0.3932  0.4496  1.0000
  N   N10       1.0  0.9909000000000001  0.3872  0.401  1.0000
  N   N11       1.0  0.06809999999999998  0.5684  0.5098  1.0000
  N   N12       1.0  0.10029999999999997  0.6416  0.4728  1.0000
  N   N13       1.0  0.5732000000000002  0.4422  0.19040000000000007  1.0000
  N   N14       1.0  0.3888  0.4765  0.1523  1.0000
  N   N15       1.0  0.6788  0.6466  0.1946  1.0000
  N   N16       1.0  0.7301  0.692  0.263  1.0000
  N   N17       1.0  0.16769999999999988  0.9496  0.6068  1.0000
  N   N18       1.0  0.3781000000000001  0.901  0.6128  1.0000
  N   N19       1.0  0.6365000000000001  0.0098  0.4316  1.0000
  N   N20       1.0  0.7419000000000001  0.9728  0.3584  1.0000
  N   N21       1.0  0.015399999999999912  0.6904  0.5578  1.0000
  N   N22       1.0  0.8652999999999998  0.6523  0.5235  1.0000
  N   N23       1.0  0.3254  0.6946  0.3534  1.0000
  N   N24       1.0  0.42210000000000003  0.763  0.30800000000000005  1.0000
  N   N25       1.0  0.22409999999999994  0.5504  0.8932  1.0000
  N   N26       1.0  0.3918999999999999  0.599  0.8872000000000002  1.0000
  N   N27       1.0  0.5779000000000001  0.4902  0.06840000000000003  1.0000
  N   N28       1.0  0.5731  0.5272  0.1416  1.0000
  N   N29       1.0  0.7636  0.8096  0.9422  1.0000
  N   N30       1.0  0.5411000000000002  0.8477  0.9765  1.0000
  N   N31       1.0  0.8734000000000002  0.8054  0.1466  1.0000
  N   N32       1.0  0.9931000000000002  0.737  0.192  1.0000
  N   N33       1.0  0.8826999999999998  0.8932  0.9496  1.0000
  N   N34       1.0  0.7209000000000001  0.8872  0.901  1.0000
  N   N35       1.0  0.3537  0.0684  0.009800000000000003  1.0000
  N   N36       1.0  0.2853  0.1416  0.9728  1.0000
  N   N37       1.0  0.2942  0.9422  0.6904  1.0000
  N   N38       1.0  0.4824000000000003  0.9765  0.6523  1.0000
  N   N39       1.0  0.9800000000000001  0.1466  0.6946  1.0000
  N   N40       1.0  0.8149  0.192  0.763  1.0000
  N   N41       1.0  0.22550000000000006  0.6068  0.5504  1.0000
  N   N42       1.0  0.009099999999999962  0.6128  0.599  1.0000
  N   N43       1.0  0.9319  0.4316  0.49020000000000014  1.0000
  N   N44       1.0  0.8997000000000002  0.3584  0.5272000000000002  1.0000
  N   N45       1.0  0.42679999999999996  0.5578  0.8096  1.0000
  N   N46       1.0  0.6112000000000004  0.5235  0.8477  1.0000
  N   N47       1.0  0.32120000000000004  0.3534  0.8054  1.0000
  N   N48       1.0  0.2698999999999999  0.308  0.737  1.0000
  N   N49       1.0  0.8323000000000003  0.0504  0.3932  1.0000
  N   N50       1.0  0.6219  0.099  0.3872  1.0000
  N   N51       1.0  0.36350000000000005  0.9902  0.5684  1.0000
  N   N52       1.0  0.2580999999999999  0.0272  0.6416000000000002  1.0000
  N   N53       1.0  0.9846000000000003  0.3096  0.4422  1.0000
  N   N54       1.0  0.13469999999999996  0.3477  0.4765  1.0000
  N   N55       1.0  0.6745999999999999  0.3054  0.6466  1.0000
  N   N56       1.0  0.5779  0.237  0.692  1.0000
  N   N57       1.0  0.7759000000000003  0.4496  0.1068  1.0000
  N   N58       1.0  0.6081  0.401  0.1128  1.0000
  N   N59       1.0  0.4220999999999998  0.5098  0.9316000000000002  1.0000
  N   N60       1.0  0.4269  0.4728  0.8584  1.0000
  N   N61       1.0  0.23640000000000003  0.1904  0.0578  1.0000
  N   N62       1.0  0.45890000000000003  0.1523  0.0235  1.0000
  N   N63       1.0  0.12660000000000002  0.1946  0.8534  1.0000
  N   N64       1.0  0.00690000000000004  0.263  0.808  1.0000
  O   O1        1.0  0.48857999999999996  0.9172300000000002  0.15341000000000005  1.0000
  O   O2        1.0  0.44469999999999993  0.9493  0.0965  1.0000
  O   O3        1.0  0.831  0.9427  0.0937  1.0000
  O   O4        1.0  0.6644299999999997  0.9860700000000001  0.11967000000000003  1.0000
  O   O5        1.0  0.98788  0.9967  0.13194  1.0000
  O   O6        1.0  0.16628000000000004  0.01514  0.13790000000000005  1.0000
  O   O7        1.0  0.91781  0.10003000000000002  0.16055  1.0000
  O   O8        1.0  0.011759999999999993  0.07202  0.21086  1.0000
  O   O9        1.0  0.52203  0.07769  0.19185  1.0000
  O   O10       1.0  0.38682  0.07867  0.25009  1.0000
  O   O11       1.0  0.6439800000000001  0.99283  0.22521  1.0000
  O   O12       1.0  0.4629099999999998  0.9776300000000002  0.21735000000000004  1.0000
  O   O13       1.0  0.13369999999999999  0.9601  0.2235  1.0000
  O   O14       1.0  0.29580000000000006  0.9146  0.226  1.0000
  O   O15       1.0  0.9939000000000006  0.9132  0.1578  1.0000
  O   O16       1.0  0.9064  0.911  0.2216  1.0000
  O   O17       1.0  0.05922000000000001  0.58277  0.34659  1.0000
  O   O18       1.0  0.9904999999999999  0.5507  0.4035  1.0000
  O   O19       1.0  0.36739999999999995  0.5573  0.4063  1.0000
  O   O20       1.0  0.2701700000000001  0.51393  0.3803300000000001  1.0000
  O   O21       1.0  0.6165200000000001  0.5033  0.36806  1.0000
  O   O22       1.0  0.8193199999999999  0.4848600000000001  0.3621  1.0000
  O   O23       1.0  0.6783899999999999  0.3999700000000001  0.33945  1.0000
  O   O24       1.0  0.79464  0.42798  0.28914  1.0000
  O   O25       1.0  0.29157  0.4223100000000001  0.30815  1.0000
  O   O26       1.0  0.2155799999999999  0.42133  0.24991  1.0000
  O   O27       1.0  0.3620200000000001  0.50717  0.27479  1.0000
  O   O28       1.0  0.15789  0.52237  0.28265  1.0000
  O   O29       1.0  0.8173000000000001  0.5399  0.2765  1.0000
  O   O30       1.0  0.9364  0.5854  0.274  1.0000
  O   O31       1.0  0.5649000000000001  0.5868  0.3422  1.0000
  O   O32       1.0  0.5390000000000003  0.589  0.2784  1.0000
  O   O33       1.0  0.64199  0.84659  0.41723  1.0000
  O   O34       1.0  0.5412000000000001  0.9035  0.4493  1.0000
  O   O35       1.0  0.9247000000000007  0.9063  0.4427  1.0000
  O   O36       1.0  0.7841  0.8803300000000002  0.48607  1.0000
  O   O37       1.0  0.11981999999999998  0.86806  0.4966999999999999  1.0000
  O   O38       1.0  0.30417999999999995  0.8621  0.51514  1.0000
  O   O39       1.0  0.07835999999999994  0.8394500000000003  0.60003  1.0000
  O   O40       1.0  0.22261999999999973  0.7891400000000002  0.5720200000000002  1.0000
  O   O41       1.0  0.7138799999999998  0.8081500000000003  0.57769  1.0000
  O   O42       1.0  0.63691  0.74991  0.57867  1.0000
  O   O43       1.0  0.86919  0.77479  0.49283000000000005  1.0000
  O   O44       1.0  0.68026  0.78265  0.47763  1.0000
  O   O45       1.0  0.3572  0.7765  0.4601  1.0000
  O   O46       1.0  0.5218  0.774  0.4146  1.0000
  O   O47       1.0  0.15170000000000003  0.8422  0.4132  1.0000
  O   O48       1.0  0.12800000000000003  0.7784  0.411  1.0000
  O   O49       1.0  0.40580999999999995  0.65341  0.08277  1.0000
  O   O50       1.0  0.3940000000000001  0.5965  0.0507  1.0000
  O   O51       1.0  0.7737  0.5937  0.0573  1.0000
  O   O52       1.0  0.6505  0.61967  0.01393  1.0000
  O   O53       1.0  0.98458  0.6319400000000002  0.0033  1.0000
  O   O54       1.0  0.18142000000000014  0.6379  0.98486  1.0000
  O   O55       1.0  0.017840000000000057  0.66055  0.89997  1.0000
  O   O56       1.0  0.08378000000000012  0.71086  0.92798  1.0000
  O   O57       1.0  0.5997200000000003  0.69185  0.9223100000000002  1.0000
  O   O58       1.0  0.46549  0.75009  0.92133  1.0000
  O   O59       1.0  0.6368100000000001  0.72521  0.00717  1.0000
  O   O60       1.0  0.4405399999999999  0.7173500000000003  0.022370000000000008  1.0000
  O   O61       1.0  0.09380000000000004  0.7235  0.0399  1.0000
  O   O62       1.0  0.21040000000000006  0.726  0.0854  1.0000
  O   O63       1.0  0.9071  0.6578  0.0868  1.0000
  O   O64       1.0  0.8173999999999999  0.7216  0.089  1.0000
  O   O65       1.0  0.5114200000000002  0.08277  0.84659  1.0000
  O   O66       1.0  0.5553  0.0507  0.9035  1.0000
  O   O67       1.0  0.169  0.0573  0.9063  1.0000
  O   O68       1.0  0.3355699999999999  0.013930000000000003  0.88033  1.0000
  O   O69       1.0  0.012119999999999943  0.0033  0.86806  1.0000
  O   O70       1.0  0.8337200000000005  0.98486  0.8621  1.0000
  O   O71       1.0  0.08219000000000003  0.89997  0.83945  1.0000
  O   O72       1.0  0.98824  0.92798  0.7891400000000002  1.0000
  O   O73       1.0  0.47796999999999995  0.92231  0.80815  1.0000
  O   O74       1.0  0.6131800000000004  0.9213300000000002  0.74991  1.0000
  O   O75       1.0  0.35602000000000006  0.00717  0.77479  1.0000
  O   O76       1.0  0.5370899999999998  0.022370000000000008  0.78265  1.0000
  O   O77       1.0  0.8663  0.0399  0.7765  1.0000
  O   O78       1.0  0.7042  0.0854  0.774  1.0000
  O   O79       1.0  0.0061000000000000255  0.0868  0.8422  1.0000
  O   O80       1.0  0.09360000000000007  0.089  0.7784  1.0000
  O   O81       1.0  0.94078  0.41723  0.65341  1.0000
  O   O82       1.0  0.00950000000000001  0.4493  0.5965  1.0000
  O   O83       1.0  0.6326000000000003  0.4427  0.5937  1.0000
  O   O84       1.0  0.7298300000000001  0.4860700000000001  0.61967  1.0000
  O   O85       1.0  0.38348000000000004  0.4966999999999999  0.63194  1.0000
  O   O86       1.0  0.1806799999999999  0.5151400000000003  0.6379  1.0000
  O   O87       1.0  0.3216099999999999  0.6000300000000002  0.66055  1.0000
  O   O88       1.0  0.20536000000000001  0.57202  0.71086  1.0000
  O   O89       1.0  0.70843  0.57769  0.69185  1.0000
  O   O90       1.0  0.7844199999999998  0.57867  0.75009  1.0000
  O   O91       1.0  0.63798  0.49283000000000005  0.72521  1.0000
  O   O92       1.0  0.8421100000000001  0.47763  0.71735  1.0000
  O   O93       1.0  0.18270000000000008  0.4601  0.7235  1.0000
  O   O94       1.0  0.06359999999999996  0.4146  0.7260000000000002  1.0000
  O   O95       1.0  0.4351  0.4132  0.6578  1.0000
  O   O96       1.0  0.46099999999999997  0.411  0.7216000000000002  1.0000
  O   O97       1.0  0.35801  0.15341000000000005  0.58277  1.0000
  O   O98       1.0  0.4588000000000001  0.0965  0.5507  1.0000
  O   O99       1.0  0.07529999999999999  0.0937  0.5573  1.0000
  O   O100      1.0  0.2159  0.11967  0.5139300000000002  1.0000
  O   O101      1.0  0.88018  0.13194  0.5033  1.0000
  O   O102      1.0  0.69582  0.1379  0.48486000000000007  1.0000
  O   O103      1.0  0.9216400000000001  0.16055  0.39997  1.0000
  O   O104      1.0  0.77738  0.21086000000000005  0.42798  1.0000
  O   O105      1.0  0.28612  0.19185  0.42231  1.0000
  O   O106      1.0  0.36309  0.25009  0.42133  1.0000
  O   O107      1.0  0.13080999999999995  0.22521000000000005  0.50717  1.0000
  O   O108      1.0  0.31974  0.21735  0.52237  1.0000
  O   O109      1.0  0.6427999999999999  0.2235  0.5399  1.0000
  O   O110      1.0  0.4782  0.226  0.5854  1.0000
  O   O111      1.0  0.8483  0.1578  0.5868  1.0000
  O   O112      1.0  0.872  0.2216  0.589  1.0000
  O   O113      1.0  0.5941899999999998  0.34659  0.9172300000000002  1.0000
  O   O114      1.0  0.6060000000000001  0.4035  0.9493000000000003  1.0000
  O   O115      1.0  0.2262999999999998  0.4063  0.9427000000000002  1.0000
  O   O116      1.0  0.34950000000000014  0.38033  0.9860700000000001  1.0000
  O   O117      1.0  0.015420000000000081  0.36806  0.9966999999999999  1.0000
  O   O118      1.0  0.81858  0.3621  0.01514  1.0000
  O   O119      1.0  0.98216  0.33945  0.10003000000000002  1.0000
  O   O120      1.0  0.9162200000000001  0.28914  0.07202  1.0000
  O   O121      1.0  0.40027999999999997  0.30815  0.07769  1.0000
  O   O122      1.0  0.5345100000000003  0.24991  0.07867  1.0000
  O   O123      1.0  0.36319  0.27479  0.9928300000000001  1.0000
  O   O124      1.0  0.5594599999999998  0.28265  0.97763  1.0000
  O   O125      1.0  0.9062000000000002  0.2765  0.9601  1.0000
  O   O126      1.0  0.7896  0.274  0.9146  1.0000
  O   O127      1.0  0.09290000000000002  0.3422  0.9132  1.0000
  O   O128      1.0  0.1826  0.2784  0.911  1.0000
