data_image0
_chemical_formula_structural       N2C3H2Cu3N2C3H2N2C3H2N2C3H2Cu3N2C3H2N2C3H2N2C3H2Cu3N2C3H2N2C3H2N2C3H2Cu3N2C3H2N2C3H2N2C3H2Cu3N2C3H2N2C3H2N2C3H2Cu3N2C3H2N2C3H2N2C3H2Cu3N2C3H2N2C3H2N2C3H2Cu3N2C3H2N2C3H2Zn4O13C6Zn4O13C6Zn4O13C6Zn4O13C12Br4C6Br4C6Br4C6Br4C6Br4C6Br4C6Br4C6Br4C6Br4C6Br4C6Br4C6Br4C6Br4C6Br4C6Br4C6Br4C6Br4C6Br4C6Br4C6Br4C6Br4C6Br4C6Br4C6Br4
_chemical_formula_sum              "N48 C240 H48 Cu24 Zn16 O52 Br96"
_cell_length_a       33.269
_cell_length_b       34.0436
_cell_length_c       34.02369999999999
_cell_angle_alpha    89.8205
_cell_angle_beta     89.58400000000002
_cell_angle_gamma    89.744

_space_group_name_H-M_alt    "P 1"
_space_group_IT_number       1

loop_
  _space_group_symop_operation_xyz
  'x, y, z'

loop_
  _atom_site_type_symbol
  _atom_site_label
  _atom_site_symmetry_multiplicity
  _atom_site_fract_x
  _atom_site_fract_y
  _atom_site_fract_z
  _atom_site_occupancy
  N   N1        1.0  0.3061  0.40585999999999994  0.38660999999999984  1.0000
  N   N2        1.0  0.30507  0.37584  0.4109099999999999  1.0000
  C   C1        1.0  0.27137  0.37794  0.43290999999999985  1.0000
  C   C2        1.0  0.24984  0.41114  0.42175  1.0000
  C   C3        1.0  0.2732  0.42825  0.39242  1.0000
  H   H1        1.0  0.26217  0.35569999999999996  0.45384  1.0000
  H   H2        1.0  0.26696000000000003  0.4551299999999999  0.3765299999999998  1.0000
  Cu  Cu1       1.0  0.3472300000000001  0.3361299999999999  0.4104499999999997  1.0000
  Cu  Cu2       1.0  0.34899  0.41182999999999986  0.34772000000000003  1.0000
  Cu  Cu3       1.0  0.39059  0.32174  0.32230000000000003  1.0000
  N   N3        1.0  0.38166  0.29107  0.4006099999999999  1.0000
  N   N4        1.0  0.39727  0.2845899999999999  0.3656299999999996  1.0000
  C   C4        1.0  0.41666  0.2498  0.36597999999999975  1.0000
  C   C5        1.0  0.4136  0.23384999999999995  0.40348999999999985  1.0000
  C   C6        1.0  0.39123  0.2610899999999999  0.42465999999999976  1.0000
  H   H3        1.0  0.4326500000000001  0.23755  0.3410599999999999  1.0000
  H   H4        1.0  0.38082  0.25825  0.4547199999999998  1.0000
  N   N5        1.0  0.39393  0.36889  0.2883199999999999  1.0000
  N   N6        1.0  0.37936  0.4035  0.2987699999999999  1.0000
  C   C7        1.0  0.38715  0.4298299999999999  0.2701499999999999  1.0000
  C   C8        1.0  0.4076500000000001  0.4108499999999999  0.24024999999999982  1.0000
  C   C9        1.0  0.41153  0.37232  0.25269999999999987  1.0000
  H   H5        1.0  0.37816  0.46039  0.2707900000000001  1.0000
  H   H6        1.0  0.42613  0.34863  0.23693000000000006  1.0000
  N   N7        1.0  0.2122900000000001  0.61424  0.87248  1.0000
  N   N8        1.0  0.21601000000000006  0.64794  0.8908299999999998  1.0000
  C   C10       1.0  0.2472399999999999  0.64563  0.9157299999999998  1.0000
  C   C11       1.0  0.2641  0.60856  0.9125  1.0000
  C   C12       1.0  0.2412000000000001  0.5894499999999998  0.8848099999999998  1.0000
  H   H7        1.0  0.2573000000000001  0.66923  0.9343899999999998  1.0000
  H   H8        1.0  0.2459899999999999  0.5600299999999998  0.8737699999999998  1.0000
  Cu  Cu4       1.0  0.18074999999999997  0.69213  0.87973  1.0000
  Cu  Cu5       1.0  0.17218000000000003  0.60587  0.83205  1.0000
  Cu  Cu6       1.0  0.1056600000000001  0.68244  0.81525  1.0000
  N   N9        1.0  0.1352000000000002  0.72806  0.87913  1.0000
  N   N10       1.0  0.10474999999999991  0.7230399999999998  0.8553199999999999  1.0000
  C   C13       1.0  0.07756999999999992  0.75188  0.86128  1.0000
  C   C14       1.0  0.09212000000000022  0.77672  0.8900199999999998  1.0000
  C   C15       1.0  0.12881999999999993  0.7606  0.9006199999999998  1.0000
  H   H9        1.0  0.05044000000000026  0.7557899999999997  0.84435  1.0000
  H   H10       1.0  0.14912999999999998  0.77154  0.9226899999999998  1.0000
  N   N11       1.0  0.10528000000000004  0.63347  0.78473  1.0000
  N   N12       1.0  0.12972000000000006  0.6037  0.79201  1.0000
  C   C16       1.0  0.12324000000000025  0.57525  0.7654  1.0000
  C   C17       1.0  0.09370999999999997  0.58798  0.73993  1.0000
  C   C18       1.0  0.08291000000000028  0.62491  0.75311  1.0000
  H   H11       1.0  0.13992000000000004  0.54799  0.7635099999999999  1.0000
  H   H12       1.0  0.06136999999999993  0.64459  0.73969  1.0000
  N   N13       1.0  0.70671  0.89492  0.12456  1.0000
  N   N14       1.0  0.7051  0.8666199999999998  0.09839999999999997  1.0000
  C   C19       1.0  0.73587  0.87074  0.07276  1.0000
  C   C20       1.0  0.75757  0.90343  0.08345  1.0000
  C   C21       1.0  0.73834  0.91811  0.11635999999999998  1.0000
  H   H13       1.0  0.74259  0.85114  0.04862  1.0000
  H   H14       1.0  0.74748  0.94309  0.13365  1.0000
  Cu  Cu7       1.0  0.66386  0.82638  0.10116999999999998  1.0000
  Cu  Cu8       1.0  0.66949  0.89806  0.16879  1.0000
  Cu  Cu9       1.0  0.5976  0.8249899999999999  0.1764  1.0000
  N   N15       1.0  0.62355  0.78545  0.1062  1.0000
  N   N16       1.0  0.5978500000000001  0.7849099999999999  0.13567999999999994  1.0000
  C   C22       1.0  0.57396  0.75331  0.13229  1.0000
  C   C23       1.0  0.58516  0.73279  0.09876  1.0000
  C   C24       1.0  0.61681  0.75423  0.08303999999999997  1.0000
  H   H15       1.0  0.54941  0.74647  0.15212  1.0000
  H   H16       1.0  0.63467  0.74667  0.05746  1.0000
  N   N17       1.0  0.60216  0.8681099999999999  0.21459999999999996  1.0000
  N   N18       1.0  0.6293200000000001  0.8961499999999999  0.21151  1.0000
  C   C25       1.0  0.62538  0.9206199999999999  0.24236999999999997  1.0000
  C   C26       1.0  0.59435  0.90725  0.26587  1.0000
  C   C27       1.0  0.5802600000000001  0.874  0.24752999999999997  1.0000
  H   H17       1.0  0.64414  0.94582  0.24792999999999998  1.0000
  H   H18       1.0  0.5562  0.85529  0.25785  1.0000
  N   N19       1.0  0.7933200000000001  0.0959000000000001  0.6162  1.0000
  N   N20       1.0  0.7926000000000001  0.12596999999999992  0.5918399999999999  1.0000
  C   C28       1.0  0.75979  0.1234900000000001  0.56904  1.0000
  C   C29       1.0  0.73914  0.09000000000000008  0.57967  1.0000
  C   C30       1.0  0.7610900000000002  0.07312000000000006  0.60964  1.0000
  H   H19       1.0  0.7509000000000001  0.1448799999999999  0.54718  1.0000
  H   H20       1.0  0.75362  0.046899999999999935  0.6261300000000001  1.0000
  Cu  Cu10      1.0  0.8336600000000001  0.16629000000000005  0.59351  1.0000
  Cu  Cu11      1.0  0.83545  0.08929999999999993  0.65524  1.0000
  Cu  Cu12      1.0  0.89021  0.17375000000000007  0.67386  1.0000
  N   N21       1.0  0.87566  0.20557000000000003  0.5972500000000001  1.0000
  N   N22       1.0  0.89837  0.20784000000000002  0.6285899999999999  1.0000
  C   C31       1.0  0.92259  0.23921999999999996  0.6252599999999999  1.0000
  C   C32       1.0  0.9142700000000001  0.25807  0.59008  1.0000
  C   C33       1.0  0.88441  0.23567999999999986  0.5730299999999999  1.0000
  H   H21       1.0  0.9424200000000001  0.24931999999999999  0.6481399999999999  1.0000
  H   H22       1.0  0.86972  0.24134999999999993  0.5453299999999999  1.0000
  N   N23       1.0  0.88922  0.12826999999999988  0.70953  1.0000
  N   N24       1.0  0.8691  0.09579000000000004  0.7022099999999999  1.0000
  C   C34       1.0  0.8741600000000002  0.07052999999999998  0.73237  1.0000
  C   C35       1.0  0.8987100000000001  0.08807999999999994  0.7597400000000001  1.0000
  C   C36       1.0  0.9078100000000001  0.12451999999999973  0.74431  1.0000
  H   H23       1.0  0.86034  0.04191999999999996  0.7347  1.0000
  H   H24       1.0  0.92643  0.14669  0.7576400000000001  1.0000
  N   N25       1.0  0.69928  0.59328  0.61463  1.0000
  N   N26       1.0  0.70187  0.62471  0.59218  1.0000
  C   C37       1.0  0.73541  0.62237  0.56996  1.0000
  C   C38       1.0  0.75456  0.58744  0.57874  1.0000
  C   C39       1.0  0.7309  0.56955  0.6070899999999999  1.0000
  H   H25       1.0  0.74582  0.64484  0.54983  1.0000
  H   H26       1.0  0.73705  0.54218  0.62218  1.0000
  Cu  Cu13      1.0  0.66239  0.66667  0.59563  1.0000
  Cu  Cu14      1.0  0.65626  0.58727  0.65353  1.0000
  Cu  Cu15      1.0  0.61211  0.6760399999999998  0.6803499999999999  1.0000
  N   N27       1.0  0.6218100000000002  0.70725  0.6025  1.0000
  N   N28       1.0  0.60299  0.71173  0.63632  1.0000
  C   C40       1.0  0.58013  0.74443  0.63478  1.0000
  C   C41       1.0  0.5847  0.76104  0.59787  1.0000
  C   C42       1.0  0.61122  0.7366199999999998  0.5780999999999997  1.0000
  H   H27       1.0  0.5625600000000002  0.75593  0.65906  1.0000
  H   H28       1.0  0.62311  0.74094  0.5487499999999997  1.0000
  N   N29       1.0  0.6097000000000001  0.62837  0.71331  1.0000
  N   N30       1.0  0.6246700000000002  0.59412  0.70227  1.0000
  C   C43       1.0  0.6162700000000001  0.56709  0.73011  1.0000
  C   C44       1.0  0.59508  0.58532  0.7601099999999997  1.0000
  C   C45       1.0  0.5915200000000003  0.62412  0.7485099999999998  1.0000
  H   H29       1.0  0.62508  0.5365  0.72879  1.0000
  H   H30       1.0  0.57636  0.6474  0.76439  1.0000
  N   N31       1.0  0.79401  0.39808  0.1284  1.0000
  N   N32       1.0  0.8035600000000003  0.38129  0.09485  1.0000
  C   C46       1.0  0.7749  0.38934  0.06827  1.0000
  C   C47       1.0  0.74558  0.41203  0.08636  1.0000
  C   C48       1.0  0.75866  0.41698  0.12450999999999998  1.0000
  H   H31       1.0  0.7746000000000002  0.37834  0.03849  1.0000
  H   H32       1.0  0.74312  0.43236  0.14793  1.0000
  Cu  Cu16      1.0  0.84993  0.34686  0.09036  1.0000
  Cu  Cu17      1.0  0.8272  0.39258  0.175  1.0000
  Cu  Cu18      1.0  0.91947  0.34697  0.16089  1.0000
  N   N33       1.0  0.88818  0.30391  0.09580999999999998  1.0000
  N   N34       1.0  0.91553  0.30383  0.12350999999999998  1.0000
  C   C49       1.0  0.93708  0.27031  0.12126999999999999  1.0000
  C   C50       1.0  0.9221700000000003  0.24821999999999997  0.09061999999999998  1.0000
  C   C51       1.0  0.89128  0.27049  0.07501  1.0000
  H   H33       1.0  0.9610600000000004  0.26219  0.14104999999999998  1.0000
  H   H34       1.0  0.87203  0.26259  0.05081999999999998  1.0000
  N   N35       1.0  0.90734  0.37997  0.20676  1.0000
  N   N36       1.0  0.87168  0.39611  0.21288  1.0000
  C   C52       1.0  0.87218  0.41555  0.24727999999999997  1.0000
  C   C53       1.0  0.90994  0.4113799999999999  0.26332  1.0000
  C   C54       1.0  0.93154  0.3886699999999999  0.23702  1.0000
  H   H35       1.0  0.84708  0.43166  0.25972  1.0000
  H   H36       1.0  0.9622600000000001  0.37866  0.24005  1.0000
  N   N37       1.0  0.30274  0.0931  0.88805  1.0000
  N   N38       1.0  0.30315  0.123  0.91237  1.0000
  C   C55       1.0  0.26857  0.12354999999999998  0.93317  1.0000
  C   C56       1.0  0.24554000000000004  0.09196  0.92148  1.0000
  C   C57       1.0  0.26833  0.07309  0.89305  1.0000
  H   H37       1.0  0.26052  0.14558  0.9547099999999998  1.0000
  H   H38       1.0  0.26007  0.04729  0.87653  1.0000
  Cu  Cu19      1.0  0.3489100000000001  0.15810999999999995  0.91445  1.0000
  Cu  Cu20      1.0  0.34559  0.0841  0.85003  1.0000
  Cu  Cu21      1.0  0.40662  0.16507  0.83328  1.0000
  N   N39       1.0  0.3849200000000001  0.20196  0.90625  1.0000
  N   N40       1.0  0.40606  0.20549999999999993  0.8736599999999998  1.0000
  C   C58       1.0  0.42601  0.23979  0.8743099999999999  1.0000
  C   C59       1.0  0.41705  0.25855  0.90931  1.0000
  C   C60       1.0  0.39098  0.23364  0.92895  1.0000
  H   H39       1.0  0.44525  0.25055  0.85093  1.0000
  H   H40       1.0  0.37682  0.23865  0.95722  1.0000
  N   N41       1.0  0.40307  0.12051  0.7966299999999997  1.0000
  N   N42       1.0  0.3801  0.08963  0.80326  1.0000
  C   C61       1.0  0.3826400000000001  0.06525  0.77225  1.0000
  C   C62       1.0  0.4087400000000001  0.08142  0.745  1.0000
  C   C63       1.0  0.42133  0.11628  0.7614599999999999  1.0000
  H   H41       1.0  0.3657600000000001  0.03837  0.76915  1.0000
  H   H42       1.0  0.4416500000000001  0.1373  0.74825  1.0000
  N   N43       1.0  0.19742000000000007  0.8975099999999998  0.3764699999999999  1.0000
  N   N44       1.0  0.19127  0.8741099999999998  0.40669  1.0000
  C   C64       1.0  0.2214  0.87859  0.43252  1.0000
  C   C65       1.0  0.24807  0.90593  0.41732  1.0000
  C   C66       1.0  0.23191  0.9171799999999999  0.38169  1.0000
  H   H43       1.0  0.22408  0.8627  0.45996  1.0000
  H   H44       1.0  0.24465  0.93783  0.3608899999999999  1.0000
  Cu  Cu22      1.0  0.14609000000000005  0.83809  0.40808999999999995  1.0000
  Cu  Cu23      1.0  0.16045000000000006  0.90087  0.33266  1.0000
  Cu  Cu24      1.0  0.08932000000000002  0.8277099999999997  0.3268699999999999  1.0000
  N   N45       1.0  0.11115  0.7931099999999998  0.40085  1.0000
  N   N46       1.0  0.08908999999999999  0.78916  0.36918  1.0000
  C   C67       1.0  0.06864  0.7551899999999999  0.37154  1.0000
  C   C68       1.0  0.07861000000000003  0.7369999999999999  0.40643  1.0000
  C   C69       1.0  0.1057  0.7616499999999998  0.42435  1.0000
  H   H45       1.0  0.04866999999999999  0.74412  0.34927  1.0000
  H   H46       1.0  0.12078000000000001  0.75669  0.45198  1.0000
  N   N47       1.0  0.09436  0.86984  0.28739  1.0000
  N   N48       1.0  0.12036000000000001  0.89877  0.29063  1.0000
  C   C70       1.0  0.1158  0.92358  0.26011  1.0000
  C   C71       1.0  0.08600000000000001  0.90919  0.23611  1.0000
  C   C72       1.0  0.07308  0.87506  0.25424  1.0000
  H   H47       1.0  0.13328000000000007  0.9498699999999999  0.25523  1.0000
  H   H48       1.0  0.05013  0.85538  0.24376999999999996  1.0000
  Zn  Zn1       1.0  0.0047100000000000015  0.052030000000000014  0.9736499999999999  1.0000
  Zn  Zn2       1.0  0.9655200000000002  0.9737  0.9655400000000001  1.0000
  Zn  Zn3       1.0  0.044330000000000015  0.9801100000000001  0.00581  1.0000
  Zn  Zn4       1.0  0.9715100000000001  0.012499999999999956  0.04461  1.0000
  O   O1        1.0  0.9964100000000001  0.004590000000000093  0.9973199999999999  1.0000
  O   O2        1.0  0.9798999999999999  0.05624999999999991  0.92749  1.0000
  O   O3        1.0  0.9915200000000001  0.93061  0.9481899999999999  1.0000
  O   O4        1.0  0.08638  0.00933000000000006  0.99067  1.0000
  O   O5        1.0  0.94968  0.99871  0.92196  1.0000
  O   O6        1.0  0.05666000000000001  0.061430000000000096  0.96432  1.0000
  O   O7        1.0  0.04947000000000001  0.9357099999999999  0.9789  1.0000
  O   O8        1.0  0.99951  0.99348  0.08527  1.0000
  O   O9        1.0  0.92052  0.95749  0.9898099999999999  1.0000
  O   O10       1.0  0.051780000000000014  0.96646  0.05598  1.0000
  O   O11       1.0  0.9241  0.98815  0.04722999999999999  1.0000
  O   O12       1.0  0.9621800000000001  0.06332000000000004  0.05521  1.0000
  O   O13       1.0  0.98677  0.09248999999999974  0.0022  1.0000
  C   C73       1.0  0.9576100000000001  0.032739999999999984  0.9088700000000001  1.0000
  C   C74       1.0  0.02663000000000001  0.91788  0.95535  1.0000
  C   C75       1.0  0.0881  0.042059999999999986  0.97275  1.0000
  C   C76       1.0  0.03173  0.9735399999999998  0.08697  1.0000
  C   C77       1.0  0.9061500000000001  0.9656499999999999  0.023489999999999997  1.0000
  C   C78       1.0  0.9696800000000001  0.0942099999999999  0.03557  1.0000
  Zn  Zn5       1.0  0.48530000000000006  0.9494599999999999  0.47842999999999997  1.0000
  Zn  Zn6       1.0  0.51916  0.9898799999999999  0.54836  1.0000
  Zn  Zn7       1.0  0.5259600000000002  0.02732  0.46923  1.0000
  Zn  Zn8       1.0  0.44586  0.02125  0.5101699999999998  1.0000
  O   O14       1.0  0.49413000000000007  0.9970299999999999  0.50143  1.0000
  O   O15       1.0  0.50304  0.90894  0.5077  1.0000
  O   O16       1.0  0.5663800000000001  0.01386  0.55064  1.0000
  O   O17       1.0  0.5413  0.0021100000000000003  0.4252699999999999  1.0000
  O   O18       1.0  0.52944  0.93955  0.5587399999999999  1.0000
  O   O19       1.0  0.51101  0.9447699999999999  0.43252  1.0000
  O   O20       1.0  0.57172  0.04248  0.49238999999999994  1.0000
  O   O21       1.0  0.44244  0.06756999999999999  0.48521999999999993  1.0000
  O   O22       1.0  0.49113  0.00855  0.5891299999999998  1.0000
  O   O23       1.0  0.50113  0.07165  0.45401  1.0000
  O   O24       1.0  0.43611  0.031129999999999998  0.561  1.0000
  O   O25       1.0  0.40414  0.99312  0.49346000000000007  1.0000
  O   O26       1.0  0.43331  0.9409099999999999  0.4677699999999999  1.0000
  C   C79       1.0  0.52187  0.90834  0.54003  1.0000
  C   C80       1.0  0.58548  0.03507999999999999  0.5263199999999999  1.0000
  C   C81       1.0  0.53358  0.9677599999999998  0.41310999999999987  1.0000
  C   C82       1.0  0.46674  0.08557  0.4626499999999999  1.0000
  C   C83       1.0  0.45704  0.02516  0.59145  1.0000
  C   C84       1.0  0.40182  0.9607600000000001  0.47529999999999994  1.0000
  Zn  Zn9       1.0  0.012510000000000241  0.4486999999999999  0.47852999999999996  1.0000
  Zn  Zn10      1.0  0.04923999999999995  0.5212699999999998  0.51123  1.0000
  Zn  Zn11      1.0  0.97051  0.52603  0.4696  1.0000
  Zn  Zn12      1.0  0.9764000000000002  0.48750999999999994  0.54876  1.0000
  O   O27       1.0  0.002099999999999992  0.49589999999999995  0.50194  1.0000
  O   O28       1.0  0.06482999999999994  0.44058999999999987  0.46956  1.0000
  O   O29       1.0  0.05204000000000009  0.56753  0.48672  1.0000
  O   O30       1.0  0.95762  0.5014  0.4249299999999999  1.0000
  O   O31       1.0  0.09240000000000005  0.49415  0.49441999999999997  1.0000
  O   O32       1.0  0.9889900000000001  0.44431  0.43185  1.0000
  O   O33       1.0  0.9942700000000001  0.57105  0.45506  1.0000
  O   O34       1.0  0.9289100000000002  0.51221  0.55126  1.0000
  O   O35       1.0  0.05679999999999997  0.53173  0.5621599999999998  1.0000
  O   O36       1.0  0.92378  0.53983  0.49236  1.0000
  O   O37       1.0  0.00434000000000001  0.50411  0.59036  1.0000
  O   O38       1.0  0.96572  0.43688  0.55754  1.0000
  O   O39       1.0  0.9943300000000002  0.40772  0.50632  1.0000
  C   C85       1.0  0.09536999999999995  0.46139  0.47691999999999996  1.0000
  C   C86       1.0  0.028090000000000174  0.58546  0.46400999999999987  1.0000
  C   C87       1.0  0.9668100000000001  0.46746  0.41234  1.0000
  C   C88       1.0  0.9097500000000002  0.53274  0.52641  1.0000
  C   C89       1.0  0.036920000000000064  0.52307  0.5929  1.0000
  C   C90       1.0  0.97435  0.40621  0.5381499999999999  1.0000
  Zn  Zn13      1.0  0.4726699999999999  0.49162999999999996  0.95368  1.0000
  Zn  Zn14      1.0  0.54649  0.5237  0.98994  1.0000
  Zn  Zn15      1.0  0.46768  0.52981  0.03290999999999999  1.0000
  Zn  Zn16      1.0  0.5084900000000001  0.45191  0.023419999999999996  1.0000
  O   O40       1.0  0.49873000000000006  0.49932  5.999999999994899e-05  1.0000
  O   O41       1.0  0.50089  0.50807  0.91167  1.0000
  O   O42       1.0  0.5501400000000002  0.56995  0.014069999999999805  1.0000
  O   O43       1.0  0.4217700000000001  0.54592  0.010310000000000041  1.0000
  O   O44       1.0  0.5548100000000002  0.53354  0.9388399999999998  1.0000
  O   O45       1.0  0.42598000000000014  0.5178  0.9516600000000001  1.0000
  O   O46       1.0  0.4927500000000001  0.57397  0.047289999999999825  1.0000
  O   O47       1.0  0.48434  0.4475099999999999  0.07017000000000007  1.0000
  O   O48       1.0  0.58898  0.49613999999999997  0.006799999999999917  1.0000
  O   O49       1.0  0.4540700000000001  0.50503  0.07787999999999994  1.0000
  O   O50       1.0  0.5607  0.44381  0.033339999999999925  1.0000
  O   O51       1.0  0.49084000000000005  0.4111499999999999  0.99498  1.0000
  O   O52       1.0  0.46153  0.4410999999999999  0.9447599999999999  1.0000
  C   C91       1.0  0.53428  0.5257  0.90862  1.0000
  C   C92       1.0  0.52669  0.58792  0.03746999999999989  1.0000
  C   C93       1.0  0.40787  0.53964  0.9762699999999999  1.0000
  C   C94       1.0  0.4629  0.4709  0.09038999999999997  1.0000
  C   C95       1.0  0.59173  0.46403  0.025619999999999976  1.0000
  C   C96       1.0  0.47082000000000007  0.41005  0.96336  1.0000
  C   C97       1.0  0.18187  0.4365599999999999  0.40869  1.0000
  C   C98       1.0  0.21164999999999992  0.42334  0.4355  1.0000
  C   C99       1.0  0.20212999999999992  0.42219  0.47629999999999995  1.0000
  C   C100      1.0  0.1637599999999999  0.43391  0.48971999999999993  1.0000
  C   C101      1.0  0.13507000000000025  0.44795  0.46302  1.0000
  C   C102      1.0  0.14409000000000005  0.44929  0.42263  1.0000
  Br  Br1       1.0  0.10410999999999992  0.46866  0.38628  1.0000
  Br  Br2       1.0  0.1891700000000001  0.4318899999999999  0.35238  1.0000
  Br  Br3       1.0  0.14982000000000031  0.43001  0.5447599999999998  1.0000
  Br  Br4       1.0  0.24253000000000016  0.4101299999999999  0.51519  1.0000
  C   C103      1.0  0.3378  0.6119  0.9272199999999998  1.0000
  C   C104      1.0  0.30036  0.59303  0.93219  1.0000
  C   C105      1.0  0.298  0.55812  0.95459  1.0000
  C   C106      1.0  0.3331000000000001  0.54122  0.97027  1.0000
  C   C107      1.0  0.37052  0.55933  0.96405  1.0000
  C   C108      1.0  0.37269  0.59525  0.9435800000000001  1.0000
  Br  Br5       1.0  0.42381000000000013  0.62135  0.9378099999999998  1.0000
  Br  Br6       1.0  0.34227  0.6588699999999997  0.8955799999999999  1.0000
  Br  Br7       1.0  0.33008  0.49312  0.99999  1.0000
  Br  Br8       1.0  0.24663000000000002  0.53377  0.96463  1.0000
  C   C109      1.0  0.8312500000000002  0.89667  0.07043  1.0000
  C   C110      1.0  0.7951699999999999  0.9180099999999998  0.06566  1.0000
  C   C111      1.0  0.7953399999999999  0.9540199999999999  0.0451  1.0000
  C   C112      1.0  0.83165  0.96904  0.030020000000000005  1.0000
  C   C113      1.0  0.86778  0.94828  0.03587  1.0000
  C   C114      1.0  0.8675499999999999  0.9118799999999998  0.05555  1.0000
  Br  Br9       1.0  0.9172600000000001  0.88339  0.06275  1.0000
  Br  Br10      1.0  0.8313400000000001  0.84766  0.09907  1.0000
  Br  Br11      1.0  0.83214  0.018000000000000013  0.00134  1.0000
  Br  Br12      1.0  0.74578  0.98254  0.03733  1.0000
  C   C115      1.0  0.66469  0.08614  0.58667  1.0000
  C   C116      1.0  0.69976  0.0773  0.56502  1.0000
  C   C117      1.0  0.6972100000000002  0.05625  0.52958  1.0000
  C   C118      1.0  0.65965  0.04307999999999999  0.51626  1.0000
  C   C119      1.0  0.62453  0.05131  0.5383  1.0000
  C   C120      1.0  0.6270900000000003  0.07332  0.57329  1.0000
  Br  Br13      1.0  0.57894  0.08709999999999997  0.6023299999999998  1.0000
  Br  Br14      1.0  0.66822  0.11617000000000001  0.63455  1.0000
  Br  Br15      1.0  0.6567700000000002  0.01168  0.46921  1.0000
  Br  Br16      1.0  0.74547  0.04448  0.50003  1.0000
  C   C121      1.0  0.4222  0.16255  0.39505  1.0000
  C   C122      1.0  0.42829  0.1974  0.41706  1.0000
  C   C123      1.0  0.44854  0.1949  0.45359  1.0000
  C   C124      1.0  0.46183  0.15828  0.46792  1.0000
  C   C125      1.0  0.4546900000000001  0.12391  0.44641  1.0000
  C   C126      1.0  0.43525  0.12603  0.40995  1.0000
  Br  Br17      1.0  0.42532  0.07827  0.38118999999999986  1.0000
  Br  Br18      1.0  0.3908  0.16288  0.34742  1.0000
  Br  Br19      1.0  0.49089  0.15492  0.51678  1.0000
  Br  Br20      1.0  0.4631  0.24170000000000003  0.48221  1.0000
  C   C127      1.0  0.97112  0.3021  0.5776399999999998  1.0000
  C   C128      1.0  0.9292000000000001  0.29456  0.5772999999999998  1.0000
  C   C129      1.0  0.9024600000000003  0.32457  0.56464  1.0000
  C   C130      1.0  0.91757  0.3610299999999999  0.55206  1.0000
  C   C131      1.0  0.9591900000000001  0.36807  0.55208  1.0000
  C   C132      1.0  0.9859300000000001  0.33871  0.56487  1.0000
  Br  Br21      1.0  0.042950000000000044  0.34915  0.56531  1.0000
  Br  Br22      1.0  0.00924999999999998  0.26118  0.59089  1.0000
  Br  Br23      1.0  0.88109  0.4016  0.5342999999999998  1.0000
  Br  Br24      1.0  0.8447400000000003  0.3189999999999999  0.56969  1.0000
  C   C133      1.0  0.03442  0.81301  0.9170999999999999  1.0000
  C   C134      1.0  0.07486  0.81193  0.90375  1.0000
  C   C135      1.0  0.09809  0.84666  0.90489  1.0000
  C   C136      1.0  0.08152  0.88153  0.92021  1.0000
  C   C137      1.0  0.04203  0.88194  0.9357499999999999  1.0000
  C   C138      1.0  0.018320000000000003  0.84773  0.93355  1.0000
  Br  Br25      1.0  0.96469  0.84714  0.95585  1.0000
  Br  Br26      1.0  0.0023100000000000004  0.76576  0.91838  1.0000
  Br  Br27      1.0  0.11249  0.92955  0.9173  1.0000
  Br  Br28      1.0  0.15098  0.8485399999999997  0.88078  1.0000
  C   C139      1.0  0.56214  0.69324  0.04309000000000007  1.0000
  C   C140      1.0  0.56882  0.6976299999999998  0.08404999999999996  1.0000
  C   C141      1.0  0.55967  0.66575  0.10966000000000009  1.0000
  C   C142      1.0  0.5447500000000002  0.6302899999999999  0.0943799999999999  1.0000
  C   C143      1.0  0.53955  0.62593  0.05363999999999991  1.0000
  C   C144      1.0  0.54811  0.65739  0.028089999999999945  1.0000
  Br  Br29      1.0  0.5388  0.65174  0.9723399999999999  1.0000
  Br  Br30      1.0  0.56631  0.73748  0.007400000000000073  1.0000
  Br  Br31      1.0  0.53423  0.58629  0.1290199999999999  1.0000
  Br  Br32      1.0  0.57333  0.66709  0.16483999999999985  1.0000
  C   C145      1.0  0.46322  0.42852  0.19360999999999984  1.0000
  C   C146      1.0  0.4218  0.42787  0.20260999999999996  1.0000
  C   C147      1.0  0.39393  0.44312  0.17540999999999984  1.0000
  C   C148      1.0  0.40737  0.4581899999999999  0.1390499999999999  1.0000
  C   C149      1.0  0.4487200000000001  0.4578899999999999  0.12959999999999994  1.0000
  C   C150      1.0  0.47666000000000003  0.4434999999999999  0.1572499999999999  1.0000
  Br  Br33      1.0  0.53366  0.44584  0.1460999999999999  1.0000
  Br  Br34      1.0  0.5018  0.4101499999999999  0.2316999999999998  1.0000
  Br  Br35      1.0  0.3687500000000001  0.47714000000000006  0.10139000000000009  1.0000
  Br  Br36      1.0  0.33702  0.44122  0.18684999999999996  1.0000
  C   C151      1.0  0.58611  0.90225  0.33872  1.0000
  C   C152      1.0  0.5805200000000003  0.9237299999999999  0.30371  1.0000
  C   C153      1.0  0.56134  0.9606999999999999  0.30485  1.0000
  C   C154      1.0  0.54671  0.97568  0.34076  1.0000
  C   C155      1.0  0.5513000000000001  0.9536999999999999  0.37572  1.0000
  C   C156      1.0  0.5717  0.91723  0.37466  1.0000
  Br  Br37      1.0  0.58166  0.88841  0.4227  1.0000
  Br  Br38      1.0  0.61478  0.8528  0.33767999999999987  1.0000
  Br  Br39      1.0  0.5183900000000001  0.025279999999999997  0.3413799999999999  1.0000
  Br  Br40      1.0  0.55325  0.98994  0.25682  1.0000
  C   C157      1.0  0.9365500000000001  0.03864000000000001  0.7997799999999999  1.0000
  C   C158      1.0  0.91169  0.07225999999999999  0.79808  1.0000
  C   C159      1.0  0.90058  0.09180999999999973  0.8330399999999999  1.0000
  C   C160      1.0  0.9151900000000001  0.07845999999999997  0.86941  1.0000
  C   C161      1.0  0.94073  0.04539000000000004  0.8709899999999999  1.0000
  C   C162      1.0  0.9510000000000001  0.02517999999999998  0.8362199999999999  1.0000
  Br  Br41      1.0  0.9869  0.9804799999999999  0.8382599999999999  1.0000
  Br  Br42      1.0  0.9528800000000001  0.012340000000000018  0.7520399999999999  1.0000
  Br  Br43      1.0  0.89926  0.10478000000000008  0.9173299999999999  1.0000
  Br  Br44      1.0  0.86421  0.1361399999999999  0.83141  1.0000
  C   C163      1.0  0.10711000000000004  0.55832  0.67372  1.0000
  C   C164      1.0  0.07960999999999996  0.56851  0.70373  1.0000
  C   C165      1.0  0.03834000000000004  0.56137  0.69858  1.0000
  C   C166      1.0  0.0242  0.54594  0.66289  1.0000
  C   C167      1.0  0.05163999999999991  0.53633  0.63211  1.0000
  C   C168      1.0  0.09342000000000007  0.54136  0.6386  1.0000
  Br  Br45      1.0  0.1331199999999999  0.52375  0.60064  1.0000
  Br  Br46      1.0  0.16362000000000013  0.57008  0.6792399999999997  1.0000
  Br  Br47      1.0  0.96673  0.54026  0.6569399999999997  1.0000
  Br  Br48      1.0  0.0009999999999998905  0.57203  0.7411199999999998  1.0000
  C   C169      1.0  0.82938  0.59197  0.57863  1.0000
  C   C170      1.0  0.79421  0.57433  0.56424  1.0000
  C   C171      1.0  0.7969700000000002  0.54447  0.53578  1.0000
  C   C172      1.0  0.83491  0.53175  0.52224  1.0000
  C   C173      1.0  0.8700800000000001  0.54848  0.53764  1.0000
  C   C174      1.0  0.8672800000000003  0.5790899999999999  0.56526  1.0000
  Br  Br49      1.0  0.9154500000000002  0.60422  0.58364  1.0000
  Br  Br50      1.0  0.82568  0.633  0.61752  1.0000
  Br  Br51      1.0  0.83882  0.49111  0.48299  1.0000
  Br  Br52      1.0  0.74871  0.5213  0.51522  1.0000
  C   C175      1.0  0.67939  0.39775  0.054910000000000014  1.0000
  C   C176      1.0  0.70683  0.42534  0.06974999999999998  1.0000
  C   C177      1.0  0.69667  0.46556  0.06984999999999975  1.0000
  C   C178      1.0  0.65901  0.47816  0.05584999999999995  1.0000
  C   C179      1.0  0.63168  0.45067  0.040019999999999945  1.0000
  C   C180      1.0  0.64229  0.41035  0.03960000000000008  1.0000
  Br  Br53      1.0  0.60689  0.37168  0.01739999999999986  1.0000
  Br  Br54      1.0  0.69135  0.3421599999999999  0.057700000000000085  1.0000
  Br  Br55      1.0  0.64438  0.53295  0.06163999999999991  1.0000
  Br  Br56      1.0  0.7349200000000002  0.50382  0.08817999999999991  1.0000
  C   C181      1.0  0.17346  0.07676999999999978  0.9074199999999999  1.0000
  C   C182      1.0  0.20463  0.08136999999999993  0.935  1.0000
  C   C183      1.0  0.19666  0.07502999999999971  0.97535  1.0000
  C   C184      1.0  0.15798  0.06376000000000004  0.9878699999999999  1.0000
  C   C185      1.0  0.12757000000000002  0.05721999999999983  0.9601  1.0000
  C   C186      1.0  0.13528  0.06401999999999974  0.91987  1.0000
  Br  Br57      1.0  0.09408  0.054089999999999964  0.8813999999999999  1.0000
  Br  Br58      1.0  0.18216000000000002  0.08953000000000011  0.8526400000000001  1.0000
  Br  Br59      1.0  0.14609000000000005  0.059029999999999916  0.043239999999999994  1.0000
  Br  Br60      1.0  0.23903000000000002  0.07942999999999989  0.01355  1.0000
  C   C187      1.0  0.31656  0.8924300000000001  0.4450699999999999  1.0000
  C   C188      1.0  0.28645  0.91961  0.4343  1.0000
  C   C189      1.0  0.2937400000000001  0.9601800000000001  0.43805  1.0000
  C   C190      1.0  0.33151  0.97364  0.45052  1.0000
  C   C191      1.0  0.36178  0.94648  0.4620199999999999  1.0000
  C   C192      1.0  0.35355000000000003  0.9056799999999999  0.4598599999999999  1.0000
  Br  Br61      1.0  0.39184  0.86697  0.47814  1.0000
  Br  Br62      1.0  0.3084600000000001  0.8367899999999999  0.43726  1.0000
  Br  Br63      1.0  0.34151  0.02962  0.44861  1.0000
  Br  Br64      1.0  0.25132  0.99777  0.42759  1.0000
  C   C193      1.0  0.59476  0.82938  0.57247  1.0000
  C   C194      1.0  0.56835  0.7989900000000001  0.58387  1.0000
  C   C195      1.0  0.52641  0.80493  0.5816099999999998  1.0000
  C   C196      1.0  0.51102  0.84094  0.56771  1.0000
  C   C197      1.0  0.5374400000000003  0.8708  0.55538  1.0000
  C   C198      1.0  0.5793200000000002  0.86502  0.5579  1.0000
  Br  Br65      1.0  0.6157000000000002  0.90567  0.54027  1.0000
  Br  Br66      1.0  0.65215  0.82326  0.57849  1.0000
  Br  Br67      1.0  0.45381999999999995  0.8501299999999999  0.56718  1.0000
  Br  Br68      1.0  0.48994000000000004  0.7633300000000001  0.59613  1.0000
  C   C199      1.0  0.027230000000000087  0.69405  0.43832  1.0000
  C   C200      1.0  0.06519999999999994  0.69818  0.42031  1.0000
  C   C201      1.0  0.09042000000000017  0.6652299999999999  0.41547  1.0000
  C   C202      1.0  0.07787999999999995  0.62814  0.429  1.0000
  C   C203      1.0  0.04014000000000029  0.624  0.44783  1.0000
  C   C204      1.0  0.01472999999999991  0.6570599999999998  0.45228  1.0000
  Br  Br69      1.0  0.96383  0.65245  0.47954  1.0000
  Br  Br70      1.0  0.9929200000000001  0.73945  0.44482  1.0000
  Br  Br71      1.0  0.11186999999999993  0.58282  0.42006  1.0000
  Br  Br72      1.0  0.14193999999999996  0.67093  0.38965999999999995  1.0000
  C   C205      1.0  0.90727  0.17714999999999992  0.07944  1.0000
  C   C206      1.0  0.93493  0.20842000000000005  0.0783  1.0000
  C   C207      1.0  0.97449  0.20172999999999996  0.06468  1.0000
  C   C208      1.0  0.98617  0.16410999999999976  0.0517  1.0000
  C   C209      1.0  0.9581  0.13307  0.051579999999999994  1.0000
  C   C210      1.0  0.91866  0.13969999999999994  0.0658  1.0000
  Br  Br73      1.0  0.87923  0.0982400000000001  0.06479  1.0000
  Br  Br74      1.0  0.8539500000000001  0.18509999999999982  0.10096999999999999  1.0000
  Br  Br75      1.0  0.04124  0.15496999999999983  0.03553999999999999  1.0000
  Br  Br76      1.0  0.01234  0.24452000000000007  0.06197  1.0000
  C   C211      1.0  0.47242  0.3058599999999999  0.92433  1.0000
  C   C212      1.0  0.43091  0.29766  0.9222  1.0000
  C   C213      1.0  0.4026400000000001  0.32708  0.93228  1.0000
  C   C214      1.0  0.4158100000000001  0.3638  0.9458099999999999  1.0000
  C   C215      1.0  0.45722  0.3718  0.9482599999999999  1.0000
  C   C216      1.0  0.48543000000000003  0.34312  0.9365599999999997  1.0000
  Br  Br77      1.0  0.54182  0.35574  0.93504  1.0000
  Br  Br78      1.0  0.51178  0.26568  0.91246  1.0000
  Br  Br79      1.0  0.37698  0.40283  0.9620499999999998  1.0000
  Br  Br80      1.0  0.34576  0.31816  0.92579  1.0000
  C   C217      1.0  0.5377900000000002  0.56984  0.80559  1.0000
  C   C218      1.0  0.57922  0.56751  0.79682  1.0000
  C   C219      1.0  0.60548  0.54926  0.8236999999999998  1.0000
  C   C220      1.0  0.59052  0.5341  0.85948  1.0000
  C   C221      1.0  0.5492900000000002  0.5382  0.86928  1.0000
  C   C222      1.0  0.5229  0.55574  0.8417999999999998  1.0000
  Br  Br81      1.0  0.46647  0.5628299999999998  0.85388  1.0000
  Br  Br82      1.0  0.50094  0.59136  0.7673799999999998  1.0000
  Br  Br83      1.0  0.6267000000000003  0.50625  0.8941199999999998  1.0000
  Br  Br84      1.0  0.6624900000000002  0.5469099999999998  0.81274  1.0000
  C   C223      1.0  0.41192  0.08934999999999997  0.67191  1.0000
  C   C224      1.0  0.41905  0.06611  0.70556  1.0000
  C   C225      1.0  0.43642  0.028479999999999995  0.70144  1.0000
  C   C226      1.0  0.44717  0.014389999999999997  0.66394  1.0000
  C   C227      1.0  0.44203  0.03846  0.63036  1.0000
  C   C228      1.0  0.42398  0.07594999999999998  0.63455  1.0000
  Br  Br85      1.0  0.4174700000000001  0.11051  0.58983  1.0000
  Br  Br86      1.0  0.38406  0.13910999999999996  0.67655  1.0000
  Br  Br87      1.0  0.46733  0.96124  0.65888  1.0000
  Br  Br88      1.0  0.4476  0.9968  0.74732  1.0000
  C   C229      1.0  0.031000000000000003  0.93339  0.19212999999999997  1.0000
  C   C230      1.0  0.07217  0.92586  0.19824999999999995  1.0000
  C   C231      1.0  0.10013  0.93403  0.16803999999999997  1.0000
  C   C232      1.0  0.0873  0.9509099999999999  0.13241  1.0000
  C   C233      1.0  0.04575000000000001  0.95766  0.12556  1.0000
  C   C234      1.0  0.017630000000000003  0.9479300000000002  0.15566999999999995  1.0000
  Br  Br89      1.0  0.9601900000000001  0.9515099999999999  0.14736  1.0000
  Br  Br90      1.0  0.99269  0.9254199999999998  0.23441999999999996  1.0000
  Br  Br91      1.0  0.12801  0.9655599999999999  0.09428999999999997  1.0000
  Br  Br92      1.0  0.15615  0.91984  0.17421  1.0000
  C   C235      1.0  0.91207  0.40731  0.3364299999999999  1.0000
  C   C236      1.0  0.92373  0.42642  0.30143  1.0000
  C   C237      1.0  0.9487700000000002  0.4596299999999999  0.30284  1.0000
  C   C238      1.0  0.9623900000000001  0.47361  0.3392699999999999  1.0000
  C   C239      1.0  0.9511500000000003  0.45417999999999986  0.37428  1.0000
  C   C240      1.0  0.92585  0.4211  0.37282  1.0000
  Br  Br93      1.0  0.9092100000000001  0.39523  0.42081  1.0000
  Br  Br94      1.0  0.87799  0.36164  0.3343799999999999  1.0000
  Br  Br95      1.0  0.99785  0.51828  0.34111  1.0000
  Br  Br96      1.0  0.96414  0.48603  0.25482  1.0000
