data_image0
_chemical_formula_structural       Mn24H288C328N64O72
_chemical_formula_sum              "Mn24 H288 C328 N64 O72"
_cell_length_a       17.86771
_cell_length_b       29.89244
_cell_length_c       29.89103
_cell_angle_alpha    84.87968999999998
_cell_angle_beta     72.64733
_cell_angle_gamma    72.66151

_space_group_name_H-M_alt    "P 1"
_space_group_IT_number       1

loop_
  _space_group_symop_operation_xyz
  'x, y, z'

loop_
  _atom_site_type_symbol
  _atom_site_label
  _atom_site_symmetry_multiplicity
  _atom_site_fract_x
  _atom_site_fract_y
  _atom_site_fract_z
  _atom_site_occupancy
  Mn  Mn1       1.0  0.4389899999999999  0.9154400000000003  0.6426700000000002  1.0000
  Mn  Mn2       1.0  0.7074099999999998  0.8823800000000003  0.53227  1.0000
  Mn  Mn3       1.0  0.21743999999999994  0.99803  0.57766  1.0000
  Mn  Mn4       1.0  0.9972099999999999  0.5842600000000002  0.85764  1.0000
  Mn  Mn5       1.0  0.12238999999999971  0.6177500000000002  0.9679100000000003  1.0000
  Mn  Mn6       1.0  0.7929200000000001  0.50205  0.9220800000000002  1.0000
  Mn  Mn7       1.0  0.85505  0.64255  0.58436  1.0000
  Mn  Mn8       1.0  0.09005999999999999  0.53215  0.61733  1.0000
  Mn  Mn9       1.0  0.71523  0.57769  0.50232  1.0000
  Mn  Mn10      1.0  0.08209999999999996  0.8572100000000002  0.91551  1.0000
  Mn  Mn11      1.0  0.2392699999999999  0.96812  0.8826800000000002  1.0000
  Mn  Mn12      1.0  0.7952399999999998  0.9220300000000002  0.9977400000000002  1.0000
  Mn  Mn13      1.0  0.56101  0.08456  0.3573300000000001  1.0000
  Mn  Mn14      1.0  0.29259  0.11763  0.46773000000000003  1.0000
  Mn  Mn15      1.0  0.7825600000000001  0.0019700000000000004  0.4223500000000001  1.0000
  Mn  Mn16      1.0  0.0028000000000000073  0.41574  0.14236  1.0000
  Mn  Mn17      1.0  0.8776100000000001  0.38225000000000003  0.03209  1.0000
  Mn  Mn18      1.0  0.20709000000000005  0.49796  0.07792000000000003  1.0000
  Mn  Mn19      1.0  0.14495999999999995  0.35743  0.41567000000000004  1.0000
  Mn  Mn20      1.0  0.9099499999999998  0.4678400000000001  0.3826900000000001  1.0000
  Mn  Mn21      1.0  0.2847699999999999  0.4223200000000001  0.4977000000000001  1.0000
  Mn  Mn22      1.0  0.9179  0.14279000000000006  0.08449  1.0000
  Mn  Mn23      1.0  0.76073  0.03188  0.11733  1.0000
  Mn  Mn24      1.0  0.20476000000000008  0.07797  0.00226  1.0000
  H   H1        1.0  0.39431999999999984  0.78387  0.7024300000000002  1.0000
  H   H2        1.0  0.48834999999999973  0.70248  0.69283  1.0000
  H   H3        1.0  0.62989  0.68669  0.6369200000000003  1.0000
  H   H4        1.0  0.6731100000000003  0.75197  0.59138  1.0000
  H   H5        1.0  0.6227899999999997  0.9942900000000001  0.53001  1.0000
  H   H6        1.0  0.5303899999999999  0.03601  0.5687400000000002  1.0000
  H   H7        1.0  0.3913600000000003  0.91238  0.75346  1.0000
  H   H8        1.0  0.4382399999999996  0.9264800000000002  0.8196800000000002  1.0000
  H   H9        1.0  0.6622299999999999  0.9377000000000002  0.7181200000000002  1.0000
  H   H10       1.0  0.60661  0.9222400000000001  0.6562  1.0000
  H   H11       1.0  0.5353199999999999  0.9499900000000002  0.8465100000000001  1.0000
  H   H12       1.0  0.60749  0.9738400000000001  0.8052900000000002  1.0000
  H   H13       1.0  0.8067399999999999  0.8806900000000002  0.65038  1.0000
  H   H14       1.0  0.9015399999999999  0.9230100000000002  0.66117  1.0000
  H   H15       1.0  0.9556799999999995  0.9751800000000003  0.5978400000000003  1.0000
  H   H16       1.0  0.9104800000000001  0.98601  0.52506  1.0000
  H   H17       1.0  0.62236  0.95705  0.4059200000000001  1.0000
  H   H18       1.0  0.7195399999999998  0.9264500000000002  0.37215  1.0000
  H   H19       1.0  0.58073  0.8812400000000002  0.42116  1.0000
  H   H20       1.0  0.6118599999999998  0.89457  0.36046  1.0000
  H   H21       1.0  0.6785400000000001  0.85046  0.38587000000000005  1.0000
  H   H22       1.0  0.011640000000000001  0.07706  0.68948  1.0000
  H   H23       1.0  0.9969899999999997  0.08312  0.7744300000000002  1.0000
  H   H24       1.0  0.11181999999999988  0.03794  0.8073300000000002  1.0000
  H   H25       1.0  0.23955000000000012  0.98936  0.75393  1.0000
  H   H26       1.0  0.48070000000000007  0.91329  0.50096  1.0000
  H   H27       1.0  0.46704  0.87042  0.5444900000000001  1.0000
  H   H28       1.0  0.3699399999999999  0.8490900000000002  0.50838  1.0000
  H   H29       1.0  0.4683  0.8420500000000001  0.46799  1.0000
  H   H30       1.0  0.38522999999999996  0.89181  0.46419  1.0000
  H   H31       1.0  0.7861600000000002  0.84187  0.9379  1.0000
  H   H32       1.0  0.73844  0.83137  0.87045  1.0000
  H   H33       1.0  0.6428999999999999  0.9821200000000002  0.8657  1.0000
  H   H34       1.0  0.6948900000000001  0.98605  0.93341  1.0000
  H   H35       1.0  0.7065100000000001  0.89329  0.7892700000000001  1.0000
  H   H36       1.0  0.63365  0.8688600000000002  0.82771  1.0000
  H   H37       1.0  0.8813899999999998  0.71573  0.7976100000000003  1.0000
  H   H38       1.0  0.88394  0.7972300000000001  0.80752  1.0000
  H   H39       1.0  0.9537399999999998  0.8130800000000002  0.8635200000000002  1.0000
  H   H40       1.0  0.01667999999999989  0.74786  0.9089900000000002  1.0000
  H   H41       1.0  0.1479699999999999  0.50507  0.9699000000000002  1.0000
  H   H42       1.0  0.13492999999999988  0.4637100000000001  0.93117  1.0000
  H   H43       1.0  0.05753999999999974  0.5873500000000003  0.7465800000000002  1.0000
  H   H44       1.0  0.18444999999999992  0.57363  0.6803400000000002  1.0000
  H   H45       1.0  0.31832  0.56226  0.78188  1.0000
  H   H46       1.0  0.1856099999999999  0.5773800000000001  0.84383  1.0000
  H   H47       1.0  0.3317999999999999  0.5499700000000001  0.65348  1.0000
  H   H48       1.0  0.38664000000000004  0.52617  0.6946900000000003  1.0000
  H   H49       1.0  0.33745999999999987  0.61916  0.8496600000000002  1.0000
  H   H50       1.0  0.48549  0.5772  0.83881  1.0000
  H   H51       1.0  0.52875  0.5251100000000002  0.90211  1.0000
  H   H52       1.0  0.4219999999999999  0.5139  0.9748100000000002  1.0000
  H   H53       1.0  0.9864899999999999  0.54261  0.09373000000000002  1.0000
  H   H54       1.0  0.01929000000000006  0.57317  0.1277  1.0000
  H   H55       1.0  0.8839299999999999  0.6182000000000002  0.07890000000000001  1.0000
  H   H56       1.0  0.86792  0.60488  0.13957000000000003  1.0000
  H   H57       1.0  0.9157199999999998  0.6490800000000002  0.11413000000000002  1.0000
  H   H58       1.0  0.77819  0.4229000000000001  0.8103200000000003  1.0000
  H   H59       1.0  0.8540300000000004  0.41699000000000014  0.72522  1.0000
  H   H60       1.0  0.9576  0.46163  0.6924400000000003  1.0000
  H   H61       1.0  0.9835900000000001  0.5101800000000001  0.74578  1.0000
  H   H62       1.0  0.8952500000000001  0.5868  0.9987900000000002  1.0000
  H   H63       1.0  0.8820599999999997  0.6297300000000002  0.9553500000000003  1.0000
  H   H64       1.0  0.72768  0.65073  0.99139  1.0000
  H   H65       1.0  0.7783299999999999  0.65784  0.03193  1.0000
  H   H66       1.0  0.7416599999999999  0.6078800000000002  0.03546  1.0000
  H   H67       1.0  0.56634  0.65808  0.5621400000000002  1.0000
  H   H68       1.0  0.44057000000000013  0.66861  0.62942  1.0000
  H   H69       1.0  0.4907699999999997  0.5178600000000001  0.6343500000000002  1.0000
  H   H70       1.0  0.61448  0.51388  0.5667600000000003  1.0000
  H   H71       1.0  0.38937  0.60674  0.71062  1.0000
  H   H72       1.0  0.3305599999999999  0.6311300000000001  0.6721200000000002  1.0000
  H   H73       1.0  0.67966  0.70233  0.7161800000000001  1.0000
  H   H74       1.0  0.6924999999999999  0.6919800000000003  0.7976000000000002  1.0000
  H   H75       1.0  0.81828  0.6358700000000002  0.8131500000000003  1.0000
  H   H76       1.0  0.9264599999999995  0.5906700000000003  0.74766  1.0000
  H   H77       1.0  0.11718999999999997  0.53034  0.50487  1.0000
  H   H78       1.0  0.06534999999999995  0.5690200000000001  0.46351  1.0000
  H   H79       1.0  0.80438  0.75336  0.58703  1.0000
  H   H80       1.0  0.8651299999999997  0.8196400000000001  0.5735000000000002  1.0000
  H   H81       1.0  0.1003299999999999  0.7181600000000002  0.56216  1.0000
  H   H82       1.0  0.029499999999999946  0.65616  0.57709  1.0000
  H   H83       1.0  0.98541  0.84654  0.5500600000000001  1.0000
  H   H84       1.0  0.08147999999999994  0.80545  0.52624  1.0000
  H   H85       1.0  0.18715999999999988  0.6504000000000002  0.61915  1.0000
  H   H86       1.0  0.3244100000000002  0.6611700000000003  0.57724  1.0000
  H   H87       1.0  0.4308  0.5978700000000001  0.52516  1.0000
  H   H88       1.0  0.39636000000000005  0.52522  0.5139600000000001  1.0000
  H   H89       1.0  0.0802299999999999  0.4056000000000001  0.54231  1.0000
  H   H90       1.0  0.14676999999999987  0.37230000000000013  0.5731800000000001  1.0000
  H   H91       1.0  0.96275  0.42086  0.61817  1.0000
  H   H92       1.0  0.007479999999999959  0.36015  0.6048300000000001  1.0000
  H   H93       1.0  0.03006999999999995  0.38573000000000013  0.64891  1.0000
  H   H94       1.0  0.5888800000000001  0.6891700000000001  0.42294  1.0000
  H   H95       1.0  0.5797700000000002  0.77423  0.41676  1.0000
  H   H96       1.0  0.6495899999999999  0.8073100000000002  0.4618000000000001  1.0000
  H   H97       1.0  0.7282899999999998  0.7542400000000002  0.51075  1.0000
  H   H98       1.0  0.8938799999999999  0.50101  0.5867300000000002  1.0000
  H   H99       1.0  0.8378699999999998  0.5443000000000001  0.6298900000000001  1.0000
  H   H100      1.0  0.71919  0.50827  0.6509800000000001  1.0000
  H   H101      1.0  0.8104200000000003  0.4678200000000001  0.65807  1.0000
  H   H102      1.0  0.7771599999999999  0.46423  0.60817  1.0000
  H   H103      1.0  0.12861999999999985  0.9379700000000002  0.65807  1.0000
  H   H104      1.0  0.07000999999999989  0.87068  0.66864  1.0000
  H   H105      1.0  0.12501999999999974  0.8658400000000003  0.51787  1.0000
  H   H106      1.0  0.18143999999999996  0.9333500000000001  0.51385  1.0000
  H   H107      1.0  0.10003999999999998  0.78948  0.60685  1.0000
  H   H108      1.0  0.0027499999999997366  0.8278800000000002  0.6312100000000003  1.0000
  H   H109      1.0  0.09764999999999985  0.7976700000000002  0.78396  1.0000
  H   H110      1.0  0.18148000000000014  0.80775  0.70246  1.0000
  H   H111      1.0  0.2671699999999999  0.86369  0.68676  1.0000
  H   H112      1.0  0.26496  0.9091  0.7520700000000001  1.0000
  H   H113      1.0  0.1520499999999997  0.9700200000000002  0.99478  1.0000
  H   H114      1.0  0.09836000000000007  0.93118  0.03636000000000001  1.0000
  H   H115      1.0  0.14483999999999989  0.7465200000000002  0.91274  1.0000
  H   H116      1.0  0.2581399999999999  0.6803  0.92645  1.0000
  H   H117      1.0  0.38056999999999996  0.78192  0.9377800000000002  1.0000
  H   H118      1.0  0.26283999999999985  0.84383  0.9227000000000002  1.0000
  H   H119      1.0  0.38189999999999996  0.65347  0.9499300000000003  1.0000
  H   H120      1.0  0.41305999999999976  0.6946200000000002  0.9737800000000002  1.0000
  H   H121      1.0  0.4557399999999999  0.84982  0.88072  1.0000
  H   H122      1.0  0.5620599999999999  0.8389500000000002  0.9225000000000002  1.0000
  H   H123      1.0  0.5534  0.9020500000000001  0.9747600000000002  1.0000
  H   H124      1.0  0.43564  0.9748500000000002  0.9859100000000002  1.0000
  H   H125      1.0  0.027550000000000015  0.09462000000000002  0.95794  1.0000
  H   H126      1.0  0.09164999999999993  0.128  0.9271700000000003  1.0000
  H   H127      1.0  0.0015400000000000164  0.07917  0.88203  1.0000
  H   H128      1.0  0.9723699999999997  0.13992  0.8950700000000001  1.0000
  H   H129      1.0  0.06465000000000001  0.11420000000000002  0.85126  1.0000
  H   H130      1.0  0.7012399999999999  0.8103200000000003  0.07697  1.0000
  H   H131      1.0  0.7711100000000001  0.72527  0.08317  1.0000
  H   H132      1.0  0.9189799999999999  0.69238  0.03822  1.0000
  H   H133      1.0  0.9935299999999999  0.7456  0.98956  1.0000
  H   H134      1.0  0.98155  0.99905  0.91317  1.0000
  H   H135      1.0  0.011619999999999818  0.9557100000000002  0.87014  1.0000
  H   H136      1.0  0.87814  0.9918400000000002  0.8489200000000001  1.0000
  H   H137      1.0  0.93624  0.03218  0.84201  1.0000
  H   H138      1.0  0.8494499999999999  0.03584  0.8917900000000002  1.0000
  H   H139      1.0  0.7241799999999999  0.56213  0.8418  1.0000
  H   H140      1.0  0.6089899999999997  0.62945  0.83132  1.0000
  H   H141      1.0  0.5088699999999999  0.63405  0.98212  1.0000
  H   H142      1.0  0.6286  0.56647  0.98599  1.0000
  H   H143      1.0  0.4962500000000001  0.7105900000000003  0.89323  1.0000
  H   H144      1.0  0.4616799999999998  0.6722100000000002  0.8688  1.0000
  H   H145      1.0  0.60568  0.21613000000000004  0.29757  1.0000
  H   H146      1.0  0.51165  0.2975200000000001  0.30717  1.0000
  H   H147      1.0  0.37010999999999983  0.3133200000000001  0.36309000000000013  1.0000
  H   H148      1.0  0.32689999999999997  0.24803  0.40863  1.0000
  H   H149      1.0  0.37722000000000006  0.00571  0.46999000000000013  1.0000
  H   H150      1.0  0.46962  0.9640000000000002  0.4312700000000001  1.0000
  H   H151      1.0  0.6086400000000001  0.08762  0.24654  1.0000
  H   H152      1.0  0.5617599999999998  0.07352  0.18033000000000005  1.0000
  H   H153      1.0  0.33777000000000007  0.062300000000000015  0.28189  1.0000
  H   H154      1.0  0.3933900000000001  0.07776000000000002  0.3438  1.0000
  H   H155      1.0  0.4646899999999998  0.05001000000000001  0.15350000000000005  1.0000
  H   H156      1.0  0.39251  0.02616  0.19471  1.0000
  H   H157      1.0  0.19326999999999997  0.11931000000000001  0.3496200000000001  1.0000
  H   H158      1.0  0.09847000000000004  0.07699  0.33883  1.0000
  H   H159      1.0  0.04433000000000002  0.024820000000000005  0.40216  1.0000
  H   H160      1.0  0.08952000000000002  0.013989999999999999  0.47494  1.0000
  H   H161      1.0  0.37765  0.04296000000000001  0.59408  1.0000
  H   H162      1.0  0.28047  0.07355  0.62785  1.0000
  H   H163      1.0  0.41928  0.11876  0.5788400000000002  1.0000
  H   H164      1.0  0.3881499999999999  0.10543000000000002  0.6395400000000002  1.0000
  H   H165      1.0  0.32147  0.14954000000000006  0.61413  1.0000
  H   H166      1.0  0.98837  0.9229400000000002  0.31052  1.0000
  H   H167      1.0  0.0030199999999999563  0.9168800000000003  0.22557  1.0000
  H   H168      1.0  0.8881899999999999  0.96206  0.19268  1.0000
  H   H169      1.0  0.7604500000000001  0.010640000000000002  0.24607000000000004  1.0000
  H   H170      1.0  0.5193  0.08672000000000003  0.49904  1.0000
  H   H171      1.0  0.5329700000000002  0.12958  0.45551  1.0000
  H   H172      1.0  0.63007  0.15091  0.4916200000000001  1.0000
  H   H173      1.0  0.5317099999999999  0.15795000000000006  0.5320100000000001  1.0000
  H   H174      1.0  0.61478  0.10819  0.53581  1.0000
  H   H175      1.0  0.21384000000000003  0.15813000000000005  0.062100000000000016  1.0000
  H   H176      1.0  0.26156  0.16863  0.12955000000000003  1.0000
  H   H177      1.0  0.35711  0.01788  0.1343  1.0000
  H   H178      1.0  0.30511  0.01395  0.06659  1.0000
  H   H179      1.0  0.2935  0.10671000000000003  0.21073000000000006  1.0000
  H   H180      1.0  0.36636000000000013  0.13114  0.17229  1.0000
  H   H181      1.0  0.11861000000000001  0.28427  0.20239  1.0000
  H   H182      1.0  0.11606999999999992  0.20277000000000006  0.19248000000000007  1.0000
  H   H183      1.0  0.046259999999999975  0.18693000000000007  0.13649  1.0000
  H   H184      1.0  0.9833300000000001  0.25214  0.09101  1.0000
  H   H185      1.0  0.8520400000000002  0.49493  0.030100000000000005  1.0000
  H   H186      1.0  0.8650800000000003  0.5363  0.06883000000000002  1.0000
  H   H187      1.0  0.9424599999999999  0.41265  0.25343  1.0000
  H   H188      1.0  0.8155600000000002  0.42638  0.31967  1.0000
  H   H189      1.0  0.6816899999999999  0.43774000000000013  0.21812000000000006  1.0000
  H   H190      1.0  0.8144  0.4226200000000001  0.15617000000000006  1.0000
  H   H191      1.0  0.66821  0.45003  0.34652  1.0000
  H   H192      1.0  0.61337  0.4738300000000001  0.30532000000000004  1.0000
  H   H193      1.0  0.66254  0.38084  0.15034  1.0000
  H   H194      1.0  0.5145100000000001  0.4228  0.16119000000000006  1.0000
  H   H195      1.0  0.47124999999999995  0.47489  0.09789000000000003  1.0000
  H   H196      1.0  0.57801  0.4861  0.025190000000000008  1.0000
  H   H197      1.0  0.013519999999999822  0.4574  0.9062700000000002  1.0000
  H   H198      1.0  0.98071  0.42683  0.8723  1.0000
  H   H199      1.0  0.11607999999999997  0.3818  0.92111  1.0000
  H   H200      1.0  0.13208999999999996  0.39512  0.8604300000000001  1.0000
  H   H201      1.0  0.08427999999999983  0.35092  0.8858800000000002  1.0000
  H   H202      1.0  0.2218199999999999  0.5771100000000002  0.18968000000000004  1.0000
  H   H203      1.0  0.14597  0.58301  0.27478  1.0000
  H   H204      1.0  0.04240999999999989  0.5383700000000001  0.30756  1.0000
  H   H205      1.0  0.016419999999999924  0.48982000000000003  0.25422000000000006  1.0000
  H   H206      1.0  0.10476000000000002  0.4132  0.00121  1.0000
  H   H207      1.0  0.11794999999999989  0.3702700000000001  0.04465000000000001  1.0000
  H   H208      1.0  0.27232999999999996  0.34927000000000014  0.008620000000000001  1.0000
  H   H209      1.0  0.2216799999999999  0.34216  0.9680700000000002  1.0000
  H   H210      1.0  0.2583500000000001  0.39212  0.96454  1.0000
  H   H211      1.0  0.43368  0.34192  0.43786000000000014  1.0000
  H   H212      1.0  0.55944  0.33139  0.37058  1.0000
  H   H213      1.0  0.5092399999999999  0.48214  0.3656500000000001  1.0000
  H   H214      1.0  0.38553000000000004  0.4861200000000001  0.43324  1.0000
  H   H215      1.0  0.61064  0.3932600000000001  0.28938  1.0000
  H   H216      1.0  0.66944  0.36888  0.3278800000000001  1.0000
  H   H217      1.0  0.32033999999999985  0.2976700000000001  0.28384000000000004  1.0000
  H   H218      1.0  0.3075  0.30802  0.20242000000000004  1.0000
  H   H219      1.0  0.18171999999999994  0.3641300000000001  0.18688000000000005  1.0000
  H   H220      1.0  0.0735399999999999  0.4093300000000001  0.25236000000000003  1.0000
  H   H221      1.0  0.8828300000000001  0.46966000000000013  0.49514  1.0000
  H   H222      1.0  0.9346299999999997  0.4309800000000001  0.53652  1.0000
  H   H223      1.0  0.1956299999999999  0.24664000000000005  0.4129800000000001  1.0000
  H   H224      1.0  0.13488000000000006  0.18036000000000005  0.42650000000000005  1.0000
  H   H225      1.0  0.89968  0.28184  0.4378400000000001  1.0000
  H   H226      1.0  0.97051  0.34384  0.42291  1.0000
  H   H227      1.0  0.014589999999999914  0.15346  0.4499500000000001  1.0000
  H   H228      1.0  0.91853  0.19455000000000006  0.4737600000000001  1.0000
  H   H229      1.0  0.8128399999999999  0.3496  0.38086  1.0000
  H   H230      1.0  0.67559  0.33883  0.4227700000000001  1.0000
  H   H231      1.0  0.5692000000000002  0.4021300000000001  0.47484  1.0000
  H   H232      1.0  0.6036399999999998  0.4747900000000001  0.4860500000000001  1.0000
  H   H233      1.0  0.9197800000000002  0.59441  0.4576900000000001  1.0000
  H   H234      1.0  0.8532300000000002  0.62771  0.4268200000000001  1.0000
  H   H235      1.0  0.037250000000000026  0.5791500000000002  0.38184  1.0000
  H   H236      1.0  0.99253  0.6398600000000002  0.39517000000000013  1.0000
  H   H237      1.0  0.9699300000000001  0.61427  0.35109  1.0000
  H   H238      1.0  0.41114999999999985  0.3108500000000001  0.5770500000000002  1.0000
  H   H239      1.0  0.42027000000000014  0.22578  0.58324  1.0000
  H   H240      1.0  0.35043000000000013  0.19269  0.53823  1.0000
  H   H241      1.0  0.27171  0.24575  0.48928  1.0000
  H   H242      1.0  0.10612000000000005  0.49898  0.41328  1.0000
  H   H243      1.0  0.16215000000000002  0.45568  0.37012  1.0000
  H   H244      1.0  0.28082  0.4917200000000001  0.3490200000000001  1.0000
  H   H245      1.0  0.18957999999999992  0.5321700000000001  0.34194  1.0000
  H   H246      1.0  0.22284  0.53576  0.39183  1.0000
  H   H247      1.0  0.8713900000000001  0.062030000000000016  0.3419300000000001  1.0000
  H   H248      1.0  0.93  0.12932000000000002  0.3313600000000001  1.0000
  H   H249      1.0  0.87498  0.13416  0.4821300000000001  1.0000
  H   H250      1.0  0.8185599999999998  0.06665  0.4861500000000001  1.0000
  H   H251      1.0  0.8999600000000001  0.21052000000000007  0.3931500000000001  1.0000
  H   H252      1.0  0.9972599999999999  0.17212000000000005  0.3687900000000001  1.0000
  H   H253      1.0  0.9023599999999999  0.20233000000000004  0.21605000000000005  1.0000
  H   H254      1.0  0.8185300000000001  0.19225  0.29754  1.0000
  H   H255      1.0  0.7328299999999999  0.13631  0.3132500000000001  1.0000
  H   H256      1.0  0.7350399999999999  0.09091000000000003  0.24794000000000002  1.0000
  H   H257      1.0  0.84795  0.02997  0.00523  1.0000
  H   H258      1.0  0.9016400000000001  0.06882  0.96365  1.0000
  H   H259      1.0  0.8551700000000001  0.25348  0.08726000000000003  1.0000
  H   H260      1.0  0.74186  0.3197  0.07355  1.0000
  H   H261      1.0  0.6194300000000001  0.21808000000000005  0.06222  1.0000
  H   H262      1.0  0.7371600000000003  0.15617000000000006  0.07731  1.0000
  H   H263      1.0  0.61811  0.34653  0.05007000000000002  1.0000
  H   H264      1.0  0.58695  0.30538  0.026220000000000007  1.0000
  H   H265      1.0  0.54427  0.15018000000000006  0.11928  1.0000
  H   H266      1.0  0.43794  0.16105  0.0775  1.0000
  H   H267      1.0  0.4466100000000001  0.09796  0.02524  1.0000
  H   H268      1.0  0.56436  0.025150000000000002  0.01409  1.0000
  H   H269      1.0  0.9724399999999996  0.9053900000000003  0.042060000000000014  1.0000
  H   H270      1.0  0.9083599999999998  0.872  0.07284  1.0000
  H   H271      1.0  0.99847  0.9208400000000002  0.11798000000000003  1.0000
  H   H272      1.0  0.027640000000000012  0.8600900000000001  0.10493  1.0000
  H   H273      1.0  0.9353599999999996  0.8858000000000003  0.14875000000000005  1.0000
  H   H274      1.0  0.29876  0.18968  0.92304  1.0000
  H   H275      1.0  0.22888000000000008  0.27473  0.91683  1.0000
  H   H276      1.0  0.08100999999999997  0.30762  0.9617800000000001  1.0000
  H   H277      1.0  0.00646999999999998  0.25440000000000007  0.01045  1.0000
  H   H278      1.0  0.018450000000000005  0.00095  0.08684  1.0000
  H   H279      1.0  0.9883800000000001  0.04429000000000001  0.12987000000000004  1.0000
  H   H280      1.0  0.12185999999999997  0.00816  0.15108000000000005  1.0000
  H   H281      1.0  0.06376999999999998  0.96782  0.15799  1.0000
  H   H282      1.0  0.15056  0.9641600000000001  0.10821000000000003  1.0000
  H   H283      1.0  0.27583  0.43787  0.1582  1.0000
  H   H284      1.0  0.3910199999999999  0.3705500000000001  0.16868  1.0000
  H   H285      1.0  0.49114  0.36595  0.01788  1.0000
  H   H286      1.0  0.37141  0.4335300000000001  0.014010000000000002  1.0000
  H   H287      1.0  0.50375  0.28941  0.10677000000000003  1.0000
  H   H288      1.0  0.53833  0.32779  0.1312  1.0000
  C   C1        1.0  0.4799199999999999  0.81437  0.65299  1.0000
  C   C2        1.0  0.4556599999999999  0.77619  0.6782400000000001  1.0000
  C   C3        1.0  0.5084899999999997  0.7310000000000002  0.67248  1.0000
  C   C4        1.0  0.58758  0.72179  0.64111  1.0000
  C   C5        1.0  0.6122699999999999  0.75863  0.6158200000000001  1.0000
  C   C6        1.0  0.5604099999999997  0.80515  0.6208600000000002  1.0000
  C   C7        1.0  0.5922799999999999  0.8415600000000001  0.5930800000000003  1.0000
  C   C8        1.0  0.53907  0.96327  0.5832900000000002  1.0000
  C   C9        1.0  0.56678  0.00030999999999999995  0.5586700000000001  1.0000
  C   C10       1.0  0.4511399999999999  0.9179800000000002  0.74714  1.0000
  C   C11       1.0  0.4778599999999999  0.9260700000000002  0.78408  1.0000
  C   C12       1.0  0.55462  0.9337  0.77477  1.0000
  C   C13       1.0  0.6018699999999995  0.9321000000000003  0.7278000000000002  1.0000
  C   C14       1.0  0.5708699999999999  0.92368  0.69287  1.0000
  C   C15       1.0  0.58557  0.9425700000000002  0.8138  1.0000
  C   C16       1.0  0.8056999999999999  0.9091200000000003  0.58204  1.0000
  C   C17       1.0  0.8301400000000002  0.9040800000000002  0.62349  1.0000
  C   C18       1.0  0.8831100000000001  0.92771  0.62908  1.0000
  C   C19       1.0  0.9134100000000005  0.9572300000000001  0.59366  1.0000
  C   C20       1.0  0.88879  0.96311  0.55309  1.0000
  C   C21       1.0  0.8351299999999998  0.9396200000000002  0.54642  1.0000
  C   C22       1.0  0.8111200000000002  0.94839  0.50294  1.0000
  C   C23       1.0  0.6975099999999999  0.9135000000000001  0.4450600000000001  1.0000
  C   C24       1.0  0.6682499999999999  0.9224200000000002  0.40196000000000004  1.0000
  C   C25       1.0  0.6328999999999999  0.8849400000000002  0.39188  1.0000
  C   C26       1.0  0.13343999999999986  0.030510000000000006  0.6734900000000003  1.0000
  C   C27       1.0  0.06094000000000008  0.058270000000000016  0.70432  1.0000
  C   C28       1.0  0.05334000000000002  0.061100000000000015  0.75169  1.0000
  C   C29       1.0  0.11753999999999998  0.03625  0.77022  1.0000
  C   C30       1.0  0.18921999999999997  0.00902  0.74038  1.0000
  C   C31       1.0  0.19887999999999986  0.00517  0.6921200000000002  1.0000
  C   C32       1.0  0.27454999999999985  0.9735300000000002  0.6637500000000002  1.0000
  C   C33       1.0  0.3639899999999998  0.9299400000000002  0.55125  1.0000
  C   C34       1.0  0.43665999999999977  0.8946600000000002  0.52133  1.0000
  C   C35       1.0  0.41356999999999994  0.86794  0.4884300000000001  1.0000
  C   C36       1.0  0.7540000000000001  0.8720600000000002  0.92086  1.0000
  C   C37       1.0  0.72734  0.8665300000000001  0.8830400000000003  1.0000
  C   C38       1.0  0.6858799999999998  0.90605  0.8619100000000002  1.0000
  C   C39       1.0  0.67462  0.9499200000000002  0.8801600000000002  1.0000
  C   C40       1.0  0.7030699999999995  0.9525800000000002  0.9181400000000001  1.0000
  C   C41       1.0  0.6549699999999995  0.9003900000000002  0.8215700000000002  1.0000
  C   C42       1.0  0.9479699999999999  0.68533  0.8471000000000002  1.0000
  C   C43       1.0  0.9107599999999998  0.7234700000000002  0.82186  1.0000
  C   C44       1.0  0.9124499999999994  0.7687000000000003  0.8277500000000002  1.0000
  C   C45       1.0  0.9508900000000001  0.77795  0.8591900000000002  1.0000
  C   C46       1.0  0.9871699999999992  0.74112  0.88444  1.0000
  C   C47       1.0  0.98696  0.6945900000000002  0.8793  1.0000
  C   C48       1.0  0.02727999999999995  0.65822  0.9071200000000003  1.0000
  C   C49       1.0  0.08523999999999993  0.53652  0.91724  1.0000
  C   C50       1.0  0.12596999999999997  0.4993200000000001  0.94141  1.0000
  C   C51       1.0  0.1165699999999999  0.58177  0.7529200000000003  1.0000
  C   C52       1.0  0.18817000000000003  0.5739  0.71594  1.0000
  C   C53       1.0  0.2632700000000001  0.56627  0.72522  1.0000
  C   C54       1.0  0.26205999999999985  0.56779  0.7722  1.0000
  C   C55       1.0  0.18785  0.57601  0.80716  1.0000
  C   C56       1.0  0.34201999999999994  0.5574300000000001  0.68617  1.0000
  C   C57       1.0  0.29697000000000007  0.5907500000000001  0.91798  1.0000
  C   C58       1.0  0.35763000000000006  0.5958000000000001  0.87648  1.0000
  C   C59       1.0  0.43981999999999977  0.5723300000000002  0.8708600000000002  1.0000
  C   C60       1.0  0.46432999999999996  0.5428500000000002  0.9062800000000002  1.0000
  C   C61       1.0  0.40518999999999994  0.53681  0.9468400000000002  1.0000
  C   C62       1.0  0.32138999999999984  0.56021  0.95355  1.0000
  C   C63       1.0  0.2627099999999999  0.55144  0.99704  1.0000
  C   C64       1.0  0.056690000000000004  0.5864  0.05493  1.0000
  C   C65       1.0  0.9935499999999999  0.57725  0.09796000000000003  1.0000
  C   C66       1.0  0.91062  0.61456  0.10815000000000002  1.0000
  C   C67       1.0  0.8372799999999999  0.4696  0.82619  1.0000
  C   C68       1.0  0.8234199999999998  0.44175  0.7953600000000002  1.0000
  C   C69       1.0  0.8660400000000001  0.43883  0.7480000000000002  1.0000
  C   C70       1.0  0.9243199999999998  0.46346  0.7295200000000002  1.0000
  C   C71       1.0  0.9390400000000001  0.49070000000000014  0.7593600000000003  1.0000
  C   C72       1.0  0.8962999999999998  0.49480000000000013  0.8075800000000001  1.0000
  C   C73       1.0  0.9119399999999998  0.5264500000000001  0.8360100000000003  1.0000
  C   C74       1.0  0.8452199999999999  0.5701000000000003  0.9485000000000002  1.0000
  C   C75       1.0  0.8528900000000004  0.60538  0.9784400000000002  1.0000
  C   C76       1.0  0.7702  0.63192  0.01136  1.0000
  C   C77       1.0  0.5471999999999999  0.6279  0.5791500000000003  1.0000
  C   C78       1.0  0.47717000000000004  0.63344  0.6169  1.0000
  C   C79       1.0  0.4540200000000001  0.59392  0.63803  1.0000
  C   C80       1.0  0.5048400000000003  0.55004  0.61987  1.0000
  C   C81       1.0  0.5739200000000001  0.5473700000000001  0.58193  1.0000
  C   C82       1.0  0.37715  0.59961  0.67834  1.0000
  C   C83       1.0  0.7956300000000001  0.6528900000000002  0.6855  1.0000
  C   C84       1.0  0.7333199999999999  0.678  0.7237600000000001  1.0000
  C   C85       1.0  0.7410799999999998  0.67186  0.76895  1.0000
  C   C86       1.0  0.81093  0.64034  0.77806  1.0000
  C   C87       1.0  0.8723200000000001  0.6152700000000001  0.74111  1.0000
  C   C88       1.0  0.8668199999999999  0.62064  0.6946200000000001  1.0000
  C   C89       1.0  0.9348700000000001  0.5929700000000002  0.65814  1.0000
  C   C90       1.0  0.002199999999999839  0.5831400000000002  0.5363300000000002  1.0000
  C   C91       1.0  0.06676999999999988  0.5588400000000001  0.4991100000000001  1.0000
  C   C92       1.0  0.8696999999999998  0.7470600000000002  0.5815500000000001  1.0000
  C   C93       1.0  0.90437  0.7840400000000002  0.57379  1.0000
  C   C94       1.0  0.98869  0.77479  0.56624  1.0000
  C   C95       1.0  0.034419999999999756  0.7278100000000002  0.5676900000000002  1.0000
  C   C96       1.0  0.9951399999999999  0.69284  0.5758000000000002  1.0000
  C   C97       1.0  0.028330000000000022  0.81388  0.5575  1.0000
  C   C98       1.0  0.21463999999999994  0.5820800000000003  0.59073  1.0000
  C   C99       1.0  0.234  0.62354  0.5958  1.0000
  C   C100      1.0  0.31065999999999977  0.6291300000000002  0.57238  1.0000
  C   C101      1.0  0.3705199999999998  0.5937200000000002  0.54293  1.0000
  C   C102      1.0  0.3517799999999998  0.5531900000000001  0.53689  1.0000
  C   C103      1.0  0.27464000000000016  0.54649  0.56025  1.0000
  C   C104      1.0  0.25954000000000005  0.50299  0.5513700000000001  1.0000
  C   C105      1.0  0.11099999999999997  0.44518000000000013  0.58604  1.0000
  C   C106      1.0  0.09124000000000002  0.40191000000000004  0.57703  1.0000
  C   C107      1.0  0.018679999999999888  0.3916400000000001  0.6144700000000002  1.0000
  C   C108      1.0  0.6639100000000001  0.6734600000000002  0.46964000000000006  1.0000
  C   C109      1.0  0.6191399999999999  0.70418  0.44177  1.0000
  C   C110      1.0  0.6143  0.75156  0.4387800000000001  1.0000
  C   C111      1.0  0.6536099999999999  0.7702  0.46359  1.0000
  C   C112      1.0  0.6979099999999999  0.74049  0.4910200000000001  1.0000
  C   C113      1.0  0.7039099999999997  0.6922100000000002  0.49499000000000004  1.0000
  C   C114      1.0  0.7482099999999999  0.66384  0.52658  1.0000
  C   C115      1.0  0.7938599999999999  0.55137  0.5703600000000002  1.0000
  C   C116      1.0  0.8314000000000001  0.52133  0.6055700000000002  1.0000
  C   C117      1.0  0.7816399999999998  0.4883600000000001  0.6321600000000003  1.0000
  C   C118      1.0  0.1265  0.9209600000000001  0.62789  1.0000
  C   C119      1.0  0.09413999999999982  0.8832100000000003  0.6334600000000002  1.0000
  C   C120      1.0  0.0920799999999999  0.8620800000000002  0.5939600000000003  1.0000
  C   C121      1.0  0.12471999999999996  0.8802700000000002  0.5500600000000001  1.0000
  C   C122      1.0  0.15599999999999994  0.91819  0.54736  1.0000
  C   C123      1.0  0.05553999999999999  0.82172  0.59969  1.0000
  C   C124      1.0  0.13378000000000007  0.84714  0.81441  1.0000
  C   C125      1.0  0.13469000000000014  0.82195  0.77623  1.0000
  C   C126      1.0  0.18150999999999995  0.82794  0.73102  1.0000
  C   C127      1.0  0.22916000000000009  0.85938  0.72187  1.0000
  C   C128      1.0  0.22866999999999993  0.8845700000000002  0.75875  1.0000
  C   C129      1.0  0.18193999999999974  0.8793700000000002  0.80526  1.0000
  C   C130      1.0  0.1856999999999999  0.9071700000000001  0.84173  1.0000
  C   C131      1.0  0.1222599999999997  0.9166200000000002  0.9635300000000002  1.0000
  C   C132      1.0  0.12498999999999988  0.9412200000000002  0.00067  1.0000
  C   C133      1.0  0.1983899999999998  0.75284  0.9182200000000003  1.0000
  C   C134      1.0  0.2621599999999998  0.7159000000000002  0.9261100000000002  1.0000
  C   C135      1.0  0.3296800000000001  0.72522  0.93367  1.0000
  C   C136      1.0  0.3298999999999999  0.7722100000000002  0.9322  1.0000
  C   C137      1.0  0.2638699999999999  0.80714  0.9239800000000002  1.0000
  C   C138      1.0  0.3996099999999998  0.6861500000000003  0.9425000000000002  1.0000
  C   C139      1.0  0.3869999999999999  0.9181600000000002  0.9091600000000002  1.0000
  C   C140      1.0  0.45267000000000013  0.87668  0.90401  1.0000
  C   C141      1.0  0.5115499999999997  0.8710000000000002  0.9274100000000002  1.0000
  C   C142      1.0  0.50674  0.90632  0.95695  1.0000
  C   C143      1.0  0.44162999999999963  0.9468900000000002  0.9630400000000002  1.0000
  C   C144      1.0  0.3810899999999999  0.95369  0.9397000000000001  1.0000
  C   C145      1.0  0.3137899999999997  0.9972200000000002  0.9486600000000002  1.0000
  C   C146      1.0  0.14200999999999986  0.05515  0.9142800000000002  1.0000
  C   C147      1.0  0.06975999999999985  0.09829  0.9232900000000003  1.0000
  C   C148      1.0  0.02460999999999997  0.10840000000000002  0.88569  1.0000
  C   C149      1.0  0.8071300000000002  0.8261200000000001  0.030260000000000002  1.0000
  C   C150      1.0  0.7653399999999999  0.7953800000000002  0.05823  1.0000
  C   C151      1.0  0.8049300000000001  0.74802  0.06125000000000001  1.0000
  C   C152      1.0  0.88769  0.72949  0.0365  1.0000
  C   C153      1.0  0.92965  0.75927  0.00912  1.0000
  C   C154      1.0  0.8912  0.8075000000000002  0.004980000000000002  1.0000
  C   C155      1.0  0.9384900000000002  0.8359500000000001  0.97332  1.0000
  C   C156      1.0  0.9155100000000002  0.9485200000000003  0.92979  1.0000
  C   C157      1.0  0.9580000000000004  0.9786500000000002  0.89449  1.0000
  C   C158      1.0  0.9019499999999998  0.01165  0.8678600000000001  1.0000
  C   C159      1.0  0.675  0.57912  0.8720000000000002  1.0000
  C   C160      1.0  0.61052  0.6168900000000002  0.86649  1.0000
  C   C161      1.0  0.5479599999999999  0.6379700000000003  0.9060300000000002  1.0000
  C   C162      1.0  0.5550200000000001  0.61969  0.94989  1.0000
  C   C163      1.0  0.62144  0.5817500000000001  0.9525200000000001  1.0000
  C   C164      1.0  0.47682999999999987  0.67833  0.9003500000000001  1.0000
  C   C165      1.0  0.52008  0.18563  0.34702000000000005  1.0000
  C   C166      1.0  0.54434  0.22381  0.32176  1.0000
  C   C167      1.0  0.49151000000000006  0.26901  0.32752  1.0000
  C   C168      1.0  0.41243  0.27821  0.35890000000000005  1.0000
  C   C169      1.0  0.38773999999999975  0.24137000000000003  0.38418000000000013  1.0000
  C   C170      1.0  0.4395999999999999  0.19485000000000005  0.37914  1.0000
  C   C171      1.0  0.4077200000000001  0.15844000000000005  0.40692  1.0000
  C   C172      1.0  0.46093  0.03673  0.41671  1.0000
  C   C173      1.0  0.4332200000000001  0.99969  0.4413400000000001  1.0000
  C   C174      1.0  0.54887  0.08202  0.25287  1.0000
  C   C175      1.0  0.52215  0.07393  0.21592000000000006  1.0000
  C   C176      1.0  0.4453900000000002  0.0663  0.22523  1.0000
  C   C177      1.0  0.39812999999999993  0.0679  0.27221  1.0000
  C   C178      1.0  0.4291399999999999  0.07632000000000003  0.3071300000000001  1.0000
  C   C179      1.0  0.41444  0.057430000000000016  0.18620000000000003  1.0000
  C   C180      1.0  0.19431000000000004  0.09088  0.41796  1.0000
  C   C181      1.0  0.16986999999999997  0.09592000000000002  0.3765100000000001  1.0000
  C   C182      1.0  0.11689999999999999  0.07229000000000002  0.37092  1.0000
  C   C183      1.0  0.08659999999999994  0.04277  0.4063400000000001  1.0000
  C   C184      1.0  0.11121999999999996  0.03689  0.4469100000000001  1.0000
  C   C185      1.0  0.16487999999999997  0.06038000000000001  0.4535800000000001  1.0000
  C   C186      1.0  0.1888899999999999  0.05161000000000002  0.4970600000000001  1.0000
  C   C187      1.0  0.30249  0.0865  0.55494  1.0000
  C   C188      1.0  0.3317499999999999  0.07758  0.5980400000000002  1.0000
  C   C189      1.0  0.3670999999999999  0.11506  0.60812  1.0000
  C   C190      1.0  0.8665599999999999  0.9695000000000003  0.32652  1.0000
  C   C191      1.0  0.9390699999999997  0.9417300000000002  0.29568  1.0000
  C   C192      1.0  0.9466600000000002  0.9389  0.24831000000000006  1.0000
  C   C193      1.0  0.88246  0.96375  0.22978  1.0000
  C   C194      1.0  0.8107899999999997  0.9909800000000001  0.25963  1.0000
  C   C195      1.0  0.8011200000000003  0.99483  0.3078900000000001  1.0000
  C   C196      1.0  0.7254500000000002  0.02647  0.3362500000000001  1.0000
  C   C197      1.0  0.6360200000000001  0.07006000000000003  0.4487500000000001  1.0000
  C   C198      1.0  0.56335  0.10534000000000003  0.4786800000000001  1.0000
  C   C199      1.0  0.58643  0.13206  0.51157  1.0000
  C   C200      1.0  0.24601  0.12794000000000003  0.07914  1.0000
  C   C201      1.0  0.27267  0.13347  0.11696000000000002  1.0000
  C   C202      1.0  0.3141300000000001  0.09395000000000003  0.13809  1.0000
  C   C203      1.0  0.32538  0.05008000000000001  0.11984000000000003  1.0000
  C   C204      1.0  0.29694  0.04742  0.08186  1.0000
  C   C205      1.0  0.34503  0.09961000000000003  0.17843000000000003  1.0000
  C   C206      1.0  0.05203999999999997  0.31467  0.15290000000000006  1.0000
  C   C207      1.0  0.08924999999999995  0.27653000000000005  0.17814  1.0000
  C   C208      1.0  0.08754999999999996  0.23130000000000006  0.17225  1.0000
  C   C209      1.0  0.04911  0.22205  0.14082  1.0000
  C   C210      1.0  0.01283999999999999  0.25888  0.11556000000000002  1.0000
  C   C211      1.0  0.013049999999999961  0.3054100000000001  0.12070000000000002  1.0000
  C   C212      1.0  0.9727299999999998  0.34178000000000003  0.09288000000000003  1.0000
  C   C213      1.0  0.9147699999999999  0.46348  0.08276000000000003  1.0000
  C   C214      1.0  0.8740400000000002  0.50068  0.05859  1.0000
  C   C215      1.0  0.88343  0.4182300000000001  0.24708000000000005  1.0000
  C   C216      1.0  0.8118299999999999  0.4261  0.28406  1.0000
  C   C217      1.0  0.7367300000000002  0.4337300000000001  0.27478  1.0000
  C   C218      1.0  0.7379399999999999  0.4322100000000001  0.22780000000000006  1.0000
  C   C219      1.0  0.8121500000000001  0.42399  0.19284  1.0000
  C   C220      1.0  0.65799  0.44257  0.3138300000000001  1.0000
  C   C221      1.0  0.70304  0.4092500000000001  0.08203  1.0000
  C   C222      1.0  0.6423799999999997  0.4042000000000001  0.12352000000000003  1.0000
  C   C223      1.0  0.5601900000000001  0.4276700000000001  0.12914  1.0000
  C   C224      1.0  0.5356700000000001  0.45715  0.09372  1.0000
  C   C225      1.0  0.5948099999999998  0.4631900000000001  0.05316000000000001  1.0000
  C   C226      1.0  0.6786200000000001  0.43979  0.04645  1.0000
  C   C227      1.0  0.7372900000000001  0.44856  0.00296  1.0000
  C   C228      1.0  0.9433100000000002  0.41360000000000013  0.94507  1.0000
  C   C229      1.0  0.006459999999999876  0.4227500000000001  0.9020400000000002  1.0000
  C   C230      1.0  0.08937999999999999  0.38544  0.89186  1.0000
  C   C231      1.0  0.16272999999999996  0.5304  0.17381  1.0000
  C   C232      1.0  0.17657999999999993  0.55825  0.20464  1.0000
  C   C233      1.0  0.13396  0.56117  0.252  1.0000
  C   C234      1.0  0.07567999999999998  0.53655  0.27048000000000005  1.0000
  C   C235      1.0  0.060959999999999924  0.5093  0.24064  1.0000
  C   C236      1.0  0.10370999999999991  0.5052  0.19242  1.0000
  C   C237      1.0  0.08807  0.47355  0.16399000000000005  1.0000
  C   C238      1.0  0.15477999999999997  0.4299  0.0515  1.0000
  C   C239      1.0  0.14711000000000002  0.39462000000000014  0.021560000000000006  1.0000
  C   C240      1.0  0.22980999999999985  0.36808000000000013  0.9886500000000003  1.0000
  C   C241      1.0  0.45281  0.37210000000000004  0.42085000000000006  1.0000
  C   C242      1.0  0.5228299999999999  0.3665600000000001  0.3831000000000001  1.0000
  C   C243      1.0  0.5459899999999999  0.40608  0.3619700000000001  1.0000
  C   C244      1.0  0.49515999999999993  0.44996000000000014  0.38013  1.0000
  C   C245      1.0  0.4260900000000001  0.45263  0.41807  1.0000
  C   C246      1.0  0.6228599999999999  0.4004000000000001  0.32167  1.0000
  C   C247      1.0  0.20437999999999998  0.34710000000000013  0.31452  1.0000
  C   C248      1.0  0.2666899999999999  0.3220000000000001  0.27626000000000006  1.0000
  C   C249      1.0  0.25892999999999994  0.3281400000000001  0.23107000000000005  1.0000
  C   C250      1.0  0.18908000000000003  0.35966  0.22196  1.0000
  C   C251      1.0  0.1276799999999999  0.38474  0.25891  1.0000
  C   C252      1.0  0.13318000000000002  0.37936  0.30540000000000006  1.0000
  C   C253      1.0  0.06513999999999995  0.4070300000000001  0.34189  1.0000
  C   C254      1.0  0.9978  0.4168400000000001  0.46369  1.0000
  C   C255      1.0  0.9332300000000001  0.4411500000000001  0.50091  1.0000
  C   C256      1.0  0.13030999999999993  0.25293  0.4184500000000001  1.0000
  C   C257      1.0  0.09564  0.21595  0.42621  1.0000
  C   C258      1.0  0.011320000000000007  0.22521000000000005  0.43376  1.0000
  C   C259      1.0  0.9655799999999993  0.27219  0.4323100000000001  1.0000
  C   C260      1.0  0.004859999999999883  0.3071600000000001  0.4242000000000001  1.0000
  C   C261      1.0  0.9716700000000001  0.18612  0.4425  1.0000
  C   C262      1.0  0.78537  0.41792  0.40928  1.0000
  C   C263      1.0  0.7660099999999999  0.37646000000000013  0.4042  1.0000
  C   C264      1.0  0.6893500000000002  0.3708700000000001  0.42762  1.0000
  C   C265      1.0  0.6294899999999998  0.40628000000000003  0.4570700000000001  1.0000
  C   C266      1.0  0.64823  0.44681  0.46311000000000013  1.0000
  C   C267      1.0  0.72537  0.4535100000000001  0.43976  1.0000
  C   C268      1.0  0.7404699999999996  0.4970100000000001  0.4486400000000001  1.0000
  C   C269      1.0  0.88901  0.55482  0.41397000000000006  1.0000
  C   C270      1.0  0.9087699999999996  0.5980900000000002  0.42298000000000013  1.0000
  C   C271      1.0  0.9813200000000001  0.6083700000000002  0.3855400000000001  1.0000
  C   C272      1.0  0.33609999999999995  0.3265400000000001  0.53037  1.0000
  C   C273      1.0  0.38089  0.29583  0.55823  1.0000
  C   C274      1.0  0.38573000000000024  0.24845000000000003  0.56123  1.0000
  C   C275      1.0  0.3464099999999999  0.2298  0.5364300000000001  1.0000
  C   C276      1.0  0.3021  0.2595  0.509  1.0000
  C   C277      1.0  0.2961  0.30779  0.50502  1.0000
  C   C278      1.0  0.2518199999999999  0.3361600000000001  0.47344000000000014  1.0000
  C   C279      1.0  0.20613  0.44862  0.42966  1.0000
  C   C280      1.0  0.16861000000000007  0.47866  0.39444  1.0000
  C   C281      1.0  0.21836000000000014  0.51163  0.36784  1.0000
  C   C282      1.0  0.8735100000000003  0.07904000000000003  0.37211000000000005  1.0000
  C   C283      1.0  0.9058599999999999  0.11679000000000003  0.3665400000000001  1.0000
  C   C284      1.0  0.9079199999999998  0.13792  0.40605000000000013  1.0000
  C   C285      1.0  0.87529  0.11973  0.44994  1.0000
  C   C286      1.0  0.8439999999999999  0.08181000000000001  0.4526400000000001  1.0000
  C   C287      1.0  0.94446  0.17828000000000005  0.40031  1.0000
  C   C288      1.0  0.8662200000000001  0.15286  0.18560000000000004  1.0000
  C   C289      1.0  0.8653200000000002  0.17805  0.22378000000000003  1.0000
  C   C290      1.0  0.81849  0.17207  0.26898  1.0000
  C   C291      1.0  0.77085  0.14062  0.27814  1.0000
  C   C292      1.0  0.7713299999999998  0.11544000000000001  0.24126000000000006  1.0000
  C   C293      1.0  0.8180599999999999  0.12063  0.19475  1.0000
  C   C294      1.0  0.8143  0.09284000000000003  0.15828  1.0000
  C   C295      1.0  0.87775  0.08338  0.03648  1.0000
  C   C296      1.0  0.8750100000000002  0.05878  0.99934  1.0000
  C   C297      1.0  0.8016100000000002  0.24716000000000005  0.08178000000000003  1.0000
  C   C298      1.0  0.7378500000000001  0.2841  0.07389000000000001  1.0000
  C   C299      1.0  0.6703300000000001  0.27478  0.06633  1.0000
  C   C300      1.0  0.6701100000000001  0.22779000000000005  0.06780000000000001  1.0000
  C   C301      1.0  0.73613  0.19287  0.07603000000000003  1.0000
  C   C302      1.0  0.6004  0.3138500000000001  0.05751  1.0000
  C   C303      1.0  0.6130000000000001  0.08184  0.09084  1.0000
  C   C304      1.0  0.54733  0.12332000000000003  0.09599  1.0000
  C   C305      1.0  0.48845  0.12901  0.07259000000000003  1.0000
  C   C306      1.0  0.49326  0.09369  0.04305  1.0000
  C   C307      1.0  0.55837  0.053120000000000014  0.03696  1.0000
  C   C308      1.0  0.61891  0.046310000000000004  0.06031  1.0000
  C   C309      1.0  0.68621  0.002780000000000001  0.05134  1.0000
  C   C310      1.0  0.85798  0.94485  0.08574  1.0000
  C   C311      1.0  0.9302399999999997  0.90172  0.07672  1.0000
  C   C312      1.0  0.9753899999999999  0.8916000000000002  0.11432000000000003  1.0000
  C   C313      1.0  0.1928699999999999  0.17388000000000006  0.9697500000000002  1.0000
  C   C314      1.0  0.23465000000000003  0.20462  0.94177  1.0000
  C   C315      1.0  0.19505999999999993  0.25198  0.9387600000000001  1.0000
  C   C316      1.0  0.11230999999999998  0.27051  0.9635  1.0000
  C   C317      1.0  0.07034999999999984  0.24073  0.9908800000000002  1.0000
  C   C318      1.0  0.1088099999999999  0.1925  0.9950300000000002  1.0000
  C   C319      1.0  0.06150999999999998  0.16405000000000006  0.02669  1.0000
  C   C320      1.0  0.08448999999999997  0.05148  0.07022  1.0000
  C   C321      1.0  0.04200999999999999  0.02135  0.10551000000000003  1.0000
  C   C322      1.0  0.09806000000000004  0.98835  0.13214000000000004  1.0000
  C   C323      1.0  0.32500999999999997  0.4208900000000001  0.12800000000000003  1.0000
  C   C324      1.0  0.38948999999999995  0.3831100000000001  0.13351  1.0000
  C   C325      1.0  0.45205  0.36203  0.09397000000000003  1.0000
  C   C326      1.0  0.44499  0.38031000000000004  0.05011  1.0000
  C   C327      1.0  0.37857  0.4182500000000001  0.047480000000000015  1.0000
  C   C328      1.0  0.52318  0.32167  0.09966000000000003  1.0000
  N   N1        1.0  0.54734  0.88695  0.59933  1.0000
  N   N2        1.0  0.5844099999999997  0.9184700000000002  0.5722000000000003  1.0000
  N   N3        1.0  0.49630000000000013  0.91702  0.70209  1.0000
  N   N4        1.0  0.7609599999999999  0.92617  0.4948100000000001  1.0000
  N   N5        1.0  0.74256  0.93833  0.4522000000000001  1.0000
  N   N6        1.0  0.28445999999999994  0.9670500000000002  0.61825  1.0000
  N   N7        1.0  0.3556899999999998  0.9324100000000001  0.5962600000000002  1.0000
  N   N8        1.0  0.7415799999999999  0.91442  0.9386200000000002  1.0000
  N   N9        1.0  0.033839999999999995  0.61281  0.90096  1.0000
  N   N10       1.0  0.07529999999999991  0.5813300000000002  0.92813  1.0000
  N   N11       1.0  0.11583999999999997  0.58256  0.79799  1.0000
  N   N12       1.0  0.18226999999999985  0.5735300000000002  0.005040000000000001  1.0000
  N   N13       1.0  0.1335  0.56132  0.04760000000000002  1.0000
  N   N14       1.0  0.8691799999999998  0.53324  0.8813800000000003  1.0000
  N   N15       1.0  0.8837899999999997  0.5678800000000003  0.90342  1.0000
  N   N16       1.0  0.5948200000000002  0.58553  0.56145  1.0000
  N   N17       1.0  0.9350300000000001  0.59924  0.61276  1.0000
  N   N18       1.0  0.003370000000000013  0.57216  0.5811  1.0000
  N   N19       1.0  0.914  0.7020100000000002  0.58233  1.0000
  N   N20       1.0  0.18700999999999998  0.4949900000000001  0.5732900000000002  1.0000
  N   N21       1.0  0.1805599999999999  0.45251000000000013  0.5610400000000002  1.0000
  N   N22       1.0  0.7507899999999998  0.6184700000000002  0.53347  1.0000
  N   N23       1.0  0.7873199999999999  0.5964700000000002  0.56819  1.0000
  N   N24       1.0  0.15646999999999991  0.93867  0.5855  1.0000
  N   N25       1.0  0.1468899999999999  0.90078  0.8870900000000003  1.0000
  N   N26       1.0  0.15654999999999986  0.9278700000000002  0.91875  1.0000
  N   N27       1.0  0.19847999999999977  0.7979000000000003  0.9173800000000002  1.0000
  N   N28       1.0  0.2553899999999999  0.0054800000000000005  0.9265400000000003  1.0000
  N   N29       1.0  0.19447000000000003  0.04802  0.93891  1.0000
  N   N30       1.0  0.9028799999999998  0.8814500000000001  0.9668300000000002  1.0000
  N   N31       1.0  0.9521799999999998  0.9035100000000003  0.9321900000000002  1.0000
  N   N32       1.0  0.6803899999999999  0.56134  0.9143500000000002  1.0000
  N   N33       1.0  0.45267  0.11305  0.40067  1.0000
  N   N34       1.0  0.41558999999999985  0.08154000000000003  0.4278  1.0000
  N   N35       1.0  0.5037099999999999  0.08298  0.29792000000000013  1.0000
  N   N36       1.0  0.23903999999999997  0.07383  0.50519  1.0000
  N   N37       1.0  0.25744999999999996  0.06167000000000001  0.5478  1.0000
  N   N38       1.0  0.7155499999999999  0.03295000000000001  0.38175  1.0000
  N   N39       1.0  0.64431  0.06759  0.40374000000000004  1.0000
  N   N40       1.0  0.25842  0.08558000000000003  0.061380000000000004  1.0000
  N   N41       1.0  0.9661599999999998  0.38719  0.09904000000000003  1.0000
  N   N42       1.0  0.92471  0.41868  0.07187000000000003  1.0000
  N   N43       1.0  0.88417  0.4174400000000001  0.20201  1.0000
  N   N44       1.0  0.81773  0.42647  0.9949600000000002  1.0000
  N   N45       1.0  0.86651  0.4386900000000001  0.9524  1.0000
  N   N46       1.0  0.1308299999999999  0.4667600000000001  0.11863000000000003  1.0000
  N   N47       1.0  0.11621999999999996  0.43212  0.09658000000000003  1.0000
  N   N48       1.0  0.40518999999999994  0.4144700000000001  0.43856000000000006  1.0000
  N   N49       1.0  0.06497999999999986  0.4007600000000001  0.3872700000000001  1.0000
  N   N50       1.0  0.99664  0.42783  0.41893  1.0000
  N   N51       1.0  0.08601000000000002  0.2979900000000001  0.41767  1.0000
  N   N52       1.0  0.8129999999999998  0.50501  0.4267200000000001  1.0000
  N   N53       1.0  0.81944  0.5475  0.43897  1.0000
  N   N54       1.0  0.2491999999999999  0.3815300000000001  0.46655  1.0000
  N   N55       1.0  0.21266999999999997  0.40353000000000006  0.43183  1.0000
  N   N56       1.0  0.84354  0.061330000000000016  0.4145000000000001  1.0000
  N   N57       1.0  0.8531100000000004  0.09922000000000003  0.11291000000000001  1.0000
  N   N58       1.0  0.84346  0.07213000000000001  0.08125000000000003  1.0000
  N   N59       1.0  0.8015200000000001  0.20210000000000006  0.08263000000000002  1.0000
  N   N60       1.0  0.7446099999999999  0.9945200000000001  0.07347  1.0000
  N   N61       1.0  0.8055399999999999  0.9519800000000003  0.061100000000000015  1.0000
  N   N62       1.0  0.09711999999999997  0.11855000000000003  0.03318  1.0000
  N   N63       1.0  0.047819999999999974  0.09649  0.06782000000000003  1.0000
  N   N64       1.0  0.31961000000000006  0.43866  0.08565000000000002  1.0000
  O   O1        1.0  0.42499999999999993  0.8563  0.66074  1.0000
  O   O2        1.0  0.6642999999999998  0.8305500000000002  0.56263  1.0000
  O   O3        1.0  0.46948999999999985  0.9713000000000003  0.61721  1.0000
  O   O4        1.0  0.7572399999999998  0.8838100000000002  0.57859  1.0000
  O   O5        1.0  0.8377300000000001  0.97788  0.4729900000000001  1.0000
  O   O6        1.0  0.67648  0.88165  0.4756400000000001  1.0000
  O   O7        1.0  0.13550999999999996  0.029640000000000007  0.6286400000000001  1.0000
  O   O8        1.0  0.33101999999999976  0.9509200000000002  0.6832100000000001  1.0000
  O   O9        1.0  0.31027  0.95761  0.53165  1.0000
  O   O10       1.0  0.9430000000000001  0.64335  0.8392600000000002  1.0000
  O   O11       1.0  0.057739999999999875  0.66941  0.9375800000000002  1.0000
  O   O12       1.0  0.05663000000000003  0.52851  0.88371  1.0000
  O   O13       1.0  0.2198499999999999  0.61619  0.92149  1.0000
  O   O14       1.0  0.2886800000000001  0.52211  0.02714  1.0000
  O   O15       1.0  0.034350000000000075  0.61855  0.024600000000000007  1.0000
  O   O16       1.0  0.7932499999999999  0.47060000000000013  0.87098  1.0000
  O   O17       1.0  0.96582  0.54879  0.81679  1.0000
  O   O18       1.0  0.7996000000000002  0.54239  0.9681300000000003  1.0000
  O   O19       1.0  0.7828099999999999  0.6608400000000002  0.64354  1.0000
  O   O20       1.0  0.9958899999999997  0.5625300000000002  0.6692000000000002  1.0000
  O   O21       1.0  0.9402099999999999  0.61679  0.5284000000000001  1.0000
  O   O22       1.0  0.14089999999999997  0.57863  0.61605  1.0000
  O   O23       1.0  0.3157599999999999  0.47294000000000014  0.52209  1.0000
  O   O24       1.0  0.058339999999999996  0.47549  0.61821  1.0000
  O   O25       1.0  0.6654399999999998  0.6285600000000002  0.47038000000000013  1.0000
  O   O26       1.0  0.78302  0.6831800000000001  0.54875  1.0000
  O   O27       1.0  0.76845  0.5316800000000002  0.54238  1.0000
  O   O28       1.0  0.08680999999999973  0.8391900000000001  0.8563200000000002  1.0000
  O   O29       1.0  0.22718000000000002  0.9377000000000002  0.8307  1.0000
  O   O30       1.0  0.0869699999999998  0.88247  0.9714300000000002  1.0000
  O   O31       1.0  0.33511999999999986  0.92165  0.8838400000000002  1.0000
  O   O32       1.0  0.31072999999999995  0.027060000000000008  0.9781600000000001  1.0000
  O   O33       1.0  0.15154999999999993  0.02461  0.8823500000000001  1.0000
  O   O34       1.0  0.76437  0.87091  0.0292  1.0000
  O   O35       1.0  0.014469999999999898  0.81664  0.95079  1.0000
  O   O36       1.0  0.8422299999999998  0.9680200000000002  0.9575500000000002  1.0000
  O   O37       1.0  0.5750099999999999  0.1437  0.3392600000000001  1.0000
  O   O38       1.0  0.3357100000000001  0.16945  0.43737  1.0000
  O   O39       1.0  0.5305200000000001  0.0287  0.3828  1.0000
  O   O40       1.0  0.24277  0.11619  0.4214100000000001  1.0000
  O   O41       1.0  0.16228  0.022120000000000008  0.52701  1.0000
  O   O42       1.0  0.32352000000000003  0.11835  0.52436  1.0000
  O   O43       1.0  0.8644999999999999  0.9703600000000002  0.37136000000000013  1.0000
  O   O44       1.0  0.66899  0.04908000000000001  0.31679  1.0000
  O   O45       1.0  0.68974  0.04239000000000001  0.46835  1.0000
  O   O46       1.0  0.05699999999999997  0.35665000000000013  0.16074  1.0000
  O   O47       1.0  0.94226  0.3305900000000001  0.06242  1.0000
  O   O48       1.0  0.9433700000000002  0.4715  0.11629  1.0000
  O   O49       1.0  0.78016  0.3838100000000001  0.07851000000000002  1.0000
  O   O50       1.0  0.7113299999999999  0.4778900000000001  0.97286  1.0000
  O   O51       1.0  0.9656499999999998  0.38146  0.9754000000000003  1.0000
  O   O52       1.0  0.20675000000000004  0.5294  0.12902000000000002  1.0000
  O   O53       1.0  0.03418999999999995  0.4512100000000001  0.18321  1.0000
  O   O54       1.0  0.2004  0.45761000000000013  0.03187  1.0000
  O   O55       1.0  0.21719999999999998  0.3391600000000001  0.35648  1.0000
  O   O56       1.0  0.004119999999999975  0.43747  0.33082  1.0000
  O   O57       1.0  0.05978000000000002  0.38318  0.47163000000000005  1.0000
  O   O58       1.0  0.8591100000000004  0.42137  0.38396  1.0000
  O   O59       1.0  0.6842399999999998  0.52706  0.4779200000000001  1.0000
  O   O60       1.0  0.9416800000000001  0.52451  0.38181  1.0000
  O   O61       1.0  0.33457  0.37144000000000005  0.52962  1.0000
  O   O62       1.0  0.21701999999999996  0.3168200000000001  0.4512500000000001  1.0000
  O   O63       1.0  0.23154999999999992  0.46832  0.45763  1.0000
  O   O64       1.0  0.91319  0.16081  0.14369000000000007  1.0000
  O   O65       1.0  0.7728300000000001  0.062300000000000015  0.16930000000000006  1.0000
  O   O66       1.0  0.91304  0.11753000000000002  0.02857000000000001  1.0000
  O   O67       1.0  0.66488  0.07835  0.11616  1.0000
  O   O68       1.0  0.6892700000000002  0.97294  0.02185  1.0000
  O   O69       1.0  0.8484299999999999  0.97539  0.11768000000000003  1.0000
  O   O70       1.0  0.2356299999999999  0.12909  0.9708000000000002  1.0000
  O   O71       1.0  0.9855300000000001  0.18336  0.04921  1.0000
  O   O72       1.0  0.15776999999999994  0.03198  0.042450000000000015  1.0000
