data_image0
_chemical_formula_structural       Zn20H288C324N72O48
_chemical_formula_sum              "Zn20 H288 C324 N72 O48"
_cell_length_a       19.6303
_cell_length_b       23.87377
_cell_length_c       38.33608
_cell_angle_alpha    80.80297
_cell_angle_beta     75.11608
_cell_angle_gamma    65.84152

_space_group_name_H-M_alt    "P 1"
_space_group_IT_number       1

loop_
  _space_group_symop_operation_xyz
  'x, y, z'

loop_
  _atom_site_type_symbol
  _atom_site_label
  _atom_site_symmetry_multiplicity
  _atom_site_fract_x
  _atom_site_fract_y
  _atom_site_fract_z
  _atom_site_occupancy
  Zn  Zn1       1.0  0.8182099999999998  0.8415100000000001  0.85788  1.0000
  Zn  Zn2       1.0  0.7211499999999997  0.7551600000000003  0.8409799999999997  1.0000
  Zn  Zn3       1.0  0.5207999999999998  0.8392600000000002  0.86508  1.0000
  Zn  Zn4       1.0  0.7712200000000001  0.72446  0.74715  1.0000
  Zn  Zn5       1.0  0.7746300000000002  0.60809  0.89168  1.0000
  Zn  Zn6       1.0  0.48261  0.3421500000000001  0.35703  1.0000
  Zn  Zn7       1.0  0.68333  0.25502  0.34087  1.0000
  Zn  Zn8       1.0  0.77529  0.33956000000000003  0.36474  1.0000
  Zn  Zn9       1.0  0.7577400000000002  0.22412  0.24703  1.0000
  Zn  Zn10      1.0  0.72401  0.10781  0.39154  1.0000
  Zn  Zn11      1.0  0.5173800000000002  0.65784  0.64296  1.0000
  Zn  Zn12      1.0  0.31667  0.7449700000000001  0.65913  1.0000
  Zn  Zn13      1.0  0.22470999999999997  0.6604400000000001  0.63526  1.0000
  Zn  Zn14      1.0  0.24225999999999995  0.77587  0.75296  1.0000
  Zn  Zn15      1.0  0.2759899999999999  0.8921900000000003  0.60846  1.0000
  Zn  Zn16      1.0  0.18178000000000005  0.15849  0.14210999999999993  1.0000
  Zn  Zn17      1.0  0.27884000000000003  0.24484000000000003  0.15902  1.0000
  Zn  Zn18      1.0  0.47918999999999995  0.16074  0.13492  1.0000
  Zn  Zn19      1.0  0.22876999999999997  0.27554  0.25284  1.0000
  Zn  Zn20      1.0  0.22537000000000004  0.39191000000000004  0.10831999999999999  1.0000
  H   H1        1.0  0.7342500000000001  0.22666000000000003  0.13719  1.0000
  H   H2        1.0  0.41348999999999997  0.8791700000000001  0.80146  1.0000
  H   H3        1.0  0.94568  0.43722  0.93471  1.0000
  H   H4        1.0  0.9230600000000001  0.9780500000000002  0.8483399999999999  1.0000
  H   H5        1.0  0.74607  0.4109600000000001  0.9280699999999998  1.0000
  H   H6        1.0  0.00531000000000002  0.7883700000000001  0.6487099999999999  1.0000
  H   H7        1.0  0.011039999999999998  0.85944  0.65263  1.0000
  H   H8        1.0  0.0812400000000001  0.78975  0.6650399999999999  1.0000
  H   H9        1.0  0.009150000000000035  0.32424  0.95063  1.0000
  H   H10       1.0  0.4547099999999998  0.9880500000000002  0.8932899999999999  1.0000
  H   H11       1.0  0.44546000000000013  0.10600000000000005  0.9384099999999999  1.0000
  H   H12       1.0  0.4495099999999998  0.13790000000000005  0.89355  1.0000
  H   H13       1.0  0.39658000000000004  0.09051000000000001  0.9104099999999999  1.0000
  H   H14       1.0  0.8074100000000005  0.29929  0.9441599999999999  1.0000
  H   H15       1.0  0.3248299999999999  0.7406600000000001  0.96825  1.0000
  H   H16       1.0  0.34436999999999995  0.6621600000000002  0.9642399999999999  1.0000
  H   H17       1.0  0.35682  0.6843300000000001  0.003159999999999999  1.0000
  H   H18       1.0  0.7154900000000002  0.99078  0.88006  1.0000
  H   H19       1.0  0.17113  0.101  0.9037299999999999  1.0000
  H   H20       1.0  0.8649400000000003  0.11391000000000001  0.98216  1.0000
  H   H21       1.0  0.95357  0.04946  0.98159  1.0000
  H   H22       1.0  0.9100499999999998  0.76597  0.69319  1.0000
  H   H23       1.0  0.97319  0.13444000000000006  0.13746999999999998  1.0000
  H   H24       1.0  0.8572800000000002  0.022389999999999997  0.9781199999999999  1.0000
  H   H25       1.0  0.002110000000000001  0.11852000000000001  0.0721  1.0000
  H   H26       1.0  0.8599  0.21781  0.97618  1.0000
  H   H27       1.0  0.90785  0.20160000000000003  0.93013  1.0000
  H   H28       1.0  0.07637  0.14292000000000002  0.9513599999999999  1.0000
  H   H29       1.0  0.04232000000000009  0.12211  0.9183599999999998  1.0000
  H   H30       1.0  0.41526  0.7739600000000001  0.9269999999999999  1.0000
  H   H31       1.0  0.6274199999999999  0.57105  0.9482399999999999  1.0000
  H   H32       1.0  0.0529999999999999  0.8876400000000002  0.74276  1.0000
  H   H33       1.0  0.09847999999999996  0.8423400000000002  0.7047  1.0000
  H   H34       1.0  0.025059999999999884  0.9150900000000002  0.70055  1.0000
  H   H35       1.0  0.95774  0.05743  0.86705  1.0000
  H   H36       1.0  0.6274100000000002  0.7713  0.6994999999999999  1.0000
  H   H37       1.0  0.9548899999999999  0.8682400000000002  0.78586  1.0000
  H   H38       1.0  0.76232  0.21271000000000004  0.07098  1.0000
  H   H39       1.0  0.82385  0.9438900000000001  0.95889  1.0000
  H   H40       1.0  0.8722200000000001  0.3780400000000001  0.8245599999999998  1.0000
  H   H41       1.0  0.8402500000000002  0.3792300000000001  0.7849299999999999  1.0000
  H   H42       1.0  0.9363  0.36777999999999994  0.78167  1.0000
  H   H43       1.0  0.8725800000000001  0.48213  0.6975199999999999  1.0000
  H   H44       1.0  0.9323899999999998  0.41644  0.7200399999999998  1.0000
  H   H45       1.0  0.8347400000000001  0.4305  0.72591  1.0000
  H   H46       1.0  0.53873  0.5341600000000001  0.9869599999999998  1.0000
  H   H47       1.0  0.46054  0.5902  0.013799999999999998  1.0000
  H   H48       1.0  0.44650000000000006  0.5637  0.97681  1.0000
  H   H49       1.0  0.56396  0.13995000000000002  0.88873  1.0000
  H   H50       1.0  0.5820599999999999  0.10534999999999999  0.93142  1.0000
  H   H51       1.0  0.6595  0.09511000000000003  0.89347  1.0000
  H   H52       1.0  0.5400999999999999  0.79864  0.66153  1.0000
  H   H53       1.0  0.44429  0.80911  0.68272  1.0000
  H   H54       1.0  0.46842  0.87367  0.66782  1.0000
  H   H55       1.0  0.32432  0.90735  0.76395  1.0000
  H   H56       1.0  0.3597  0.9218599999999999  0.71723  1.0000
  H   H57       1.0  0.3469600000000001  0.85243  0.7322399999999999  1.0000
  H   H58       1.0  0.01219999999999997  0.6014400000000001  0.9993899999999999  1.0000
  H   H59       1.0  0.9963800000000002  0.5442099999999999  0.98178  1.0000
  H   H60       1.0  0.07739999999999993  0.5627800000000001  0.9616099999999999  1.0000
  H   H61       1.0  0.9496200000000001  0.77553  0.9105999999999999  1.0000
  H   H62       1.0  0.9075000000000001  0.57724  0.9436399999999999  1.0000
  H   H63       1.0  0.30006  0.03855000000000001  0.86912  1.0000
  H   H64       1.0  0.15276  0.93544  0.9611699999999999  1.0000
  H   H65       1.0  0.2848  0.8743  0.9282  1.0000
  H   H66       1.0  0.05368000000000012  0.7365400000000001  0.9395299999999999  1.0000
  H   H67       1.0  0.027550000000000067  0.7011600000000001  0.9824699999999998  1.0000
  H   H68       1.0  0.09845999999999995  0.65592  0.94842  1.0000
  H   H69       1.0  0.8343599999999999  0.57681  0.72189  1.0000
  H   H70       1.0  0.8361299999999998  0.4738700000000001  0.8473099999999998  1.0000
  H   H71       1.0  0.002929999999999993  0.09032000000000001  0.01978  1.0000
  H   H72       1.0  0.9973999999999997  0.16785  0.0122  1.0000
  H   H73       1.0  0.90226  0.72756  0.63712  1.0000
  H   H74       1.0  0.9072799999999999  0.37905000000000005  0.30084  1.0000
  H   H75       1.0  0.6816599999999999  0.93484  0.43424999999999997  1.0000
  H   H76       1.0  0.25116  0.47822  0.3478  1.0000
  H   H77       1.0  0.91251  0.9120700000000002  0.42802  1.0000
  H   H78       1.0  0.5577199999999999  0.28750000000000003  0.14859  1.0000
  H   H79       1.0  0.47695000000000004  0.35835  0.15261  1.0000
  H   H80       1.0  0.46432  0.2885  0.16541  1.0000
  H   H81       1.0  0.71697  0.8216  0.4501  1.0000
  H   H82       1.0  0.6649500000000007  0.48812  0.39295  1.0000
  H   H83       1.0  0.51218  0.60526  0.4385  1.0000
  H   H84       1.0  0.5207599999999999  0.63764  0.39365  1.0000
  H   H85       1.0  0.6042700000000001  0.58995  0.41017999999999993  1.0000
  H   H86       1.0  0.94872  0.79996  0.44366999999999995  1.0000
  H   H87       1.0  0.9665200000000002  0.23963  0.46814  1.0000
  H   H88       1.0  0.028739999999999995  0.16105000000000003  0.46414999999999995  1.0000
  H   H89       1.0  0.9549200000000001  0.18342000000000006  0.50297  1.0000
  H   H90       1.0  0.4148200000000001  0.49029  0.37993  1.0000
  H   H91       1.0  0.8256600000000001  0.60091  0.40387  1.0000
  H   H92       1.0  0.04067000000000002  0.6141700000000001  0.48171  1.0000
  H   H93       1.0  0.017079999999999984  0.54948  0.48138  1.0000
  H   H94       1.0  0.6314799999999999  0.26568  0.19286  1.0000
  H   H95       1.0  0.7549699999999999  0.6352600000000002  0.63743  1.0000
  H   H96       1.0  0.14335000000000003  0.52229  0.47763  1.0000
  H   H97       1.0  0.8075299999999999  0.61914  0.57211  1.0000
  H   H98       1.0  0.94691  0.7182900000000001  0.4760599999999999  1.0000
  H   H99       1.0  0.96173  0.70182  0.43005  1.0000
  H   H100      1.0  0.8306799999999998  0.64231  0.4518499999999999  1.0000
  H   H101      1.0  0.91777  0.62245  0.41837  1.0000
  H   H102      1.0  0.8845099999999999  0.27328  0.42682  1.0000
  H   H103      1.0  0.85136  0.07105  0.4477999999999999  1.0000
  H   H104      1.0  0.31781  0.38648  0.24322  1.0000
  H   H105      1.0  0.35505  0.34091000000000005  0.20528999999999994  1.0000
  H   H106      1.0  0.35972999999999994  0.41394  0.20067  1.0000
  H   H107      1.0  0.11863000000000004  0.55774  0.36673  1.0000
  H   H108      1.0  0.9019  0.27122  0.19917  1.0000
  H   H109      1.0  0.39234000000000013  0.36815000000000003  0.2857199999999999  1.0000
  H   H110      1.0  0.95486  0.7132100000000002  0.5709699999999999  1.0000
  H   H111      1.0  0.27392000000000005  0.44350000000000006  0.45823  1.0000
  H   H112      1.0  0.9249600000000001  0.8778600000000002  0.32474  1.0000
  H   H113      1.0  0.9952500000000001  0.87922  0.28500999999999993  1.0000
  H   H114      1.0  0.91421  0.86705  0.28193  1.0000
  H   H115      1.0  0.9481899999999998  0.9813600000000001  0.19754  1.0000
  H   H116      1.0  0.93118  0.9157200000000002  0.22012999999999996  1.0000
  H   H117      1.0  0.008699999999999954  0.92995  0.22607999999999998  1.0000
  H   H118      1.0  0.93832  0.033650000000000006  0.4864299999999999  1.0000
  H   H119      1.0  0.93393  0.08942000000000001  0.51345  1.0000
  H   H120      1.0  0.01151000000000005  0.06296000000000002  0.47651999999999994  1.0000
  H   H121      1.0  0.40921999999999986  0.63947  0.38848  1.0000
  H   H122      1.0  0.38313  0.60529  0.43139  1.0000
  H   H123      1.0  0.35312  0.5948100000000001  0.39377  1.0000
  H   H124      1.0  0.99887  0.29944  0.16076  1.0000
  H   H125      1.0  0.06346999999999998  0.31006  0.18153  1.0000
  H   H126      1.0  0.98936  0.37446000000000007  0.16706999999999997  1.0000
  H   H127      1.0  0.004840000000000002  0.4081000000000001  0.26299  1.0000
  H   H128      1.0  0.0007100000000000064  0.42288  0.21642  1.0000
  H   H129      1.0  0.06846999999999992  0.3536200000000001  0.23101  1.0000
  H   H130      1.0  0.3858000000000001  0.10234  0.49949999999999994  1.0000
  H   H131      1.0  0.47587  0.04473  0.48175  1.0000
  H   H132      1.0  0.39615000000000006  0.06371  0.46184  1.0000
  H   H133      1.0  0.3640700000000001  0.27584  0.41019  1.0000
  H   H134      1.0  0.5703  0.07771000000000003  0.44348  1.0000
  H   H135      1.0  0.7932800000000001  0.53871  0.36928  1.0000
  H   H136      1.0  0.95114  0.43503000000000003  0.46118  1.0000
  H   H137      1.0  0.91316  0.37416000000000005  0.42807  1.0000
  H   H138      1.0  0.26975  0.23718  0.43942  1.0000
  H   H139      1.0  0.2879800000000001  0.20191  0.4823799999999999  1.0000
  H   H140      1.0  0.2960499999999999  0.15662000000000006  0.44838  1.0000
  H   H141      1.0  0.86697  0.07616000000000003  0.22175999999999998  1.0000
  H   H142      1.0  0.8413800000000001  0.97342  0.34725  1.0000
  H   H143      1.0  0.8891600000000001  0.58976  0.51979  1.0000
  H   H144      1.0  0.8245200000000003  0.6670000000000003  0.5121599999999998  1.0000
  H   H145      1.0  0.09773000000000001  0.27244  0.36288  1.0000
  H   H146      1.0  0.09272000000000001  0.62094  0.69916  1.0000
  H   H147      1.0  0.31833  0.06516  0.56574  1.0000
  H   H148      1.0  0.74883  0.52178  0.6521899999999999  1.0000
  H   H149      1.0  0.08748  0.08792999999999998  0.57197  1.0000
  H   H150      1.0  0.4422699999999996  0.71249  0.85141  1.0000
  H   H151      1.0  0.5230400000000001  0.64165  0.8473899999999999  1.0000
  H   H152      1.0  0.53567  0.7115000000000001  0.83459  1.0000
  H   H153      1.0  0.28302  0.17839  0.5499  1.0000
  H   H154      1.0  0.33504999999999996  0.51188  0.60705  1.0000
  H   H155      1.0  0.48781  0.39473  0.56149  1.0000
  H   H156      1.0  0.47922999999999993  0.36236  0.60634  1.0000
  H   H157      1.0  0.39572  0.4100500000000001  0.58981  1.0000
  H   H158      1.0  0.051270000000000045  0.20003  0.55633  1.0000
  H   H159      1.0  0.033470000000000014  0.76037  0.53186  1.0000
  H   H160      1.0  0.9712600000000003  0.83894  0.5358499999999999  1.0000
  H   H161      1.0  0.045080000000000016  0.81658  0.49701999999999996  1.0000
  H   H162      1.0  0.5851800000000001  0.50971  0.62006  1.0000
  H   H163      1.0  0.17432999999999996  0.39909000000000006  0.59613  1.0000
  H   H164      1.0  0.95932  0.38583  0.51829  1.0000
  H   H165      1.0  0.9829099999999997  0.45052  0.51862  1.0000
  H   H166      1.0  0.3685200000000001  0.7343200000000001  0.8071399999999997  1.0000
  H   H167      1.0  0.24502999999999997  0.36473000000000005  0.36257  1.0000
  H   H168      1.0  0.85664  0.4777100000000001  0.52236  1.0000
  H   H169      1.0  0.19245999999999994  0.38085000000000013  0.42788999999999994  1.0000
  H   H170      1.0  0.05308999999999995  0.2817  0.52394  1.0000
  H   H171      1.0  0.03826  0.29818  0.56995  1.0000
  H   H172      1.0  0.16932000000000003  0.3576800000000001  0.5481399999999998  1.0000
  H   H173      1.0  0.08221999999999997  0.37755  0.58162  1.0000
  H   H174      1.0  0.1154900000000001  0.72672  0.5731799999999999  1.0000
  H   H175      1.0  0.1486400000000001  0.92894  0.5522  1.0000
  H   H176      1.0  0.6821800000000001  0.61352  0.75678  1.0000
  H   H177      1.0  0.6449499999999999  0.65909  0.79471  1.0000
  H   H178      1.0  0.64027  0.58605  0.79932  1.0000
  H   H179      1.0  0.88136  0.44225  0.63327  1.0000
  H   H180      1.0  0.09810000000000006  0.72877  0.80083  1.0000
  H   H181      1.0  0.6076499999999998  0.6318400000000001  0.71427  1.0000
  H   H182      1.0  0.04513000000000001  0.28679000000000004  0.42902  1.0000
  H   H183      1.0  0.72607  0.55649  0.54177  1.0000
  H   H184      1.0  0.07504000000000008  0.12213  0.6752599999999999  1.0000
  H   H185      1.0  0.004739999999999992  0.12078  0.71499  1.0000
  H   H186      1.0  0.08577999999999993  0.13294000000000006  0.71807  1.0000
  H   H187      1.0  0.051800000000000096  0.01864  0.8024599999999998  1.0000
  H   H188      1.0  0.06881000000000005  0.08427  0.7798599999999999  1.0000
  H   H189      1.0  0.9912900000000003  0.07004000000000006  0.7739199999999998  1.0000
  H   H190      1.0  0.06166999999999998  0.96635  0.51356  1.0000
  H   H191      1.0  0.06605999999999992  0.9105800000000001  0.4865399999999999  1.0000
  H   H192      1.0  0.9884800000000002  0.93704  0.52347  1.0000
  H   H193      1.0  0.59077  0.3605300000000001  0.61151  1.0000
  H   H194      1.0  0.6168600000000001  0.39471000000000006  0.56861  1.0000
  H   H195      1.0  0.6468699999999997  0.4051900000000002  0.6062299999999998  1.0000
  H   H196      1.0  0.0011300000000000535  0.7005600000000002  0.8392299999999998  1.0000
  H   H197      1.0  0.9365199999999999  0.6899300000000003  0.8184599999999999  1.0000
  H   H198      1.0  0.010629999999999954  0.62554  0.83292  1.0000
  H   H199      1.0  0.99515  0.5919  0.73701  1.0000
  H   H200      1.0  0.9992899999999999  0.5771200000000001  0.7835799999999999  1.0000
  H   H201      1.0  0.93152  0.6463800000000002  0.76898  1.0000
  H   H202      1.0  0.6141899999999999  0.8976600000000001  0.5005  1.0000
  H   H203      1.0  0.5241200000000001  0.95527  0.51825  1.0000
  H   H204      1.0  0.60385  0.9362800000000001  0.5381599999999999  1.0000
  H   H205      1.0  0.6359200000000002  0.7241500000000001  0.58981  1.0000
  H   H206      1.0  0.42970000000000014  0.9222800000000002  0.55651  1.0000
  H   H207      1.0  0.20670999999999998  0.46129000000000003  0.6307199999999998  1.0000
  H   H208      1.0  0.048849999999999984  0.5649700000000001  0.53882  1.0000
  H   H209      1.0  0.08682999999999999  0.6258300000000002  0.57193  1.0000
  H   H210      1.0  0.73025  0.7628200000000002  0.5605799999999999  1.0000
  H   H211      1.0  0.7120100000000003  0.79809  0.51761  1.0000
  H   H212      1.0  0.70394  0.84337  0.55161  1.0000
  H   H213      1.0  0.13301999999999986  0.9238400000000001  0.77823  1.0000
  H   H214      1.0  0.15862  0.026570000000000003  0.65274  1.0000
  H   H215      1.0  0.11083000000000003  0.41023000000000004  0.48020999999999997  1.0000
  H   H216      1.0  0.17547999999999997  0.33299000000000006  0.48782999999999993  1.0000
  H   H217      1.0  0.26575  0.7733400000000001  0.86281  1.0000
  H   H218      1.0  0.5865  0.12083000000000003  0.19854  1.0000
  H   H219      1.0  0.054320000000000014  0.56278  0.06528  1.0000
  H   H220      1.0  0.07692999999999998  0.02195  0.15165  1.0000
  H   H221      1.0  0.25392000000000003  0.58904  0.07192  1.0000
  H   H222      1.0  0.9946800000000001  0.21163  0.35129  1.0000
  H   H223      1.0  0.9889500000000001  0.14056000000000002  0.34736  1.0000
  H   H224      1.0  0.9187499999999998  0.21025000000000005  0.33496  1.0000
  H   H225      1.0  0.99084  0.67576  0.04937  1.0000
  H   H226      1.0  0.54528  0.011950000000000002  0.10671  1.0000
  H   H227      1.0  0.5545399999999999  0.8940000000000001  0.06159  1.0000
  H   H228      1.0  0.5504899999999999  0.8621  0.10645  1.0000
  H   H229      1.0  0.6034100000000001  0.90949  0.08959  1.0000
  H   H230      1.0  0.19259000000000007  0.7007  0.05584  1.0000
  H   H231      1.0  0.67517  0.25934  0.03175  1.0000
  H   H232      1.0  0.65562  0.33784  0.03576  1.0000
  H   H233      1.0  0.6431700000000002  0.31565999999999994  0.9968299999999999  1.0000
  H   H234      1.0  0.2845  0.009210000000000005  0.11993999999999999  1.0000
  H   H235      1.0  0.8288599999999998  0.8989900000000002  0.09626  1.0000
  H   H236      1.0  0.13504999999999986  0.8860900000000003  0.017839999999999998  1.0000
  H   H237      1.0  0.046429999999999874  0.9505400000000003  0.018409999999999992  1.0000
  H   H238      1.0  0.08993999999999999  0.23402000000000003  0.30679999999999996  1.0000
  H   H239      1.0  0.02680000000000009  0.86556  0.8625299999999998  1.0000
  H   H240      1.0  0.14271999999999987  0.9776000000000001  0.02187  1.0000
  H   H241      1.0  0.99789  0.88147  0.9278999999999998  1.0000
  H   H242      1.0  0.14010000000000003  0.78218  0.02382  1.0000
  H   H243      1.0  0.09213999999999996  0.79839  0.06986  1.0000
  H   H244      1.0  0.9236200000000001  0.85708  0.04864  1.0000
  H   H245      1.0  0.95768  0.8778900000000001  0.08164  1.0000
  H   H246      1.0  0.5847299999999999  0.22604  0.07299  1.0000
  H   H247      1.0  0.37257  0.42895  0.05176  1.0000
  H   H248      1.0  0.9469900000000001  0.11236  0.25724  1.0000
  H   H249      1.0  0.9015099999999998  0.15766  0.2953  1.0000
  H   H250      1.0  0.97493  0.08491000000000001  0.29945  1.0000
  H   H251      1.0  0.042249999999999954  0.9425600000000002  0.13295  1.0000
  H   H252      1.0  0.37258000000000024  0.2287  0.30049999999999993  1.0000
  H   H253      1.0  0.045110000000000025  0.13176  0.21414  1.0000
  H   H254      1.0  0.23767000000000013  0.78729  0.9290199999999998  1.0000
  H   H255      1.0  0.17614999999999997  0.05611  0.04111  1.0000
  H   H256      1.0  0.12777  0.62196  0.17542999999999997  1.0000
  H   H257      1.0  0.15973999999999994  0.62077  0.21506  1.0000
  H   H258      1.0  0.06368999999999991  0.6322100000000002  0.21832999999999997  1.0000
  H   H259      1.0  0.12740999999999994  0.51786  0.30247  1.0000
  H   H260      1.0  0.06759999999999998  0.58356  0.27996  1.0000
  H   H261      1.0  0.16525999999999993  0.5694900000000002  0.27408  1.0000
  H   H262      1.0  0.46127  0.46584000000000003  0.013039999999999996  1.0000
  H   H263      1.0  0.5394500000000001  0.4097899999999999  0.9862  1.0000
  H   H264      1.0  0.5534999999999999  0.4362900000000001  0.02319  1.0000
  H   H265      1.0  0.43603000000000003  0.86004  0.11126000000000001  1.0000
  H   H266      1.0  0.41792999999999997  0.8946400000000001  0.06857  1.0000
  H   H267      1.0  0.3404900000000003  0.9048900000000001  0.10653  1.0000
  H   H268      1.0  0.45989  0.20135  0.33847  1.0000
  H   H269      1.0  0.5557  0.19089  0.31728  1.0000
  H   H270      1.0  0.5315699999999999  0.12633  0.33218  1.0000
  H   H271      1.0  0.6756799999999998  0.09264000000000001  0.23604999999999998  1.0000
  H   H272      1.0  0.64029  0.07814  0.28277  1.0000
  H   H273      1.0  0.6530300000000001  0.14756  0.26776  1.0000
  H   H274      1.0  0.9877900000000001  0.39855  0.00061  1.0000
  H   H275      1.0  0.0036100000000000064  0.45579  0.01821  1.0000
  H   H276      1.0  0.92259  0.43721000000000004  0.03838999999999999  1.0000
  H   H277      1.0  0.050369999999999984  0.22447000000000003  0.08939999999999998  1.0000
  H   H278      1.0  0.09248999999999999  0.42275  0.05636  1.0000
  H   H279      1.0  0.69993  0.96144  0.13088  1.0000
  H   H280      1.0  0.8472399999999999  0.06456000000000002  0.038829999999999996  1.0000
  H   H281      1.0  0.71519  0.1257  0.07179  1.0000
  H   H282      1.0  0.9463100000000001  0.26345  0.06046  1.0000
  H   H283      1.0  0.9724400000000001  0.29884  0.01753  1.0000
  H   H284      1.0  0.9015300000000002  0.34408  0.05157999999999999  1.0000
  H   H285      1.0  0.16563000000000005  0.42319  0.2781  1.0000
  H   H286      1.0  0.16386000000000003  0.52613  0.15269  1.0000
  H   H287      1.0  0.9970699999999995  0.9096700000000001  0.98022  1.0000
  H   H288      1.0  0.002599999999999947  0.8321400000000001  0.9878  1.0000
  C   C1        1.0  0.79253  0.20320000000000002  0.12262  1.0000
  C   C2        1.0  0.4590999999999999  0.8560100000000003  0.7793199999999998  1.0000
  C   C3        1.0  0.91592  0.4066000000000001  0.93714  1.0000
  C   C4        1.0  0.3011399999999999  0.95288  0.89702  1.0000
  C   C5        1.0  0.909  0.9883100000000001  0.87658  1.0000
  C   C6        1.0  0.8034200000000001  0.3916700000000001  0.9333799999999999  1.0000
  C   C7        1.0  0.019789999999999922  0.8131400000000002  0.66556  1.0000
  C   C8        1.0  0.9512600000000001  0.34415000000000007  0.9459999999999998  1.0000
  C   C9        1.0  0.4450100000000001  0.6835400000000003  0.9552499999999999  1.0000
  C   C10       1.0  0.5107200000000001  0.9884500000000003  0.8912  1.0000
  C   C11       1.0  0.44890000000000013  0.09647000000000001  0.9107099999999999  1.0000
  C   C12       1.0  0.83809  0.32889000000000007  0.9423999999999999  1.0000
  C   C13       1.0  0.6504799999999998  0.9373100000000002  0.8767799999999999  1.0000
  C   C14       1.0  0.3636099999999999  0.6932900000000002  0.9736799999999999  1.0000
  C   C15       1.0  0.6592  0.9900200000000001  0.8833799999999999  1.0000
  C   C16       1.0  0.19529999999999997  0.051489999999999994  0.90904  1.0000
  C   C17       1.0  0.9105699999999999  0.044329999999999994  0.92343  1.0000
  C   C18       1.0  0.15488000000000005  0.021919999999999995  0.93538  1.0000
  C   C19       1.0  0.5365699999999997  0.7186300000000001  0.91483  1.0000
  C   C20       1.0  0.9254800000000002  0.09472999999999998  0.96844  1.0000
  C   C21       1.0  0.9195099999999999  0.78891  0.7127399999999999  1.0000
  C   C22       1.0  0.92724  0.15126  0.12275999999999998  1.0000
  C   C23       1.0  0.9645900000000001  0.1378  0.9707  1.0000
  C   C24       1.0  0.8717499999999999  0.95575  0.90261  1.0000
  C   C25       1.0  0.57737  0.93658  0.8804  1.0000
  C   C26       1.0  0.87258  0.012829999999999996  0.94974  1.0000
  C   C27       1.0  0.94344  0.14271  0.08589  1.0000
  C   C28       1.0  0.9158000000000002  0.20246  0.95738  1.0000
  C   C29       1.0  0.9126700000000001  0.30492  0.94845  1.0000
  C   C30       1.0  0.04546000000000004  0.11616000000000001  0.94698  1.0000
  C   C31       1.0  0.4601500000000002  0.7300100000000002  0.93211  1.0000
  C   C32       1.0  0.9731199999999998  0.8156000000000001  0.70361  1.0000
  C   C33       1.0  0.88339  0.16489000000000004  0.06753  1.0000
  C   C34       1.0  0.5813500000000001  0.61503  0.94451  1.0000
  C   C35       1.0  0.8893500000000002  0.8209800000000002  0.7745599999999998  1.0000
  C   C36       1.0  0.04337000000000014  0.8741  0.71906  1.0000
  C   C37       1.0  0.9283599999999999  0.03221  0.88679  1.0000
  C   C38       1.0  0.58128  0.7957600000000001  0.72108  1.0000
  C   C39       1.0  0.8772300000000001  0.7922  0.74852  1.0000
  C   C40       1.0  0.94417  0.84751  0.76559  1.0000
  C   C41       1.0  0.8363300000000001  0.19005  0.18085  1.0000
  C   C42       1.0  0.80782  0.19531  0.08593  1.0000
  C   C43       1.0  0.8534700000000001  0.9688800000000002  0.93904  1.0000
  C   C44       1.0  0.8520799999999998  0.18141  0.14151  1.0000
  C   C45       1.0  0.53477  0.8255800000000001  0.78389  1.0000
  C   C46       1.0  0.5950299999999997  0.7963100000000004  0.7552099999999999  1.0000
  C   C47       1.0  0.87726  0.3931900000000001  0.7957899999999999  1.0000
  C   C48       1.0  0.87496  0.45316  0.72282  1.0000
  C   C49       1.0  0.98526  0.8452100000000001  0.73007  1.0000
  C   C50       1.0  0.8561100000000001  0.49098000000000014  0.7545099999999998  1.0000
  C   C51       1.0  0.8565400000000002  0.46172  0.7903999999999999  1.0000
  C   C52       1.0  0.8416899999999994  0.43114  0.93041  1.0000
  C   C53       1.0  0.5058099999999996  0.62578  0.96132  1.0000
  C   C54       1.0  0.4871299999999999  0.57587  0.98598  1.0000
  C   C55       1.0  0.51897  0.04032999999999999  0.8983200000000001  1.0000
  C   C56       1.0  0.5935200000000002  0.041280000000000004  0.89421  1.0000
  C   C57       1.0  0.60032  0.09838000000000001  0.90224  1.0000
  C   C58       1.0  0.4452  0.8557900000000003  0.7456399999999997  1.0000
  C   C59       1.0  0.50656  0.8255800000000001  0.71644  1.0000
  C   C60       1.0  0.4891800000000001  0.82659  0.68029  1.0000
  C   C61       1.0  0.36488  0.8862  0.73958  1.0000
  C   C62       1.0  0.8181799999999999  0.55964  0.81415  1.0000
  C   C63       1.0  0.8180300000000001  0.58811  0.7789099999999999  1.0000
  C   C64       1.0  0.016259999999999986  0.58212  0.9744  1.0000
  C   C65       1.0  0.9410100000000002  0.7326200000000002  0.91775  1.0000
  C   C66       1.0  0.9834700000000001  0.68655  0.93969  1.0000
  C   C67       1.0  0.9705400000000003  0.6303300000000001  0.9496599999999998  1.0000
  C   C68       1.0  0.9171000000000002  0.61979  0.9367099999999999  1.0000
  C   C69       1.0  0.26781  0.016629999999999985  0.88982  1.0000
  C   C70       1.0  0.18642999999999985  0.9577700000000002  0.94183  1.0000
  C   C71       1.0  0.2593  0.92389  0.9231099999999999  1.0000
  C   C72       1.0  0.80489  0.49700000000000005  0.9183599999999998  1.0000
  C   C73       1.0  0.04373999999999994  0.69567  0.95315  1.0000
  C   C74       1.0  0.38079999999999997  0.9177400000000001  0.8781499999999999  1.0000
  C   C75       1.0  0.83726  0.55398  0.74869  1.0000
  C   C76       1.0  0.8376300000000003  0.49576999999999993  0.82015  1.0000
  C   C77       1.0  0.96956  0.13716  0.01009  1.0000
  C   C78       1.0  0.59644  0.6622700000000001  0.9210899999999999  1.0000
  C   C79       1.0  0.8755499999999998  0.66606  0.91378  1.0000
  C   C80       1.0  0.88659  0.7219700000000001  0.905  1.0000
  C   C81       1.0  0.8521199999999999  0.9072200000000002  0.89263  1.0000
  C   C82       1.0  0.8819300000000005  0.7041200000000001  0.6225599999999998  1.0000
  C   C83       1.0  0.9066000000000001  0.35592  0.27877  1.0000
  C   C84       1.0  0.7396599999999999  0.9049200000000001  0.43672  1.0000
  C   C85       1.0  0.8497700000000001  0.4529  0.39697  1.0000
  C   C86       1.0  0.22671999999999995  0.4883500000000001  0.37605  1.0000
  C   C87       1.0  0.8700099999999996  0.8918100000000001  0.43322  1.0000
  C   C88       1.0  0.50185  0.31218  0.16559  1.0000
  C   C89       1.0  0.75885  0.84232  0.44556  1.0000
  C   C90       1.0  0.91583  0.18289  0.45494999999999997  1.0000
  C   C91       1.0  0.6106300000000001  0.48829000000000006  0.39103  1.0000
  C   C92       1.0  0.5455300000000001  0.59608  0.4106999999999999  1.0000
  C   C93       1.0  0.8901200000000004  0.8289000000000001  0.44203  1.0000
  C   C94       1.0  0.5362499999999999  0.43712  0.3766  1.0000
  C   C95       1.0  0.9690800000000002  0.19235000000000002  0.4734999999999999  1.0000
  C   C96       1.0  0.4684100000000001  0.48974  0.3832799999999999  1.0000
  C   C97       1.0  0.84551  0.55138  0.40914  1.0000
  C   C98       1.0  0.12278999999999995  0.5444100000000001  0.42301999999999995  1.0000
  C   C99       1.0  0.889  0.52168  0.43545000000000006  1.0000
  C   C100      1.0  0.82985  0.21836  0.41449  1.0000
  C   C101      1.0  0.01291999999999998  0.59478  0.46818  1.0000
  C   C102      1.0  0.5796399999999999  0.28862  0.21243999999999996  1.0000
  C   C103      1.0  0.7988599999999999  0.65215  0.62269  1.0000
  C   C104      1.0  0.9286100000000002  0.6375800000000001  0.47062999999999994  1.0000
  C   C105      1.0  0.27038999999999996  0.45573  0.40204  1.0000
  C   C106      1.0  0.60643  0.43644000000000005  0.38022  1.0000
  C   C107      1.0  0.16579999999999998  0.51271  0.44926  1.0000
  C   C108      1.0  0.8282400000000001  0.6434799999999999  0.58582  1.0000
  C   C109      1.0  0.9256499999999995  0.7023800000000001  0.4573  1.0000
  C   C110      1.0  0.8342199999999997  0.8040000000000002  0.44814  1.0000
  C   C111      1.0  0.8927300000000001  0.6159300000000001  0.44708999999999993  1.0000
  C   C112      1.0  0.87784  0.22948000000000005  0.43179  1.0000
  C   C113      1.0  0.5084199999999999  0.31501  0.20348  1.0000
  C   C114      1.0  0.8848399999999997  0.6654600000000002  0.5674799999999999  1.0000
  C   C115      1.0  0.85793  0.11480000000000001  0.44418  1.0000
  C   C116      1.0  0.51623  0.32094  0.2742  1.0000
  C   C117      1.0  0.36422999999999994  0.37302000000000013  0.21933000000000002  1.0000
  C   C118      1.0  0.15350999999999998  0.53234  0.38636  1.0000
  C   C119      1.0  0.90221  0.29566000000000003  0.22070999999999996  1.0000
  C   C120      1.0  0.5830400000000002  0.29207  0.24816  1.0000
  C   C121      1.0  0.4438800000000001  0.34729000000000004  0.2654  1.0000
  C   C122      1.0  0.79331  0.69036  0.68087  1.0000
  C   C123      1.0  0.91146  0.6960400000000001  0.58588  1.0000
  C   C124      1.0  0.23922999999999997  0.4686600000000001  0.43847  1.0000
  C   C125      1.0  0.8251699999999997  0.6822799999999999  0.64146  1.0000
  C   C126      1.0  0.85688  0.32523  0.28356  1.0000
  C   C127      1.0  0.85426  0.29592000000000007  0.25497  1.0000
  C   C128      1.0  0.9334999999999999  0.8928300000000002  0.29593  1.0000
  C   C129      1.0  0.94909  0.9525500000000002  0.22288999999999998  1.0000
  C   C130      1.0  0.44037  0.34460000000000013  0.23001  1.0000
  C   C131      1.0  0.8981999999999998  0.9904700000000002  0.25451  1.0000
  C   C132      1.0  0.8909099999999996  0.9612700000000002  0.29042  1.0000
  C   C133      1.0  0.7951900000000003  0.93046  0.43026999999999993  1.0000
  C   C134      1.0  0.90608  0.12528000000000003  0.46099  1.0000
  C   C135      1.0  0.9495500000000002  0.07523000000000002  0.48560999999999993  1.0000
  C   C136      1.0  0.54355  0.54008  0.39824  1.0000
  C   C137      1.0  0.47217  0.54095  0.39417999999999986  1.0000
  C   C138      1.0  0.4005799999999999  0.5980700000000001  0.40224  1.0000
  C   C139      1.0  0.95382  0.3561  0.24493999999999996  1.0000
  C   C140      1.0  0.9515300000000005  0.32588999999999996  0.21582  1.0000
  C   C141      1.0  0.0034100000000000085  0.32732  0.17948  1.0000
  C   C142      1.0  0.009459999999999955  0.38702000000000003  0.23864  1.0000
  C   C143      1.0  0.8075000000000001  0.05921000000000001  0.31403  1.0000
  C   C144      1.0  0.81461  0.08762000000000002  0.27877  1.0000
  C   C145      1.0  0.42570000000000013  0.08283000000000001  0.47446999999999995  1.0000
  C   C146      1.0  0.4082  0.23304  0.41748  1.0000
  C   C147      1.0  0.38952000000000003  0.18708000000000002  0.43954999999999994  1.0000
  C   C148      1.0  0.44836000000000004  0.13087  0.44958999999999993  1.0000
  C   C149      1.0  0.5252700000000001  0.12029  0.4365899999999999  1.0000
  C   C150      1.0  0.8268900000000001  0.51666  0.38985  1.0000
  C   C151      1.0  0.91477  0.45752  0.4418099999999999  1.0000
  C   C152      1.0  0.89445  0.42377  0.4229799999999999  1.0000
  C   C153      1.0  0.77795  0.99646  0.41848  1.0000
  C   C154      1.0  0.30664  0.19631000000000007  0.45307  1.0000
  C   C155      1.0  0.82361  0.41793  0.3782  1.0000
  C   C156      1.0  0.8599  0.053420000000000016  0.2486  1.0000
  C   C157      1.0  0.8456900000000003  0.99536  0.32010999999999995  1.0000
  C   C158      1.0  0.88512  0.63672  0.5100899999999999  1.0000
  C   C159      1.0  0.8195500000000001  0.16209  0.4207599999999999  1.0000
  C   C160      1.0  0.5437600000000001  0.1665  0.41356  1.0000
  C   C161      1.0  0.4859900000000001  0.22239000000000006  0.4046799999999999  1.0000
  C   C162      1.0  0.34887000000000007  0.4080900000000001  0.39188  1.0000
  C   C163      1.0  0.11806999999999995  0.29588000000000003  0.37743  1.0000
  C   C164      1.0  0.09339000000000001  0.64407  0.7212199999999999  1.0000
  C   C165      1.0  0.26033000000000006  0.09508  0.5632799999999999  1.0000
  C   C166      1.0  0.15022000000000002  0.5471  0.60303  1.0000
  C   C167      1.0  0.77327  0.51164  0.62394  1.0000
  C   C168      1.0  0.12997999999999996  0.10819000000000001  0.56678  1.0000
  C   C169      1.0  0.49814  0.6878099999999999  0.83441  1.0000
  C   C170      1.0  0.24114  0.15768  0.55444  1.0000
  C   C171      1.0  0.08415999999999997  0.8171100000000001  0.5450499999999999  1.0000
  C   C172      1.0  0.38936000000000004  0.5117  0.60897  1.0000
  C   C173      1.0  0.45446000000000036  0.40392  0.5893  1.0000
  C   C174      1.0  0.10987  0.17110000000000003  0.5579699999999999  1.0000
  C   C175      1.0  0.4637399999999999  0.56288  0.6234  1.0000
  C   C176      1.0  0.03091000000000013  0.80765  0.5265  1.0000
  C   C177      1.0  0.5315900000000001  0.51026  0.61671  1.0000
  C   C178      1.0  0.1544899999999999  0.44861000000000006  0.59086  1.0000
  C   C179      1.0  0.8772  0.45559000000000005  0.5769799999999999  1.0000
  C   C180      1.0  0.11099000000000007  0.47832000000000013  0.5645499999999998  1.0000
  C   C181      1.0  0.17014000000000004  0.78163  0.58551  1.0000
  C   C182      1.0  0.9870700000000002  0.40521  0.5318199999999998  1.0000
  C   C183      1.0  0.4203500000000002  0.7113800000000001  0.7875599999999998  1.0000
  C   C184      1.0  0.20113000000000006  0.3478399999999999  0.37731  1.0000
  C   C185      1.0  0.07138999999999995  0.36242  0.52937  1.0000
  C   C186      1.0  0.7296100000000005  0.54427  0.59796  1.0000
  C   C187      1.0  0.39356  0.5635600000000001  0.6197699999999999  1.0000
  C   C188      1.0  0.8341900000000001  0.48729000000000006  0.55074  1.0000
  C   C189      1.0  0.17174999999999999  0.3565200000000001  0.41417  1.0000
  C   C190      1.0  0.07433999999999992  0.29762000000000005  0.5427  1.0000
  C   C191      1.0  0.16578  0.19600000000000015  0.55185  1.0000
  C   C192      1.0  0.10727000000000006  0.3840699999999999  0.55291  1.0000
  C   C193      1.0  0.12215000000000002  0.7705200000000001  0.56821  1.0000
  C   C194      1.0  0.49158000000000024  0.68498  0.7965099999999998  1.0000
  C   C195      1.0  0.11515000000000002  0.33453000000000005  0.43252  1.0000
  C   C196      1.0  0.14205999999999985  0.8852  0.55581  1.0000
  C   C197      1.0  0.48375999999999997  0.6790500000000002  0.7258  1.0000
  C   C198      1.0  0.6357600000000001  0.62697  0.7806699999999998  1.0000
  C   C199      1.0  0.84648  0.46766000000000013  0.61363  1.0000
  C   C200      1.0  0.09777999999999983  0.7043300000000002  0.77928  1.0000
  C   C201      1.0  0.4169500000000001  0.70793  0.75184  1.0000
  C   C202      1.0  0.5561200000000001  0.6527  0.73459  1.0000
  C   C203      1.0  0.20668000000000003  0.30964  0.31913  1.0000
  C   C204      1.0  0.08853000000000003  0.30396  0.41412  1.0000
  C   C205      1.0  0.7607599999999999  0.5313300000000001  0.5615299999999999  1.0000
  C   C206      1.0  0.17483000000000007  0.31771000000000005  0.35854  1.0000
  C   C207      1.0  0.14311000000000004  0.67476  0.71643  1.0000
  C   C208      1.0  0.1457300000000001  0.70408  0.74502  1.0000
  C   C209      1.0  0.06648999999999998  0.10716  0.70407  1.0000
  C   C210      1.0  0.05090000000000016  0.04745000000000003  0.7770999999999998  1.0000
  C   C211      1.0  0.55963  0.65539  0.76999  1.0000
  C   C212      1.0  0.10178999999999998  0.009529999999999997  0.74549  1.0000
  C   C213      1.0  0.1090900000000001  0.03872000000000001  0.7095799999999998  1.0000
  C   C214      1.0  0.20480000000000004  0.06954000000000002  0.56972  1.0000
  C   C215      1.0  0.09392  0.87471  0.53901  1.0000
  C   C216      1.0  0.050450000000000016  0.92477  0.51439  1.0000
  C   C217      1.0  0.45644000000000007  0.45992  0.60175  1.0000
  C   C218      1.0  0.5278300000000001  0.45904  0.60582  1.0000
  C   C219      1.0  0.5994200000000003  0.40192000000000005  0.5977499999999999  1.0000
  C   C220      1.0  0.04616999999999997  0.6439000000000001  0.7550599999999998  1.0000
  C   C221      1.0  0.04846999999999995  0.67411  0.78418  1.0000
  C   C222      1.0  0.9965900000000004  0.6726800000000001  0.8205199999999999  1.0000
  C   C223      1.0  0.9905300000000004  0.6129700000000001  0.76135  1.0000
  C   C224      1.0  0.19248999999999986  0.9407900000000001  0.6859599999999998  1.0000
  C   C225      1.0  0.18537999999999993  0.91237  0.72123  1.0000
  C   C226      1.0  0.5742900000000001  0.91716  0.52553  1.0000
  C   C227      1.0  0.59179  0.76696  0.58252  1.0000
  C   C228      1.0  0.61047  0.8129200000000002  0.56044  1.0000
  C   C229      1.0  0.55163  0.8691300000000002  0.5504  1.0000
  C   C230      1.0  0.47472  0.8797  0.56341  1.0000
  C   C231      1.0  0.17309999999999998  0.48333  0.61014  1.0000
  C   C232      1.0  0.08522  0.54248  0.55819  1.0000
  C   C233      1.0  0.10553999999999997  0.57623  0.57702  1.0000
  C   C234      1.0  0.22205000000000003  0.0035400000000000028  0.58152  1.0000
  C   C235      1.0  0.69335  0.80368  0.54693  1.0000
  C   C236      1.0  0.17637999999999995  0.5820700000000001  0.6218  1.0000
  C   C237      1.0  0.14009999999999992  0.94657  0.7514  1.0000
  C   C238      1.0  0.15430000000000002  0.004639999999999996  0.67989  1.0000
  C   C239      1.0  0.11486999999999997  0.36328000000000005  0.48990999999999996  1.0000
  C   C240      1.0  0.18043999999999985  0.83791  0.57924  1.0000
  C   C241      1.0  0.45623000000000014  0.8335  0.58644  1.0000
  C   C242      1.0  0.5140099999999999  0.7776100000000002  0.59532  1.0000
  C   C243      1.0  0.6511199999999999  0.59191  0.60812  1.0000
  C   C244      1.0  0.20747000000000004  0.7968  0.8773699999999999  1.0000
  C   C245      1.0  0.54089  0.14398999999999998  0.22068  1.0000
  C   C246      1.0  0.08407999999999995  0.5934  0.06286  1.0000
  C   C247      1.0  0.6988600000000001  0.04712000000000001  0.10296999999999999  1.0000
  C   C248      1.0  0.09099000000000002  0.011690000000000004  0.12341999999999999  1.0000
  C   C249      1.0  0.19656999999999997  0.60833  0.06661  1.0000
  C   C250      1.0  0.98021  0.18685000000000004  0.33444  1.0000
  C   C251      1.0  0.04873000000000004  0.65584  0.05399  1.0000
  C   C252      1.0  0.55499  0.31646  0.044749999999999984  1.0000
  C   C253      1.0  0.48926999999999987  0.011549999999999996  0.10879  1.0000
  C   C254      1.0  0.5510899999999997  0.9035200000000002  0.08928  1.0000
  C   C255      1.0  0.16189999999999996  0.67111  0.05759999999999999  1.0000
  C   C256      1.0  0.34950999999999993  0.06268  0.12321999999999998  1.0000
  C   C257      1.0  0.63639  0.30671  0.026309999999999997  1.0000
  C   C258      1.0  0.3408  0.009969999999999998  0.11662  1.0000
  C   C259      1.0  0.8047000000000001  0.94851  0.09096  1.0000
  C   C260      1.0  0.08941999999999997  0.9556600000000001  0.07657  1.0000
  C   C261      1.0  0.84511  0.9780800000000001  0.06462  1.0000
  C   C262      1.0  0.46343  0.28137  0.08515999999999999  1.0000
  C   C263      1.0  0.07450999999999994  0.9052700000000002  0.03156  1.0000
  C   C264      1.0  0.08047999999999998  0.21109000000000003  0.28725999999999996  1.0000
  C   C265      1.0  0.07275000000000026  0.84874  0.8772299999999998  1.0000
  C   C266      1.0  0.035400000000000015  0.8622000000000001  0.029299999999999996  1.0000
  C   C267      1.0  0.12825  0.04424  0.09738  1.0000
  C   C268      1.0  0.42262  0.06342  0.1196  1.0000
  C   C269      1.0  0.12740999999999988  0.9871700000000002  0.05025  1.0000
  C   C270      1.0  0.056550000000000114  0.85728  0.9141099999999999  1.0000
  C   C271      1.0  0.08418999999999999  0.7975300000000001  0.04260999999999999  1.0000
  C   C272      1.0  0.08732000000000001  0.69507  0.05154999999999999  1.0000
  C   C273      1.0  0.95454  0.88384  0.05301  1.0000
  C   C274      1.0  0.53984  0.26999  0.06789  1.0000
  C   C275      1.0  0.026879999999999984  0.18439000000000005  0.29639  1.0000
  C   C276      1.0  0.1166000000000001  0.8351100000000002  0.9324599999999998  1.0000
  C   C277      1.0  0.41865  0.38497  0.055479999999999995  1.0000
  C   C278      1.0  0.11064  0.17902000000000004  0.22544  1.0000
  C   C279      1.0  0.95663  0.12590000000000004  0.28093  1.0000
  C   C280      1.0  0.07162999999999999  0.9677900000000002  0.11319999999999998  1.0000
  C   C281      1.0  0.41872  0.20424  0.27891  1.0000
  C   C282      1.0  0.12275999999999997  0.20780000000000004  0.25148  1.0000
  C   C283      1.0  0.05582999999999998  0.15248000000000003  0.23441  1.0000
  C   C284      1.0  0.16366000000000008  0.8099500000000001  0.81914  1.0000
  C   C285      1.0  0.1921699999999999  0.8046800000000002  0.9140599999999999  1.0000
  C   C286      1.0  0.14653  0.03112  0.06096  1.0000
  C   C287      1.0  0.14790999999999999  0.8185900000000002  0.8584799999999999  1.0000
  C   C288      1.0  0.46523  0.17442  0.21610999999999994  1.0000
  C   C289      1.0  0.40496  0.20368000000000003  0.24479  1.0000
  C   C290      1.0  0.12273000000000003  0.60681  0.20421  1.0000
  C   C291      1.0  0.12503000000000006  0.54684  0.27718  1.0000
  C   C292      1.0  0.014729999999999972  0.15479  0.26993  1.0000
  C   C293      1.0  0.14387999999999998  0.50901  0.24547999999999998  1.0000
  C   C294      1.0  0.14345  0.5382800000000001  0.2096  1.0000
  C   C295      1.0  0.15831000000000006  0.56885  0.06959  1.0000
  C   C296      1.0  0.49418  0.37421  0.03868  1.0000
  C   C297      1.0  0.51286  0.42413000000000006  0.014019999999999998  1.0000
  C   C298      1.0  0.48103000000000007  0.95966  0.10168  1.0000
  C   C299      1.0  0.4064799999999999  0.9587100000000001  0.10579  1.0000
  C   C300      1.0  0.3996799999999999  0.9016200000000001  0.09775999999999999  1.0000
  C   C301      1.0  0.55479  0.14421  0.25435  1.0000
  C   C302      1.0  0.4934300000000001  0.17441  0.28356  1.0000
  C   C303      1.0  0.51081  0.17341000000000004  0.31971  1.0000
  C   C304      1.0  0.6351099999999998  0.1138  0.26042  1.0000
  C   C305      1.0  0.18181999999999998  0.44036000000000003  0.18585  1.0000
  C   C306      1.0  0.18196000000000007  0.41188  0.22107999999999997  1.0000
  C   C307      1.0  0.9837400000000002  0.41787  0.0256  1.0000
  C   C308      1.0  0.05899000000000001  0.26738  0.08225  1.0000
  C   C309      1.0  0.01651999999999996  0.31345000000000006  0.06031  1.0000
  C   C310      1.0  0.029459999999999993  0.36967000000000005  0.05033  1.0000
  C   C311      1.0  0.08288999999999999  0.38021  0.06328  1.0000
  C   C312      1.0  0.7321799999999999  0.98337  0.11018  1.0000
  C   C313      1.0  0.8135700000000001  0.04223  0.05816  1.0000
  C   C314      1.0  0.74069  0.07611  0.07689  1.0000
  C   C315      1.0  0.19510000000000002  0.503  0.08163  1.0000
  C   C316      1.0  0.9562500000000002  0.30432000000000003  0.04685  1.0000
  C   C317      1.0  0.61919  0.08226000000000003  0.12185  1.0000
  C   C318      1.0  0.16273000000000007  0.44602  0.2513  1.0000
  C   C319      1.0  0.16235999999999998  0.50423  0.17984  1.0000
  C   C320      1.0  0.03044000000000011  0.8628400000000002  0.9898999999999999  1.0000
  C   C321      1.0  0.40356  0.33773  0.07889999999999997  1.0000
  C   C322      1.0  0.12445000000000003  0.33394  0.08621999999999998  1.0000
  C   C323      1.0  0.11340999999999998  0.27803  0.09499  1.0000
  C   C324      1.0  0.14787  0.09278  0.10736999999999998  1.0000
  N   N1        1.0  0.8215100000000001  0.77081  0.76564  1.0000
  N   N2        1.0  0.80056  0.7855000000000002  0.80014  1.0000
  N   N3        1.0  0.8402799999999997  0.8157600000000002  0.80627  1.0000
  N   N4        1.0  0.8387200000000002  0.75664  0.88252  1.0000
  N   N5        1.0  0.80092  0.7240700000000001  0.8774599999999999  1.0000
  N   N6        1.0  0.82157  0.6693900000000003  0.8959899999999998  1.0000
  N   N7        1.0  0.6626399999999999  0.66605  0.9002599999999998  1.0000
  N   N8        1.0  0.6441300000000003  0.72113  0.88197  1.0000
  N   N9        1.0  0.5689399999999997  0.7537100000000001  0.89028  1.0000
  N   N10       1.0  0.56623  0.8165  0.81326  1.0000
  N   N11       1.0  0.64144  0.7840400000000001  0.80343  1.0000
  N   N12       1.0  0.66031  0.7715500000000002  0.76852  1.0000
  N   N13       1.0  0.5887999999999998  0.87952  0.87175  1.0000
  N   N14       1.0  0.6642799999999999  0.8471900000000001  0.86327  1.0000
  N   N15       1.0  0.7026399999999999  0.88075  0.86616  1.0000
  N   N16       1.0  0.79417  0.64976  0.78223  1.0000
  N   N17       1.0  0.7804899999999998  0.6590700000000003  0.81732  1.0000
  N   N18       1.0  0.79493  0.6055500000000001  0.83711  1.0000
  N   N19       1.0  0.64292  0.2708  0.26526  1.0000
  N   N20       1.0  0.61474  0.28565  0.29974  1.0000
  N   N21       1.0  0.53877  0.31593  0.30583  1.0000
  N   N22       1.0  0.5219599999999996  0.25695  0.38208  1.0000
  N   N23       1.0  0.5972299999999999  0.22426000000000004  0.37707  1.0000
  N   N24       1.0  0.6123  0.16966000000000003  0.3957199999999999  1.0000
  N   N25       1.0  0.77045  0.16584  0.39995  1.0000
  N   N26       1.0  0.75266  0.22092000000000006  0.38166  1.0000
  N   N27       1.0  0.7872  0.25349000000000005  0.38992  1.0000
  N   N28       1.0  0.8053200000000001  0.31605  0.31305999999999995  1.0000
  N   N29       1.0  0.7722800000000001  0.28343  0.30338  1.0000
  N   N30       1.0  0.8005400000000003  0.27095  0.26847  1.0000
  N   N31       1.0  0.66055  0.3794700000000001  0.37141  1.0000
  N   N32       1.0  0.6258200000000002  0.34718  0.36282999999999993  1.0000
  N   N33       1.0  0.5511299999999997  0.38068  0.36579  1.0000
  N   N34       1.0  0.7738299999999999  0.1493  0.28207  1.0000
  N   N35       1.0  0.7431700000000001  0.15866  0.31717  1.0000
  N   N36       1.0  0.76214  0.10516000000000002  0.33698  1.0000
  N   N37       1.0  0.35707  0.7292000000000002  0.73474  1.0000
  N   N38       1.0  0.38524999999999987  0.7143500000000002  0.70026  1.0000
  N   N39       1.0  0.46122999999999986  0.6840600000000001  0.69416  1.0000
  N   N40       1.0  0.47803  0.7430500000000001  0.61792  1.0000
  N   N41       1.0  0.40276  0.7757400000000001  0.62293  1.0000
  N   N42       1.0  0.3877  0.83034  0.60427  1.0000
  N   N43       1.0  0.2295400000000001  0.83416  0.6000399999999999  1.0000
  N   N44       1.0  0.2473299999999999  0.77908  0.61834  1.0000
  N   N45       1.0  0.2127999999999999  0.7465100000000001  0.61008  1.0000
  N   N46       1.0  0.19468000000000002  0.6839499999999998  0.68694  1.0000
  N   N47       1.0  0.22771999999999995  0.7165600000000001  0.69662  1.0000
  N   N48       1.0  0.19944999999999996  0.7290500000000001  0.73152  1.0000
  N   N49       1.0  0.3394400000000001  0.6205200000000001  0.6285799999999998  1.0000
  N   N50       1.0  0.37417000000000006  0.65281  0.63716  1.0000
  N   N51       1.0  0.4488599999999999  0.61931  0.63421  1.0000
  N   N52       1.0  0.22615999999999997  0.8507  0.71793  1.0000
  N   N53       1.0  0.25682000000000005  0.84134  0.68283  1.0000
  N   N54       1.0  0.23785999999999982  0.8948400000000002  0.66302  1.0000
  N   N55       1.0  0.17848000000000008  0.22919  0.23435999999999998  1.0000
  N   N56       1.0  0.19942999999999997  0.21450000000000005  0.19985999999999995  1.0000
  N   N57       1.0  0.15970999999999996  0.18423000000000003  0.19373  1.0000
  N   N58       1.0  0.16127  0.24336000000000005  0.11746999999999999  1.0000
  N   N59       1.0  0.19906999999999997  0.27593000000000006  0.12252999999999999  1.0000
  N   N60       1.0  0.17842  0.33061000000000007  0.104  1.0000
  N   N61       1.0  0.33735  0.33395  0.09973  1.0000
  N   N62       1.0  0.35586999999999996  0.27887  0.11801999999999999  1.0000
  N   N63       1.0  0.43105  0.24628  0.10970999999999999  1.0000
  N   N64       1.0  0.43376000000000003  0.18349999999999997  0.18673  1.0000
  N   N65       1.0  0.35855  0.21596000000000007  0.19656999999999997  1.0000
  N   N66       1.0  0.3396800000000001  0.22845000000000004  0.23146999999999998  1.0000
  N   N67       1.0  0.41120000000000007  0.12048000000000003  0.12825  1.0000
  N   N68       1.0  0.33571  0.15281000000000003  0.13672  1.0000
  N   N69       1.0  0.29734999999999995  0.11925  0.13383  1.0000
  N   N70       1.0  0.20582999999999996  0.3502400000000001  0.21776999999999996  1.0000
  N   N71       1.0  0.21951000000000007  0.34093  0.18267999999999998  1.0000
  N   N72       1.0  0.20506000000000005  0.39445  0.16288999999999998  1.0000
  O   O1        1.0  0.7642999999999999  0.21867  0.19615  1.0000
  O   O2        1.0  0.8888500000000001  0.17084000000000005  0.19799  1.0000
  O   O3        1.0  0.4133399999999999  0.8608500000000002  0.8905299999999999  1.0000
  O   O4        1.0  0.41607  0.9421400000000001  0.8526099999999999  1.0000
  O   O5        1.0  0.8688300000000002  0.89761  0.85808  1.0000
  O   O6        1.0  0.8204199999999997  0.8778800000000001  0.91639  1.0000
  O   O7        1.0  0.84129  0.5327500000000001  0.91659  1.0000
  O   O8        1.0  0.7417400000000002  0.51679  0.90882  1.0000
  O   O9        1.0  0.9322900000000003  0.08827000000000004  0.9308699999999999  1.0000
  O   O10       1.0  0.89265  0.15884  0.03131  1.0000
  O   O11       1.0  0.95287  0.24383  0.95669  1.0000
  O   O12       1.0  0.08419  0.051889999999999985  0.95652  1.0000
  O   O13       1.0  0.8213200000000003  0.71898  0.6962499999999999  1.0000
  O   O14       1.0  0.7432800000000003  0.67052  0.69801  1.0000
  O   O15       1.0  0.83514  0.36106999999999995  0.39059  1.0000
  O   O16       1.0  0.78962  0.44244000000000006  0.35267  1.0000
  O   O17       1.0  0.3755899999999999  0.39767  0.3574399999999999  1.0000
  O   O18       1.0  0.38752  0.3803100000000001  0.41528999999999994  1.0000
  O   O19       1.0  0.7084999999999999  0.03134  0.41495  1.0000
  O   O20       1.0  0.83014  0.017059999999999995  0.41085  1.0000
  O   O21       1.0  0.04996000000000003  0.58834  0.43061  1.0000
  O   O22       1.0  0.9185899999999998  0.6589400000000001  0.53131  1.0000
  O   O23       1.0  0.8477999999999999  0.74276  0.45659999999999995  1.0000
  O   O24       1.0  0.90906  0.5515400000000001  0.45646999999999993  1.0000
  O   O25       1.0  0.1786700000000001  0.28102  0.3037499999999999  1.0000
  O   O26       1.0  0.25672  0.32947000000000004  0.30199  1.0000
  O   O27       1.0  0.16485000000000002  0.63893  0.60941  1.0000
  O   O28       1.0  0.21037  0.55756  0.64732  1.0000
  O   O29       1.0  0.6244000000000001  0.60233  0.64256  1.0000
  O   O30       1.0  0.61248  0.61968  0.5847  1.0000
  O   O31       1.0  0.2914899999999999  0.9686500000000002  0.58505  1.0000
  O   O32       1.0  0.1698600000000001  0.98294  0.58914  1.0000
  O   O33       1.0  0.95003  0.41166  0.5693899999999997  1.0000
  O   O34       1.0  0.08140999999999998  0.34106000000000003  0.46868  1.0000
  O   O35       1.0  0.15218999999999996  0.25723  0.54339  1.0000
  O   O36       1.0  0.09093999999999998  0.44846  0.54352  1.0000
  O   O37       1.0  0.23568999999999998  0.78133  0.80385  1.0000
  O   O38       1.0  0.11113999999999995  0.82916  0.802  1.0000
  O   O39       1.0  0.5866599999999998  0.13914  0.10946  1.0000
  O   O40       1.0  0.58393  0.05786000000000001  0.14739  1.0000
  O   O41       1.0  0.13116  0.10239000000000001  0.14191  1.0000
  O   O42       1.0  0.17957  0.12212000000000002  0.08361  1.0000
  O   O43       1.0  0.1587  0.46725000000000005  0.0834  1.0000
  O   O44       1.0  0.25826  0.48321  0.09117  1.0000
  O   O45       1.0  0.06770000000000001  0.91173  0.06912  1.0000
  O   O46       1.0  0.10733999999999996  0.84116  0.9686799999999999  1.0000
  O   O47       1.0  0.04712000000000001  0.75617  0.04331  1.0000
  O   O48       1.0  0.9157999999999997  0.94811  0.04348  1.0000
