data_image0
_chemical_formula_structural       Cd24H624C672O96
_chemical_formula_sum              "Cd24 H624 C672 O96"
_cell_length_a       34.62299
_cell_length_b       34.62301
_cell_length_c       34.62295
_cell_angle_alpha    59.9639
_cell_angle_beta     59.96448999999999
_cell_angle_gamma    59.964540000000014

_space_group_name_H-M_alt    "P 1"
_space_group_IT_number       1

loop_
  _space_group_symop_operation_xyz
  'x, y, z'

loop_
  _atom_site_type_symbol
  _atom_site_label
  _atom_site_symmetry_multiplicity
  _atom_site_fract_x
  _atom_site_fract_y
  _atom_site_fract_z
  _atom_site_occupancy
  Cd  Cd1       1.0  0.9275699999999999  0.5258400000000001  0.47421  1.0000
  Cd  Cd2       1.0  0.42759000000000036  0.9741599999999998  0.025889999999999993  1.0000
  Cd  Cd3       1.0  0.07248000000000006  0.52575  0.92769  1.0000
  Cd  Cd4       1.0  0.97417  0.02588000000000004  0.42759999999999987  1.0000
  Cd  Cd5       1.0  0.92752  0.47425  0.07231  1.0000
  Cd  Cd6       1.0  0.9741200000000001  0.57241  0.02583  1.0000
  Cd  Cd7       1.0  0.52575  0.92768  0.07248999999999999  1.0000
  Cd  Cd8       1.0  0.57228  0.9742099999999999  0.42754  1.0000
  Cd  Cd9       1.0  0.5724100000000002  0.025840000000000054  0.9741199999999998  1.0000
  Cd  Cd10      1.0  0.47417  0.52578  0.07244  1.0000
  Cd  Cd11      1.0  0.07232000000000012  0.9275099999999997  0.47425999999999996  1.0000
  Cd  Cd12      1.0  0.4742100000000001  0.9275700000000001  0.52583  1.0000
  Cd  Cd13      1.0  0.42771999999999993  0.025790000000000018  0.57246  1.0000
  Cd  Cd14      1.0  0.52583  0.47421000000000013  0.9275599999999998  1.0000
  Cd  Cd15      1.0  0.5257900000000001  0.07242999999999997  0.4741699999999999  1.0000
  Cd  Cd16      1.0  0.9742099999999994  0.4275399999999999  0.57229  1.0000
  Cd  Cd17      1.0  0.47425000000000006  0.07232  0.92751  1.0000
  Cd  Cd18      1.0  0.0258  0.57246  0.42771  1.0000
  Cd  Cd19      1.0  0.025829999999999936  0.97412  0.5724099999999999  1.0000
  Cd  Cd20      1.0  0.42755000000000004  0.5722799999999999  0.97421  1.0000
  Cd  Cd21      1.0  0.07244000000000013  0.4741599999999999  0.52579  1.0000
  Cd  Cd22      1.0  0.025879999999999972  0.4275900000000001  0.97417  1.0000
  Cd  Cd23      1.0  0.92769  0.07249  0.52574  1.0000
  Cd  Cd24      1.0  0.57246  0.42772  0.02579  1.0000
  H   H1        1.0  0.31294  0.55298  0.17614999999999997  1.0000
  H   H2        1.0  0.004250000000000021  0.20561  0.56051  1.0000
  H   H3        1.0  0.4277000000000001  0.2821599999999999  0.19526  1.0000
  H   H4        1.0  0.9051100000000002  0.5723199999999998  0.80472  1.0000
  H   H5        1.0  0.07233000000000012  0.4051  0.30470999999999987  1.0000
  H   H6        1.0  0.93954  0.49571  0.27034  1.0000
  H   H7        1.0  0.8120300000000005  0.8732899999999997  0.54054  1.0000
  H   H8        1.0  0.95127  0.66399  0.4606  1.0000
  H   H9        1.0  0.9577800000000001  0.55295  0.31311  1.0000
  H   H10       1.0  0.42768  0.19529000000000002  0.09488999999999997  1.0000
  H   H11       1.0  0.77465  0.89761  0.3288  1.0000
  H   H12       1.0  0.22216  0.37169  0.04390999999999999  1.0000
  H   H13       1.0  0.13770000000000002  0.27782  0.12824  1.0000
  H   H14       1.0  0.33602  0.53939  0.04873  1.0000
  H   H15       1.0  0.20557000000000003  0.004280000000000006  0.22965999999999995  1.0000
  H   H16       1.0  0.4051  0.07232  0.21782  1.0000
  H   H17       1.0  0.50424  0.06049000000000001  0.70565  1.0000
  H   H18       1.0  0.5653  0.73779  0.14221  1.0000
  H   H19       1.0  0.94508  0.35072000000000003  0.8876  1.0000
  H   H20       1.0  0.2940100000000001  0.99387  0.46017  1.0000
  H   H21       1.0  0.29407000000000005  0.25195000000000006  0.99387  1.0000
  H   H22       1.0  0.27464000000000016  0.49898000000000003  0.8287799999999997  1.0000
  H   H23       1.0  0.5010600000000003  0.7253999999999998  0.60242  1.0000
  H   H24       1.0  0.042250000000000065  0.6869100000000001  0.8237899999999998  1.0000
  H   H25       1.0  0.4602100000000003  0.25192  0.29406  1.0000
  H   H26       1.0  0.50616  0.03979999999999999  0.24813  1.0000
  H   H27       1.0  0.7254100000000003  0.6024299999999998  0.50106  1.0000
  H   H28       1.0  0.25193000000000004  0.29406  0.46021  1.0000
  H   H29       1.0  0.27415  0.3733199999999999  0.04047  1.0000
  H   H30       1.0  0.04221999999999997  0.44705  0.68689  1.0000
  H   H31       1.0  0.50525  0.62503  0.08824  1.0000
  H   H32       1.0  0.12496999999999997  0.58818  0.2815  1.0000
  H   H33       1.0  0.9034100000000002  0.32892999999999983  0.27278  1.0000
  H   H34       1.0  0.05293999999999998  0.45777  0.81313  1.0000
  H   H35       1.0  0.49897000000000014  0.3976200000000001  0.8287799999999997  1.0000
  H   H36       1.0  0.07577000000000003  0.33604  0.04877  1.0000
  H   H37       1.0  0.6834200000000001  0.6124699999999998  0.55498  1.0000
  H   H38       1.0  0.19529000000000007  0.09489000000000002  0.4276799999999999  1.0000
  H   H39       1.0  0.28156  0.005200000000000004  0.12503  1.0000
  H   H40       1.0  0.09488999999999999  0.28218000000000004  0.42768999999999996  1.0000
  H   H41       1.0  0.7704800000000004  0.43950000000000006  0.79451  1.0000
  H   H42       1.0  0.7940599999999999  0.49387  0.7519499999999999  1.0000
  H   H43       1.0  0.5014700000000002  0.039260000000000024  0.30104999999999993  1.0000
  H   H44       1.0  0.27273  0.32887  0.49499  1.0000
  H   H45       1.0  0.49893999999999994  0.2745999999999999  0.39758  1.0000
  H   H46       1.0  0.8750300000000002  0.41182000000000013  0.7184999999999998  1.0000
  H   H47       1.0  0.96059  0.16395999999999997  0.45125  1.0000
  H   H48       1.0  0.6023800000000001  0.72536  0.17118999999999998  1.0000
  H   H49       1.0  0.05471000000000001  0.06537  0.23782999999999999  1.0000
  H   H50       1.0  0.7821599999999999  0.9276800000000001  0.69527  1.0000
  H   H51       1.0  0.75193  0.9602100000000001  0.79406  1.0000
  H   H52       1.0  0.03982000000000001  0.50613  0.20598999999999995  1.0000
  H   H53       1.0  0.87332  0.7741399999999998  0.54047  1.0000
  H   H54       1.0  0.9452899999999996  0.9346299999999998  0.76217  1.0000
  H   H55       1.0  0.45614000000000016  0.13776  0.12829  1.0000
  H   H56       1.0  0.72536  0.50102  0.17123  1.0000
  H   H57       1.0  0.06531000000000016  0.64222  0.23777999999999994  1.0000
  H   H58       1.0  0.50519  0.78157  0.62503  1.0000
  H   H59       1.0  0.2704800000000001  0.29445999999999983  0.93952  1.0000
  H   H60       1.0  0.14214  0.73782  0.55466  1.0000
  H   H61       1.0  0.49854  0.96074  0.6989499999999997  1.0000
  H   H62       1.0  0.15825000000000006  0.03929999999999999  0.50154  1.0000
  H   H63       1.0  0.08826000000000005  0.7815499999999999  0.50515  1.0000
  H   H64       1.0  0.71846  0.41174  0.99484  1.0000
  H   H65       1.0  0.5757100000000002  0.836  0.03947  1.0000
  H   H66       1.0  0.8876  0.9450699999999999  0.35071999999999987  1.0000
  H   H67       1.0  0.04054000000000002  0.3733  0.31202  1.0000
  H   H68       1.0  0.68706  0.44702000000000003  0.82385  1.0000
  H   H69       1.0  0.14931000000000014  0.61238  0.68336  1.0000
  H   H70       1.0  0.05465000000000005  0.23781  0.64215  1.0000
  H   H71       1.0  0.34180000000000016  0.19903  0.9985099999999999  1.0000
  H   H72       1.0  0.21787000000000004  0.30476999999999993  0.40517  1.0000
  H   H73       1.0  0.3622500000000001  0.22214999999999993  0.04387999999999999  1.0000
  H   H74       1.0  0.7221499999999996  0.5439000000000002  0.8717  1.0000
  H   H75       1.0  0.30471  0.07232000000000002  0.4050999999999999  1.0000
  H   H76       1.0  0.55298  0.17614999999999997  0.31294  1.0000
  H   H77       1.0  0.6833600000000004  0.14931000000000005  0.6123899999999998  1.0000
  H   H78       1.0  0.99855  0.19893999999999998  0.46074  1.0000
  H   H79       1.0  0.3750300000000001  0.2185  0.91182  1.0000
  H   H80       1.0  0.0014900000000000635  0.6582  0.8009699999999997  1.0000
  H   H81       1.0  0.5438700000000001  0.8622399999999999  0.87172  1.0000
  H   H82       1.0  0.005160000000000036  0.28153999999999996  0.58826  1.0000
  H   H83       1.0  0.76217  0.9452899999999996  0.93463  1.0000
  H   H84       1.0  0.7727300000000003  0.995  0.82887  1.0000
  H   H85       1.0  0.13776000000000002  0.12828999999999996  0.45613  1.0000
  H   H86       1.0  0.8506899999999998  0.38762  0.31664  1.0000
  H   H87       1.0  0.4984999999999999  0.69904  0.84181  1.0000
  H   H88       1.0  0.9395200000000002  0.2704799999999999  0.29447  1.0000
  H   H89       1.0  0.42429000000000006  0.16400000000000006  0.9605299999999999  1.0000
  H   H90       1.0  0.37174  0.22219  0.36229999999999996  1.0000
  H   H91       1.0  0.9578100000000002  0.1762199999999999  0.55299  1.0000
  H   H92       1.0  0.9453500000000002  0.7621899999999999  0.35784999999999995  1.0000
  H   H93       1.0  0.49475000000000013  0.37496999999999997  0.9117599999999998  1.0000
  H   H94       1.0  0.7746000000000001  0.9989499999999999  0.8975699999999999  1.0000
  H   H95       1.0  0.7778500000000004  0.95612  0.63775  1.0000
  H   H96       1.0  0.37171000000000004  0.36224  0.04387999999999999  1.0000
  H   H97       1.0  0.5529799999999999  0.95781  0.17621999999999993  1.0000
  H   H98       1.0  0.8417800000000001  0.6989999999999996  0.96076  1.0000
  H   H99       1.0  0.53983  0.70599  0.00613  1.0000
  H   H100      1.0  0.32888  0.9033599999999999  0.495  1.0000
  H   H101      1.0  0.05296999999999995  0.67622  0.4578  1.0000
  H   H102      1.0  0.45953  0.12667  0.22586  1.0000
  H   H103      1.0  0.33598000000000006  0.07576  0.53946  1.0000
  H   H104      1.0  0.6712400000000003  0.0010099999999999948  0.22535  1.0000
  H   H105      1.0  0.001050000000000019  0.10243  0.22539999999999993  1.0000
  H   H106      1.0  0.82888  0.99501  0.40335  1.0000
  H   H107      1.0  0.38762000000000013  0.31664000000000003  0.8506899999999998  1.0000
  H   H108      1.0  0.69527  0.7821599999999999  0.92769  1.0000
  H   H109      1.0  0.5404700000000002  0.8733199999999999  0.7741399999999999  1.0000
  H   H110      1.0  0.9948400000000002  0.71846  0.4117399999999999  1.0000
  H   H111      1.0  0.62503  0.50519  0.78157  1.0000
  H   H112      1.0  0.4578  0.05297000000000001  0.67622  1.0000
  H   H113      1.0  0.7940500000000004  0.7519200000000001  0.9602199999999999  1.0000
  H   H114      1.0  0.4395200000000003  0.7703299999999995  0.9956899999999999  1.0000
  H   H115      1.0  0.6282600000000003  0.77781  0.6377  1.0000
  H   H116      1.0  0.6582000000000002  0.8009699999999997  0.0014899999999999998  1.0000
  H   H117      1.0  0.6377100000000001  0.62825  0.77782  1.0000
  H   H118      1.0  0.7480500000000003  0.006129999999999997  0.70593  1.0000
  H   H119      1.0  0.12668000000000013  0.22586  0.45953  1.0000
  H   H120      1.0  0.55494  0.14924999999999997  0.68339  1.0000
  H   H121      1.0  0.61246  0.55498  0.68342  1.0000
  H   H122      1.0  0.7056500000000001  0.5042399999999998  0.06049  1.0000
  H   H123      1.0  0.6249800000000003  0.7814999999999996  0.08818  1.0000
  H   H124      1.0  0.6639599999999997  0.9512300000000001  0.92423  1.0000
  H   H125      1.0  0.301  0.03924000000000001  0.15821999999999997  1.0000
  H   H126      1.0  0.23780999999999994  0.64216  0.05465  1.0000
  H   H127      1.0  0.68339  0.55494  0.14925  1.0000
  H   H128      1.0  0.6952900000000005  0.9276699999999997  0.5948999999999998  1.0000
  H   H129      1.0  0.06045999999999999  0.5042899999999999  0.72967  1.0000
  H   H130      1.0  0.7778200000000002  0.6377  0.62826  1.0000
  H   H131      1.0  0.17112  0.22728  0.00498  1.0000
  H   H132      1.0  0.6711300000000002  0.505  0.72728  1.0000
  H   H133      1.0  0.7821800000000002  0.5949  0.9276799999999997  1.0000
  H   H134      1.0  0.96018  0.49387  0.79401  1.0000
  H   H135      1.0  0.49386000000000024  0.7519500000000001  0.79407  1.0000
  H   H136      1.0  0.9512  0.46054000000000006  0.9241099999999998  1.0000
  H   H137      1.0  0.04872999999999999  0.33601  0.5394  1.0000
  H   H138      1.0  0.7727500000000002  0.4033299999999999  0.99502  1.0000
  H   H139      1.0  0.5398  0.74807  0.70594  1.0000
  H   H140      1.0  0.5966800000000002  0.004969999999999995  0.22725  1.0000
  H   H141      1.0  0.27419  0.31207  0.37336  1.0000
  H   H142      1.0  0.38753999999999994  0.44502  0.31657999999999986  1.0000
  H   H143      1.0  0.6421800000000002  0.06535  0.054679999999999986  1.0000
  H   H144      1.0  0.99474  0.41176  0.87498  1.0000
  H   H145      1.0  0.9346900000000001  0.35778000000000004  0.76222  1.0000
  H   H146      1.0  0.4606000000000001  0.95127  0.6639799999999999  1.0000
  H   H147      1.0  0.9989500000000001  0.89757  0.7745999999999998  1.0000
  H   H148      1.0  0.004980000000000019  0.59666  0.17112  1.0000
  H   H149      1.0  0.2184499999999999  0.49485  0.91174  1.0000
  H   H150      1.0  0.20593999999999993  0.5061300000000001  0.24805  1.0000
  H   H151      1.0  0.49576000000000003  0.9395099999999998  0.29435  1.0000
  H   H152      1.0  0.07230999999999999  0.30473  0.21784  1.0000
  H   H153      1.0  0.04045999999999997  0.27415  0.37333  1.0000
  H   H154      1.0  0.77414  0.5404700000000001  0.8733199999999998  1.0000
  H   H155      1.0  0.82379  0.04224999999999998  0.68691  1.0000
  H   H156      1.0  0.30473000000000017  0.21783999999999995  0.07232  1.0000
  H   H157      1.0  0.03942000000000009  0.8360399999999998  0.54875  1.0000
  H   H158      1.0  0.19899  0.34177  0.46076  1.0000
  H   H159      1.0  0.8131100000000003  0.45773999999999976  0.67622  1.0000
  H   H160      1.0  0.18797000000000003  0.12671000000000002  0.45946  1.0000
  H   H161      1.0  0.40510000000000024  0.30471  0.07233  1.0000
  H   H162      1.0  0.4511800000000002  0.42416999999999994  0.9605299999999999  1.0000
  H   H163      1.0  0.55498  0.6834199999999999  0.61246  1.0000
  H   H164      1.0  0.2778500000000001  0.4560999999999999  0.1283  1.0000
  H   H165      1.0  0.5042800000000002  0.7056  0.72965  1.0000
  H   H166      1.0  0.5487499999999998  0.03941  0.83604  1.0000
  H   H167      1.0  0.17122999999999997  0.50103  0.60238  1.0000
  H   H168      1.0  0.32378  0.5422  0.94703  1.0000
  H   H169      1.0  0.6283  0.63776  0.9561199999999997  1.0000
  H   H170      1.0  0.006140000000000143  0.7059299999999997  0.74805  1.0000
  H   H171      1.0  0.8165900000000007  0.9450299999999999  0.88753  1.0000
  H   H172      1.0  0.11239000000000009  0.6493199999999998  0.18335  1.0000
  H   H173      1.0  0.46076  0.19898999999999997  0.34177  1.0000
  H   H174      1.0  0.28214000000000006  0.09481999999999999  0.19523  1.0000
  H   H175      1.0  0.20550000000000018  0.22951999999999995  0.5605  1.0000
  H   H176      1.0  0.3288  0.77464  0.89762  1.0000
  H   H177      1.0  0.9607599999999998  0.84178  0.699  1.0000
  H   H178      1.0  0.81665  0.88761  0.35068  1.0000
  H   H179      1.0  0.62831  0.9560899999999996  0.77784  1.0000
  H   H180      1.0  0.4347000000000001  0.26220999999999994  0.85779  1.0000
  H   H181      1.0  0.95947  0.6267  0.68798  1.0000
  H   H182      1.0  0.87498  0.7184299999999999  0.99481  1.0000
  H   H183      1.0  0.17622000000000002  0.5529799999999999  0.95781  1.0000
  H   H184      1.0  0.28154  0.58826  0.00516  1.0000
  H   H185      1.0  0.49572000000000044  0.29439  0.27035  1.0000
  H   H186      1.0  0.09663  0.50501  0.67112  1.0000
  H   H187      1.0  0.5948999999999999  0.9276800000000001  0.78218  1.0000
  H   H188      1.0  0.8876100000000003  0.3506799999999999  0.81665  1.0000
  H   H189      1.0  0.1990300000000002  0.9985199999999996  0.34179  1.0000
  H   H190      1.0  0.31309000000000003  0.17620999999999998  0.95775  1.0000
  H   H191      1.0  0.74808  0.70594  0.53979  1.0000
  H   H192      1.0  0.5605  0.20549000000000003  0.22952  1.0000
  H   H193      1.0  0.72582  0.68793  0.62664  1.0000
  H   H194      1.0  0.70554  0.060479999999999985  0.72952  1.0000
  H   H195      1.0  0.5723200000000002  0.8047099999999999  0.90511  1.0000
  H   H196      1.0  0.44507  0.3876  0.85073  1.0000
  H   H197      1.0  0.28217000000000003  0.19526  0.42768999999999996  1.0000
  H   H198      1.0  0.16394000000000006  0.42428999999999994  0.45120999999999994  1.0000
  H   H199      1.0  0.22585000000000016  0.18796999999999991  0.4595  1.0000
  H   H200      1.0  0.054679999999999986  0.64218  0.06535  1.0000
  H   H201      1.0  0.18793000000000004  0.22582  0.12664  1.0000
  H   H202      1.0  0.2943500000000003  0.49576000000000003  0.93951  1.0000
  H   H203      1.0  0.12665  0.18792000000000003  0.22582  1.0000
  H   H204      1.0  0.22726999999999997  0.004999999999999997  0.17113  1.0000
  H   H205      1.0  0.30104000000000003  0.50147  0.03927  1.0000
  H   H206      1.0  0.70594  0.74805  0.00613  1.0000
  H   H207      1.0  0.17108000000000007  0.59661  0.22721  1.0000
  H   H208      1.0  0.45613  0.2778499999999999  0.13774  1.0000
  H   H209      1.0  0.44704999999999995  0.68688  0.04221999999999999  1.0000
  H   H210      1.0  0.94704  0.18704000000000004  0.32385  1.0000
  H   H211      1.0  0.12503  0.00526  0.58824  1.0000
  H   H212      1.0  0.22725  0.59667  0.00498  1.0000
  H   H213      1.0  0.22540000000000002  0.0010500000000000067  0.10242999999999998  1.0000
  H   H214      1.0  0.7815500000000001  0.5051499999999999  0.08826  1.0000
  H   H215      1.0  0.32385000000000014  0.9470299999999998  0.18704  1.0000
  H   H216      1.0  0.5405  0.77415  0.81203  1.0000
  H   H217      1.0  0.043910000000000046  0.22215999999999997  0.3717  1.0000
  H   H218      1.0  0.99898  0.32877000000000006  0.89761  1.0000
  H   H219      1.0  0.4605500000000001  0.9241099999999999  0.9512  1.0000
  H   H220      1.0  0.07576999999999993  0.5394500000000001  0.33596999999999994  1.0000
  H   H221      1.0  0.70599  0.006129999999999997  0.53983  1.0000
  H   H222      1.0  0.34174000000000004  0.9984899999999999  0.4607  1.0000
  H   H223      1.0  0.2940500000000001  0.4602099999999998  0.25192  1.0000
  H   H224      1.0  0.7377899999999998  0.14221  0.5653  1.0000
  H   H225      1.0  0.5529600000000002  0.3131099999999999  0.95778  1.0000
  H   H226      1.0  0.10239000000000002  0.0010199999999999905  0.67124  1.0000
  H   H227      1.0  0.43464  0.4452799999999999  0.26215  1.0000
  H   H228      1.0  0.5882600000000001  0.00516  0.28154  1.0000
  H   H229      1.0  0.31202  0.040539999999999986  0.37329  1.0000
  H   H230      1.0  0.9346299999999993  0.76216  0.94529  1.0000
  H   H231      1.0  0.6879800000000003  0.95946  0.62671  1.0000
  H   H232      1.0  0.22966000000000017  0.0043200000000000035  0.56048  1.0000
  H   H233      1.0  0.77418  0.8733500000000001  0.8120699999999997  1.0000
  H   H234      1.0  0.39762000000000014  0.27464  0.8288099999999998  1.0000
  H   H235      1.0  0.31202  0.27416  0.0405  1.0000
  H   H236      1.0  0.11247000000000001  0.18340999999999996  0.05497  1.0000
  H   H237      1.0  0.505  0.6711199999999999  0.09664  1.0000
  H   H238      1.0  0.1868700000000001  0.9470599999999999  0.54223  1.0000
  H   H239      1.0  0.6493200000000002  0.18334999999999996  0.11238999999999998  1.0000
  H   H240      1.0  0.92768  0.5949  0.69529  1.0000
  H   H241      1.0  0.3507200000000001  0.88759  0.9450799999999999  1.0000
  H   H242      1.0  0.0010100000000000326  0.22534999999999997  0.67123  1.0000
  H   H243      1.0  0.7185  0.87503  0.4118199999999999  1.0000
  H   H244      1.0  0.22953  0.5605  0.2055  1.0000
  H   H245      1.0  0.49387000000000003  0.7940099999999999  0.96018  1.0000
  H   H246      1.0  0.93466  0.94532  0.35782  1.0000
  H   H247      1.0  0.4984599999999998  0.8417400000000002  0.96071  1.0000
  H   H248      1.0  0.32888  0.4949999999999999  0.27273  1.0000
  H   H249      1.0  0.7221500000000004  0.8622499999999998  0.54388  1.0000
  H   H250      1.0  0.20595000000000008  0.24808  0.03979  1.0000
  H   H251      1.0  0.5547200000000001  0.73784  0.56536  1.0000
  H   H252      1.0  0.5050000000000002  0.09666000000000007  0.7272399999999998  1.0000
  H   H253      1.0  0.03929000000000003  0.5015299999999999  0.15825999999999998  1.0000
  H   H254      1.0  0.6879299999999999  0.62664  0.72581  1.0000
  H   H255      1.0  0.6024199999999996  0.50106  0.72541  1.0000
  H   H256      1.0  0.8237799999999998  0.44702  0.042189999999999984  1.0000
  H   H257      1.0  0.1124  0.05492000000000003  0.6492899999999999  1.0000
  H   H258      1.0  0.43949999999999984  0.7945100000000002  0.77048  1.0000
  H   H259      1.0  0.08824000000000015  0.5052499999999998  0.62503  1.0000
  H   H260      1.0  0.9607100000000001  0.49847  0.84174  1.0000
  H   H261      1.0  0.90518  0.80477  0.71786  1.0000
  H   H262      1.0  0.94706  0.54223  0.18687  1.0000
  H   H263      1.0  0.1582300000000001  0.3009999999999999  0.03924  1.0000
  H   H264      1.0  0.4595000000000001  0.22584999999999988  0.18797  1.0000
  H   H265      1.0  0.7518699999999998  0.49384000000000006  0.9601899999999998  1.0000
  H   H266      1.0  0.35778000000000015  0.7622199999999999  0.9347  1.0000
  H   H267      1.0  0.8976100000000001  0.9989799999999999  0.32877  1.0000
  H   H268      1.0  0.6266800000000001  0.95953  0.7258499999999999  1.0000
  H   H269      1.0  0.08818000000000006  0.62497  0.78151  1.0000
  H   H270      1.0  0.71786  0.9051699999999999  0.80477  1.0000
  H   H271      1.0  0.7622200000000001  0.93469  0.35778  1.0000
  H   H272      1.0  0.3166100000000003  0.44505999999999996  0.85075  1.0000
  H   H273      1.0  0.46019000000000015  0.9938399999999996  0.25187  1.0000
  H   H274      1.0  0.33604  0.04877000000000001  0.07576999999999999  1.0000
  H   H275      1.0  0.09488999999999999  0.42768  0.19528999999999996  1.0000
  H   H276      1.0  0.7258400000000002  0.9595  0.68798  1.0000
  H   H277      1.0  0.7945  0.77047  0.43951  1.0000
  H   H278      1.0  0.16400000000000017  0.9605199999999996  0.4243  1.0000
  H   H279      1.0  0.41182000000000035  0.7184999999999997  0.87503  1.0000
  H   H280      1.0  0.30095999999999995  0.1582  0.5015  1.0000
  H   H281      1.0  0.40332999999999997  0.9950300000000001  0.77275  1.0000
  H   H282      1.0  0.6869100000000004  0.82378  0.04224999999999999  1.0000
  H   H283      1.0  0.09660000000000006  0.6710699999999998  0.72722  1.0000
  H   H284      1.0  0.77034  0.9956800000000001  0.43952  1.0000
  H   H285      1.0  0.39762000000000003  0.82877  0.49897  1.0000
  H   H286      1.0  0.27275  0.49501000000000006  0.9033499999999999  1.0000
  H   H287      1.0  0.17112000000000005  0.004990000000000001  0.59666  1.0000
  H   H288      1.0  0.49570000000000003  0.27033999999999997  0.93954  1.0000
  H   H289      1.0  0.8166199999999999  0.35074  0.9450699999999999  1.0000
  H   H290      1.0  0.18690000000000012  0.54226  0.3237799999999999  1.0000
  H   H291      1.0  0.12829  0.45613  0.13776  1.0000
  H   H292      1.0  0.9450300000000008  0.8875300000000002  0.81659  1.0000
  H   H293      1.0  0.5653700000000004  0.55472  0.73785  1.0000
  H   H294      1.0  0.27784999999999993  0.13774000000000003  0.45613  1.0000
  H   H295      1.0  0.06534999999999999  0.054679999999999986  0.64218  1.0000
  H   H296      1.0  0.8360399999999999  0.54875  0.03941  1.0000
  H   H297      1.0  0.27278  0.9034  0.3289299999999999  1.0000
  H   H298      1.0  0.78151  0.08817999999999998  0.62497  1.0000
  H   H299      1.0  0.38760000000000033  0.8507299999999998  0.44507  1.0000
  H   H300      1.0  0.40517  0.21787000000000004  0.30477  1.0000
  H   H301      1.0  0.8749700000000002  0.9947399999999998  0.41175999999999996  1.0000
  H   H302      1.0  0.8120300000000004  0.5405  0.77415  1.0000
  H   H303      1.0  0.03981000000000001  0.24812999999999996  0.50616  1.0000
  H   H304      1.0  0.03947000000000002  0.5757  0.8359999999999999  1.0000
  H   H305      1.0  0.9950100000000002  0.82888  0.7727299999999999  1.0000
  H   H306      1.0  0.3623000000000001  0.37174999999999986  0.22218  1.0000
  H   H307      1.0  0.42417000000000005  0.9605299999999999  0.45118  1.0000
  H   H308      1.0  0.64926  0.05492999999999997  0.18338  1.0000
  H   H309      1.0  0.91174  0.21844999999999992  0.49485  1.0000
  H   H310      1.0  0.2059900000000001  0.039819999999999994  0.50613  1.0000
  H   H311      1.0  0.8578599999999998  0.2621800000000001  0.4453399999999999  1.0000
  H   H312      1.0  0.6989600000000001  0.49853  0.96073  1.0000
  H   H313      1.0  0.67616  0.05297000000000001  0.81296  1.0000
  H   H314      1.0  0.04220000000000003  0.82378  0.44702  1.0000
  H   H315      1.0  0.32876999999999995  0.89761  0.9989799999999999  1.0000
  H   H316      1.0  0.72966  0.06045999999999999  0.5043  1.0000
  H   H317      1.0  0.04387000000000013  0.37170999999999976  0.36224  1.0000
  H   H318      1.0  0.06049000000000004  0.70565  0.50424  1.0000
  H   H319      1.0  0.7296499999999999  0.50427  0.70561  1.0000
  H   H320      1.0  0.67123  0.10238999999999998  0.00102  1.0000
  H   H321      1.0  0.3578200000000001  0.9346499999999999  0.94532  1.0000
  H   H322      1.0  0.8129599999999999  0.67615  0.05297  1.0000
  H   H323      1.0  0.7741600000000002  0.8120299999999998  0.5405  1.0000
  H   H324      1.0  0.6710800000000003  0.72721  0.0966  1.0000
  H   H325      1.0  0.6762200000000003  0.8131099999999998  0.45774  1.0000
  H   H326      1.0  0.4452800000000002  0.26216  0.4346399999999999  1.0000
  H   H327      1.0  0.99569  0.4395200000000001  0.77034  1.0000
  H   H328      1.0  0.7221800000000002  0.8717500000000001  0.8623  1.0000
  H   H329      1.0  0.7272299999999999  0.09659999999999999  0.67107  1.0000
  H   H330      1.0  0.8360600000000001  0.5757099999999998  0.54879  1.0000
  H   H331      1.0  0.22536000000000014  0.6712299999999998  0.00101  1.0000
  H   H332      1.0  0.4512500000000001  0.9605899999999999  0.16395999999999997  1.0000
  H   H333      1.0  0.5723100000000001  0.9050999999999999  0.71782  1.0000
  H   H334      1.0  0.9602100000000002  0.7940600000000001  0.7519299999999998  1.0000
  H   H335      1.0  0.31310999999999994  0.9577799999999999  0.55295  1.0000
  H   H336      1.0  0.62665  0.72581  0.68793  1.0000
  H   H337      1.0  0.93952  0.29435  0.49576  1.0000
  H   H338      1.0  0.5549399999999999  0.6124  0.14927  1.0000
  H   H339      1.0  0.3733  0.31202  0.040539999999999986  1.0000
  H   H340      1.0  0.22535000000000005  0.10238  0.6712  1.0000
  H   H341      1.0  0.6377500000000002  0.7778400000000001  0.9561199999999997  1.0000
  H   H342      1.0  0.07589  0.048799999999999996  0.53945  1.0000
  H   H343      1.0  0.8717000000000003  0.7221499999999997  0.5439  1.0000
  H   H344      1.0  0.12825  0.1377  0.27782  1.0000
  H   H345      1.0  0.77784  0.62831  0.95609  1.0000
  H   H346      1.0  0.61239  0.68335  0.14930999999999994  1.0000
  H   H347      1.0  0.001020000000000119  0.6712299999999998  0.10238999999999998  1.0000
  H   H348      1.0  0.004299999999999965  0.22965000000000002  0.20557  1.0000
  H   H349      1.0  0.19894999999999996  0.46073  0.99855  1.0000
  H   H350      1.0  0.7059499999999999  0.53979  0.74808  1.0000
  H   H351      1.0  0.9560999999999998  0.77784  0.62831  1.0000
  H   H352      1.0  0.5966100000000001  0.22722000000000003  0.17106999999999997  1.0000
  H   H353      1.0  0.25194999999999995  0.99386  0.29407  1.0000
  H   H354      1.0  0.05493000000000007  0.18338000000000004  0.6492599999999997  1.0000
  H   H355      1.0  0.84181  0.49849  0.69904  1.0000
  H   H356      1.0  0.9938600000000003  0.2940699999999999  0.25195  1.0000
  H   H357      1.0  0.64928  0.11241  0.05493  1.0000
  H   H358      1.0  0.039470000000000074  0.54882  0.5758299999999997  1.0000
  H   H359      1.0  0.9607400000000001  0.69896  0.49852999999999986  1.0000
  H   H360      1.0  0.72536  0.17119  0.60238  1.0000
  H   H361      1.0  0.5439000000000003  0.8716999999999998  0.72215  1.0000
  H   H362      1.0  0.7481300000000003  0.53981  0.006159999999999998  1.0000
  H   H363      1.0  0.09665999999999998  0.72725  0.50499  1.0000
  H   H364      1.0  0.6711199999999999  0.09664  0.505  1.0000
  H   H365      1.0  0.8287800000000001  0.49897  0.39762  1.0000
  H   H366      1.0  0.7621900000000001  0.3578399999999999  0.9453499999999998  1.0000
  H   H367      1.0  0.24812999999999996  0.50616  0.03981  1.0000
  H   H368      1.0  0.85073  0.44506  0.3875999999999999  1.0000
  H   H369      1.0  0.5605  0.004250000000000005  0.20561  1.0000
  H   H370      1.0  0.26216  0.43463  0.44528  1.0000
  H   H371      1.0  0.19525999999999996  0.42768999999999996  0.28217  1.0000
  H   H372      1.0  0.5722999999999999  0.71783  0.8047399999999998  1.0000
  H   H373      1.0  0.6640300000000003  0.92424  0.46054  1.0000
  H   H374      1.0  0.4117400000000001  0.9948399999999998  0.71846  1.0000
  H   H375      1.0  0.59665  0.17112  0.00499  1.0000
  H   H376      1.0  0.37497000000000014  0.91176  0.49475  1.0000
  H   H377      1.0  0.12830000000000003  0.2778499999999998  0.4561  1.0000
  H   H378      1.0  0.29446000000000006  0.93952  0.27048  1.0000
  H   H379      1.0  0.9033700000000001  0.49499000000000004  0.32888  1.0000
  H   H380      1.0  0.8717500000000001  0.8623  0.72218  1.0000
  H   H381      1.0  0.32891999999999993  0.27279000000000003  0.9034  1.0000
  H   H382      1.0  0.15819000000000008  0.5014999999999997  0.30096  1.0000
  H   H383      1.0  0.5010200000000004  0.1712200000000001  0.7253599999999998  1.0000
  H   H384      1.0  0.5043  0.72966  0.06046  1.0000
  H   H385      1.0  0.1639599999999999  0.45125000000000004  0.96059  1.0000
  H   H386      1.0  0.05497000000000001  0.11246000000000002  0.18340999999999993  1.0000
  H   H387      1.0  0.9957500000000001  0.7943899999999998  0.4395  1.0000
  H   H388      1.0  0.9242300000000001  0.46054000000000006  0.66403  1.0000
  H   H389      1.0  0.1492700000000002  0.55493  0.6123999999999998  1.0000
  H   H390      1.0  0.56048  0.22967  0.00431  1.0000
  H   H391      1.0  0.8507600000000002  0.31661  0.44506  1.0000
  H   H392      1.0  0.53946  0.3359799999999999  0.07576  1.0000
  H   H393      1.0  0.95951  0.68798  0.7258399999999998  1.0000
  H   H394      1.0  0.5422100000000002  0.9470299999999998  0.3237799999999999  1.0000
  H   H395      1.0  0.45946  0.18797  0.12671  1.0000
  H   H396      1.0  0.34177000000000013  0.4607599999999999  0.19899  1.0000
  H   H397      1.0  0.9938700000000001  0.4601800000000001  0.2940099999999999  1.0000
  H   H398      1.0  0.27035000000000015  0.9395399999999999  0.4957  1.0000
  H   H399      1.0  0.20560999999999996  0.5605  0.00426  1.0000
  H   H400      1.0  0.80106  0.53927  0.0014499999999999997  1.0000
  H   H401      1.0  0.6712  0.22535  0.10238  1.0000
  H   H402      1.0  0.8732900000000001  0.54054  0.81203  1.0000
  H   H403      1.0  0.06048000000000009  0.72952  0.7055299999999999  1.0000
  H   H404      1.0  0.53924  0.8010100000000001  0.65823  1.0000
  H   H405      1.0  0.45777000000000023  0.8131299999999999  0.05294  1.0000
  H   H406      1.0  0.70561  0.72965  0.50427  1.0000
  H   H407      1.0  0.9601999999999997  0.7518700000000001  0.4938499999999999  1.0000
  H   H408      1.0  0.49898000000000003  0.82878  0.27464  1.0000
  H   H409      1.0  0.49481  0.21843  0.37497  1.0000
  H   H410      1.0  0.94507  0.8166200000000001  0.35073999999999994  1.0000
  H   H411      1.0  0.03978999999999998  0.20594  0.24808  1.0000
  H   H412      1.0  0.00498999999999999  0.17112  0.22727  1.0000
  H   H413      1.0  0.73782  0.55466  0.14215  1.0000
  H   H414      1.0  0.0061599999999999815  0.74813  0.53981  1.0000
  H   H415      1.0  0.7258500000000001  0.62668  0.95953  1.0000
  H   H416      1.0  0.22965  0.20557  0.00429  1.0000
  H   H417      1.0  0.37333  0.04046999999999997  0.27415  1.0000
  H   H418      1.0  0.78214  0.69523  0.59483  1.0000
  H   H419      1.0  0.699  0.96076  0.8417799999999999  1.0000
  H   H420      1.0  0.4470200000000003  0.04219000000000007  0.8237799999999997  1.0000
  H   H421      1.0  0.9948000000000001  0.87497  0.71844  1.0000
  H   H422      1.0  0.2746000000000001  0.3975699999999999  0.49893999999999994  1.0000
  H   H423      1.0  0.17621000000000028  0.9577499999999995  0.31309  1.0000
  H   H424      1.0  0.8717200000000003  0.5438700000000001  0.8622399999999998  1.0000
  H   H425      1.0  0.29439  0.27035  0.4957299999999999  1.0000
  H   H426      1.0  0.7944299999999999  0.9957100000000001  0.77034  1.0000
  H   H427      1.0  0.5758300000000001  0.03946999999999994  0.54883  1.0000
  H   H428      1.0  0.5050099999999996  0.72727  0.67113  1.0000
  H   H429      1.0  0.79401  0.9601699999999999  0.49387  1.0000
  H   H430      1.0  0.67623  0.4578  0.05297  1.0000
  H   H431      1.0  0.28150000000000003  0.12497000000000008  0.5881799999999998  1.0000
  H   H432      1.0  0.54054  0.81202  0.87329  1.0000
  H   H433      1.0  0.46071000000000006  0.3417300000000001  0.9984899999999998  1.0000
  H   H434      1.0  0.9989899999999998  0.7746400000000001  0.32877  1.0000
  H   H435      1.0  0.54226  0.32378  0.1869  1.0000
  H   H436      1.0  0.95612  0.63775  0.77785  1.0000
  H   H437      1.0  0.03927000000000006  0.30103999999999986  0.50147  1.0000
  H   H438      1.0  0.4346600000000001  0.8578199999999998  0.44531  1.0000
  H   H439      1.0  0.22582000000000002  0.12663999999999997  0.18793  1.0000
  H   H440      1.0  0.21843  0.37496999999999997  0.49481  1.0000
  H   H441      1.0  0.37498000000000004  0.49480999999999997  0.21843  1.0000
  H   H442      1.0  0.8289300000000002  0.40339  0.77279  1.0000
  H   H443      1.0  0.5438800000000003  0.7221499999999997  0.8622599999999999  1.0000
  H   H444      1.0  0.8047800000000002  0.71786  0.90518  1.0000
  H   H445      1.0  0.8009799999999999  0.001479999999999993  0.65821  1.0000
  H   H446      1.0  0.18704  0.32385  0.94703  1.0000
  H   H447      1.0  0.55466  0.14214  0.73782  1.0000
  H   H448      1.0  0.6868900000000001  0.042220000000000056  0.4470499999999999  1.0000
  H   H449      1.0  0.3506799999999999  0.81665  0.88761  1.0000
  H   H450      1.0  0.5487900000000001  0.8360699999999999  0.5757099999999999  1.0000
  H   H451      1.0  0.50613  0.20598999999999995  0.03982  1.0000
  H   H452      1.0  0.49385  0.9601999999999999  0.75187  1.0000
  H   H453      1.0  0.17123000000000008  0.72536  0.50102  1.0000
  H   H454      1.0  0.8622599999999999  0.54387  0.72215  1.0000
  H   H455      1.0  0.77465  0.32877  0.9989899999999999  1.0000
  H   H456      1.0  0.71784  0.8047299999999998  0.57231  1.0000
  H   H457      1.0  0.836  0.03947000000000003  0.5756999999999999  1.0000
  H   H458      1.0  0.10239000000000001  0.6712  0.22535  1.0000
  H   H459      1.0  0.9470300000000003  0.32378  0.5422  1.0000
  H   H460      1.0  0.21784  0.07230999999999999  0.30473  1.0000
  H   H461      1.0  0.8578299999999999  0.44531  0.43466  1.0000
  H   H462      1.0  0.7184400000000001  0.9948  0.87497  1.0000
  H   H463      1.0  0.56534  0.14217000000000002  0.55469  1.0000
  H   H464      1.0  0.9605300000000001  0.42430000000000007  0.16399999999999995  1.0000
  H   H465      1.0  0.50515  0.08825999999999998  0.78154  1.0000
  H   H466      1.0  0.24808  0.03979000000000003  0.20594999999999994  1.0000
  H   H467      1.0  0.62671  0.68798  0.95946  1.0000
  H   H468      1.0  0.05297000000000005  0.8129600000000001  0.6761599999999999  1.0000
  H   H469      1.0  0.0015200000000001048  0.5392899999999998  0.65826  1.0000
  H   H470      1.0  0.7272699999999999  0.6711300000000001  0.50501  1.0000
  H   H471      1.0  0.0043199999999999844  0.56047  0.22965999999999995  1.0000
  H   H472      1.0  0.12671000000000002  0.4594599999999999  0.18797999999999995  1.0000
  H   H473      1.0  0.06537000000000004  0.23783999999999994  0.05470999999999999  1.0000
  H   H474      1.0  0.23778999999999995  0.06531000000000003  0.64222  1.0000
  H   H475      1.0  0.8010100000000001  0.6582299999999999  0.53924  1.0000
  H   H476      1.0  0.0014500000000000257  0.80106  0.53926  1.0000
  H   H477      1.0  0.39758000000000004  0.49894  0.2746  1.0000
  H   H478      1.0  0.17614999999999997  0.31294  0.55298  1.0000
  H   H479      1.0  0.5422299999999999  0.18686999999999998  0.94706  1.0000
  H   H480      1.0  0.6952300000000001  0.5948299999999997  0.78214  1.0000
  H   H481      1.0  0.12502000000000005  0.2815699999999999  0.0052  1.0000
  H   H482      1.0  0.46073  0.99855  0.19894  1.0000
  H   H483      1.0  0.2221900000000001  0.36230000000000007  0.3717499999999999  1.0000
  H   H484      1.0  0.5393000000000001  0.65827  0.00151  1.0000
  H   H485      1.0  0.40339000000000036  0.77278  0.82893  1.0000
  H   H486      1.0  0.22722000000000012  0.17106999999999997  0.5966199999999998  1.0000
  H   H487      1.0  0.54882  0.57583  0.03947  1.0000
  H   H488      1.0  0.91176  0.4947500000000001  0.37497  1.0000
  H   H489      1.0  0.3716900000000001  0.04391000000000001  0.22215999999999994  1.0000
  H   H490      1.0  0.7815700000000001  0.62503  0.50519  1.0000
  H   H491      1.0  0.4450600000000002  0.85075  0.31661  1.0000
  H   H492      1.0  0.4950000000000003  0.9033399999999998  0.27276  1.0000
  H   H493      1.0  0.37336  0.27419000000000004  0.31206999999999996  1.0000
  H   H494      1.0  0.6421500000000001  0.05464999999999999  0.23781  1.0000
  H   H495      1.0  0.10243000000000002  0.22539999999999993  0.00105  1.0000
  H   H496      1.0  0.50154  0.15825  0.03929999999999999  1.0000
  H   H497      1.0  0.8288800000000003  0.7727199999999995  0.99502  1.0000
  H   H498      1.0  0.23784  0.05471  0.06537  1.0000
  H   H499      1.0  0.5757100000000003  0.54879  0.83606  1.0000
  H   H500      1.0  0.14925000000000002  0.68339  0.55494  1.0000
  H   H501      1.0  0.50151  0.3009599999999999  0.15819  1.0000
  H   H502      1.0  0.9950200000000001  0.40334  0.82889  1.0000
  H   H503      1.0  0.07232000000000008  0.21782  0.4050999999999999  1.0000
  H   H504      1.0  0.31659  0.38753000000000004  0.4450299999999999  1.0000
  H   H505      1.0  0.35074000000000033  0.9450699999999999  0.8166199999999998  1.0000
  H   H506      1.0  0.90511  0.71782  0.57231  1.0000
  H   H507      1.0  0.55469  0.5653399999999998  0.14217  1.0000
  H   H508      1.0  0.7519500000000002  0.79406  0.49387  1.0000
  H   H509      1.0  0.4450200000000001  0.31658  0.38754  1.0000
  H   H510      1.0  0.7378400000000002  0.5653699999999997  0.55472  1.0000
  H   H511      1.0  0.9957000000000005  0.77035  0.7944399999999998  1.0000
  H   H512      1.0  0.17120000000000002  0.6023700000000002  0.7253599999999998  1.0000
  H   H513      1.0  0.6582400000000002  0.53923  0.80102  1.0000
  H   H514      1.0  0.89762  0.32880000000000004  0.77465  1.0000
  H   H515      1.0  0.50103  0.60238  0.17123  1.0000
  H   H516      1.0  0.039240000000000046  0.15821999999999997  0.301  1.0000
  H   H517      1.0  0.5398100000000002  0.0061600000000000136  0.74813  1.0000
  H   H518      1.0  0.77035  0.7944200000000001  0.99571  1.0000
  H   H519      1.0  0.22215000000000001  0.04388000000000001  0.36225  1.0000
  H   H520      1.0  0.92423  0.6639600000000001  0.95123  1.0000
  H   H521      1.0  0.9276800000000002  0.78218  0.5948999999999998  1.0000
  H   H522      1.0  0.5392699999999999  0.0014500000000000064  0.80106  1.0000
  H   H523      1.0  0.6124  0.14927  0.55493  1.0000
  H   H524      1.0  0.4453400000000002  0.8578599999999998  0.26218  1.0000
  H   H525      1.0  0.9605300000000001  0.45117000000000007  0.42416999999999994  1.0000
  H   H526      1.0  0.49500000000000005  0.32888  0.9033599999999999  1.0000
  H   H527      1.0  0.8623  0.72218  0.8717599999999998  1.0000
  H   H528      1.0  0.18797000000000014  0.45949999999999985  0.22585  1.0000
  H   H529      1.0  0.59483  0.78213  0.6952299999999999  1.0000
  H   H530      1.0  0.58824  0.12503  0.00526  1.0000
  H   H531      1.0  0.9561300000000001  0.6282899999999998  0.63776  1.0000
  H   H532      1.0  0.9512300000000004  0.92423  0.6639599999999998  1.0000
  H   H533      1.0  0.3622400000000002  0.04388000000000001  0.3717  1.0000
  H   H534      1.0  0.26219  0.44534000000000007  0.8578499999999998  1.0000
  H   H535      1.0  0.25187  0.46019000000000004  0.99384  1.0000
  H   H536      1.0  0.45774  0.67622  0.8131  1.0000
  H   H537      1.0  0.14217000000000002  0.55469  0.56534  1.0000
  H   H538      1.0  0.09482000000000002  0.19523  0.28214  1.0000
  H   H539      1.0  0.4605499999999999  0.66402  0.92424  1.0000
  H   H540      1.0  0.04877000000000004  0.07576999999999999  0.3360399999999999  1.0000
  H   H541      1.0  0.27782  0.12825  0.1377  1.0000
  H   H542      1.0  0.72952  0.70553  0.06048  1.0000
  H   H543      1.0  0.6879800000000004  0.72584  0.9595  1.0000
  H   H544      1.0  0.9453200000000002  0.35782  0.93466  1.0000
  H   H545      1.0  0.8047200000000002  0.9051099999999996  0.57232  1.0000
  H   H546      1.0  0.5394  0.048730000000000016  0.33602  1.0000
  H   H547      1.0  0.19523000000000001  0.28214  0.09482  1.0000
  H   H548      1.0  0.8047400000000003  0.57231  0.71784  1.0000
  H   H549      1.0  0.4948500000000001  0.91174  0.21846  1.0000
  H   H550      1.0  0.84175  0.9607  0.4984699999999999  1.0000
  H   H551      1.0  0.31664  0.85069  0.38760999999999995  1.0000
  H   H552      1.0  0.04880000000000002  0.53946  0.07589  1.0000
  H   H553      1.0  0.60239  0.17122999999999997  0.50103  1.0000
  H   H554      1.0  0.9033400000000001  0.27275  0.49501  1.0000
  H   H555      1.0  0.9595400000000001  0.7258499999999999  0.62667  1.0000
  H   H556      1.0  0.18338000000000004  0.64926  0.05493  1.0000
  H   H557      1.0  0.9241099999999999  0.9511900000000001  0.46055  1.0000
  H   H558      1.0  0.44531000000000004  0.43465999999999994  0.85783  1.0000
  H   H559      1.0  0.63776  0.95612  0.6283  1.0000
  H   H560      1.0  0.04388000000000003  0.36225000000000007  0.22215999999999994  1.0000
  H   H561      1.0  0.81313  0.05294000000000002  0.45776999999999995  1.0000
  H   H562      1.0  0.30477000000000015  0.4051699999999998  0.21786999999999998  1.0000
  H   H563      1.0  0.65826  0.0015099999999999797  0.5393  1.0000
  H   H564      1.0  0.99851  0.3418  0.19903  1.0000
  H   H565      1.0  0.9276900000000005  0.6952699999999998  0.78216  1.0000
  H   H566      1.0  0.45610000000000017  0.1283  0.27785  1.0000
  H   H567      1.0  0.79439  0.43949  0.99574  1.0000
  H   H568      1.0  0.28218000000000004  0.4276899999999999  0.09488999999999997  1.0000
  H   H569      1.0  0.9984800000000001  0.46070000000000005  0.3417399999999999  1.0000
  H   H570      1.0  0.91182  0.37503  0.21848999999999996  1.0000
  H   H571      1.0  0.7272500000000001  0.50499  0.09666  1.0000
  H   H572      1.0  0.8622500000000001  0.8717099999999998  0.54387  1.0000
  H   H573      1.0  0.004980000000000006  0.22725  0.59667  1.0000
  H   H574      1.0  0.66398  0.4606  0.95127  1.0000
  H   H575      1.0  0.8577900000000003  0.43469999999999986  0.26221  1.0000
  H   H576      1.0  0.62503  0.08824000000000001  0.50525  1.0000
  H   H577      1.0  0.49499  0.27273  0.32888  1.0000
  H   H578      1.0  0.64222  0.23777999999999994  0.06531  1.0000
  H   H579      1.0  0.9938400000000001  0.25187  0.4602  1.0000
  H   H580      1.0  0.53946  0.07589  0.04881  1.0000
  H   H581      1.0  0.2622099999999999  0.8577899999999999  0.4347  1.0000
  H   H582      1.0  0.18334999999999999  0.11238999999999996  0.64932  1.0000
  H   H583      1.0  0.8975700000000003  0.7745999999999996  0.9989499999999998  1.0000
  H   H584      1.0  0.7178200000000001  0.57231  0.90511  1.0000
  H   H585      1.0  0.9577499999999998  0.3130900000000001  0.17621999999999993  1.0000
  H   H586      1.0  0.31207000000000007  0.3733599999999999  0.27419  1.0000
  H   H587      1.0  0.27463999999999994  0.82881  0.39762  1.0000
  H   H588      1.0  0.0052599999999999765  0.58824  0.12503  1.0000
  H   H589      1.0  0.13773999999999997  0.45613  0.27785  1.0000
  H   H590      1.0  0.6990400000000001  0.8418  0.4985  1.0000
  H   H591      1.0  0.21849  0.91182  0.37504  1.0000
  H   H592      1.0  0.4033500000000002  0.82888  0.99501  1.0000
  H   H593      1.0  0.8238500000000002  0.68706  0.44702  1.0000
  H   H594      1.0  0.24805000000000005  0.20593999999999998  0.50613  1.0000
  H   H595      1.0  0.21782000000000004  0.4051  0.07232  1.0000
  H   H596      1.0  0.5881800000000001  0.2815  0.12496999999999998  1.0000
  H   H597      1.0  0.27416000000000007  0.04049999999999999  0.31202  1.0000
  H   H598      1.0  0.5949  0.69529  0.92767  1.0000
  H   H599      1.0  0.9950199999999999  0.7727500000000002  0.40333  1.0000
  H   H600      1.0  0.41176000000000007  0.87497  0.9947399999999997  1.0000
  H   H601      1.0  0.006130000000000146  0.53982  0.7059899999999998  1.0000
  H   H602      1.0  0.4395000000000001  0.9957399999999998  0.79439  1.0000
  H   H603      1.0  0.005200000000000009  0.12502  0.28156  1.0000
  H   H604      1.0  0.32877  0.99899  0.77465  1.0000
  H   H605      1.0  0.45121  0.16393  0.4243  1.0000
  H   H606      1.0  0.50614  0.24805  0.20593  1.0000
  H   H607      1.0  0.05491999999999996  0.64928  0.11240999999999998  1.0000
  H   H608      1.0  0.2258600000000001  0.45953  0.12668  1.0000
  H   H609      1.0  0.35785  0.94535  0.76219  1.0000
  H   H610      1.0  0.3237800000000001  0.18689  0.54226  1.0000
  H   H611      1.0  0.14221000000000006  0.5653  0.73779  1.0000
  H   H612      1.0  0.77278  0.8289299999999997  0.40338  1.0000
  H   H613      1.0  0.8287699999999998  0.27463999999999994  0.49898  1.0000
  H   H614      1.0  0.42429  0.45121  0.16394  1.0000
  H   H615      1.0  0.8875299999999999  0.81659  0.9450399999999998  1.0000
  H   H616      1.0  0.18341000000000002  0.05497  0.11246999999999999  1.0000
  H   H617      1.0  0.42769000000000007  0.09488999999999999  0.28218  1.0000
  H   H618      1.0  0.04049999999999998  0.31202  0.27416  1.0000
  H   H619      1.0  0.8288100000000003  0.39762  0.27464  1.0000
  H   H620      1.0  0.81208  0.7741800000000001  0.8733599999999999  1.0000
  H   H621      1.0  0.44702000000000014  0.8238499999999997  0.68706  1.0000
  H   H622      1.0  0.4601800000000001  0.29400999999999994  0.99387  1.0000
  H   H623      1.0  0.27035  0.49573000000000006  0.29439  1.0000
  H   H624      1.0  0.8733499999999998  0.81207  0.77418  1.0000
  C   C1        1.0  0.51406  0.11902  0.96262  1.0000
  C   C2        1.0  0.98593  0.53737  0.38102  1.0000
  C   C3        1.0  0.55626  0.15061999999999998  0.18738  1.0000
  C   C4        1.0  0.63537  0.7436899999999997  0.09458  1.0000
  C   C5        1.0  0.8917099999999999  0.44409  0.85423  1.0000
  C   C6        1.0  0.9559099999999999  0.1875599999999999  0.41711  1.0000
  C   C7        1.0  0.74376  0.63542  0.52626  1.0000
  C   C8        1.0  0.9384800000000002  0.8297099999999995  0.73594  1.0000
  C   C9        1.0  0.20080999999999993  0.50582  0.345  1.0000
  C   C10       1.0  0.3980400000000001  0.27866999999999975  0.85809  1.0000
  C   C11       1.0  0.9054  0.4737199999999999  0.36458  1.0000
  C   C12       1.0  0.04055000000000002  0.39462  0.3271  1.0000
  C   C13       1.0  0.17143999999999998  0.020879999999999996  0.2519  1.0000
  C   C14       1.0  0.36361000000000004  0.4274599999999999  0.25989  1.0000
  C   C15       1.0  0.60196  0.72133  0.14191  1.0000
  C   C16       1.0  0.86361  0.7599  0.92746  1.0000
  C   C17       1.0  0.04902000000000004  0.7651600000000001  0.59916  1.0000
  C   C18       1.0  0.9737500000000001  0.8645799999999999  0.75625  1.0000
  C   C19       1.0  0.049020000000000195  0.5992599999999997  0.5866299999999999  1.0000
  C   C20       1.0  0.18755999999999998  0.4171  0.95591  1.0000
  C   C21       1.0  0.74811  0.9790999999999999  0.44422  1.0000
  C   C22       1.0  0.97378  0.75627  0.40538  1.0000
  C   C23       1.0  0.54408  0.08288  0.31245999999999996  1.0000
  C   C24       1.0  0.7640800000000002  0.6702899999999999  0.56152  1.0000
  C   C25       1.0  0.5057600000000002  0.9483499999999998  0.34499  1.0000
  C   C26       1.0  0.45098000000000016  0.91337  0.90075  1.0000
  C   C27       1.0  0.09573000000000015  0.9858899999999998  0.38106  1.0000
  C   C28       1.0  0.09459000000000002  0.63537  0.74369  1.0000
  C   C29       1.0  0.8126199999999999  0.44373999999999997  0.84938  1.0000
  C   C30       1.0  0.6057000000000003  0.65067  0.6873999999999998  1.0000
  C   C31       1.0  0.15068000000000004  0.55626  0.10568999999999998  1.0000
  C   C32       1.0  0.8646300000000001  0.40541  0.7563199999999999  1.0000
  C   C33       1.0  0.55626  0.18738  0.10568999999999998  1.0000
  C   C34       1.0  0.2401  0.55096  0.07252  1.0000
  C   C35       1.0  0.6550200000000002  0.49424  0.05165  1.0000
  C   C36       1.0  0.2341700000000002  0.06811999999999996  0.55384  1.0000
  C   C37       1.0  0.32709999999999995  0.04055000000000001  0.39462  1.0000
  C   C38       1.0  0.13542000000000004  0.24375999999999995  0.02625  1.0000
  C   C39       1.0  0.7786800000000001  0.89804  0.35807999999999995  1.0000
  C   C40       1.0  0.7641200000000002  0.5615299999999998  0.00407  1.0000
  C   C41       1.0  0.32848999999999995  0.47911  0.94421  1.0000
  C   C42       1.0  0.19002000000000005  0.14575999999999992  0.55591  1.0000
  C   C43       1.0  0.05578999999999997  0.67152  0.52089  1.0000
  C   C44       1.0  0.23484000000000008  0.40084000000000003  0.9509799999999998  1.0000
  C   C45       1.0  0.10197000000000005  0.64192  0.22132  1.0000
  C   C46       1.0  0.014110000000000029  0.6189500000000001  0.9042599999999997  1.0000
  C   C47       1.0  0.10828999999999998  0.5559  0.14577  1.0000
  C   C48       1.0  0.17028999999999997  0.26407  0.06151  1.0000
  C   C49       1.0  0.3126200000000002  0.9437599999999999  0.3943  1.0000
  C   C50       1.0  0.36463000000000007  0.25631  0.90542  1.0000
  C   C51       1.0  0.8450100000000001  0.44835  0.005749999999999999  1.0000
  C   C52       1.0  0.9490500000000001  0.36362  0.25995  1.0000
  C   C53       1.0  0.26411  0.50408  0.06153  1.0000
  C   C54       1.0  0.44375000000000003  0.84938  0.81262  1.0000
  C   C55       1.0  0.35423  0.3099700000000001  0.9441199999999998  1.0000
  C   C56       1.0  0.46524  0.39801  0.85809  1.0000
  C   C57       1.0  0.7658499999999999  0.44617000000000007  0.85619  1.0000
  C   C58       1.0  0.03473999999999999  0.22134999999999994  0.6419  1.0000
  C   C59       1.0  0.73594  0.93848  0.82971  1.0000
  C   C60       1.0  0.13642000000000004  0.07258999999999999  0.55096  1.0000
  C   C61       1.0  0.8296700000000001  0.9384299999999999  0.49591  1.0000
  C   C62       1.0  0.5137600000000001  0.6112200000000001  0.8301  1.0000
  C   C63       1.0  0.38105  0.09573  0.98589  1.0000
  C   C64       1.0  0.7786300000000004  0.9652199999999999  0.89798  1.0000
  C   C65       1.0  0.05383000000000017  0.5681099999999998  0.73416  1.0000
  C   C66       1.0  0.90427  0.014110000000000001  0.61895  1.0000
  C   C67       1.0  0.67141  0.055790000000000055  0.7517799999999999  1.0000
  C   C68       1.0  0.037329999999999974  0.88091  0.59572  1.0000
  C   C69       1.0  0.09461000000000006  0.5262799999999997  0.63542  1.0000
  C   C70       1.0  0.88878  0.45506  0.9861599999999999  1.0000
  C   C71       1.0  0.9942500000000001  0.15499  0.55165  1.0000
  C   C72       1.0  0.9133800000000003  0.90075  0.4509699999999999  1.0000
  C   C73       1.0  0.25624000000000013  0.3645799999999999  0.47374  1.0000
  C   C74       1.0  0.48622000000000026  0.16994000000000004  0.9550499999999997  1.0000
  C   C75       1.0  0.06152000000000001  0.17029  0.26407  1.0000
  C   C76       1.0  0.48591000000000034  0.5957399999999998  0.88102  1.0000
  C   C77       1.0  0.7008899999999999  0.44834999999999997  0.8451  1.0000
  C   C78       1.0  0.8561300000000002  0.9318899999999997  0.76581  1.0000
  C   C79       1.0  0.60569  0.05624000000000007  0.6506899999999999  1.0000
  C   C80       1.0  0.8493200000000001  0.44374  0.89432  1.0000
  C   C81       1.0  0.41702000000000033  0.43945  0.95588  1.0000
  C   C82       1.0  0.08297000000000002  0.54411  0.06055999999999999  1.0000
  C   C83       1.0  0.9007499999999999  0.45098  0.91337  1.0000
  C   C84       1.0  0.55163  0.29921  0.99421  1.0000
  C   C85       1.0  0.6457700000000002  0.6900299999999998  0.05588  1.0000
  C   C86       1.0  0.34933  0.31259999999999993  0.39431  1.0000
  C   C87       1.0  0.50408  0.061529999999999994  0.26411  1.0000
  C   C88       1.0  0.3636200000000001  0.25995  0.94906  1.0000
  C   C89       1.0  0.7599600000000001  0.8636199999999998  0.44904  1.0000
  C   C90       1.0  0.44374  0.81262  0.89431  1.0000
  C   C91       1.0  0.5140900000000002  0.40425  0.11898999999999997  1.0000
  C   C92       1.0  0.9171200000000003  0.68754  0.45592  1.0000
  C   C93       1.0  0.3124600000000002  0.54408  0.08287999999999998  1.0000
  C   C94       1.0  0.8636200000000002  0.44903999999999994  0.75996  1.0000
  C   C95       1.0  0.4483500000000001  0.005749999999999989  0.84501  1.0000
  C   C96       1.0  0.06156000000000004  0.50409  0.17034  1.0000
  C   C97       1.0  0.24813000000000002  0.9442200000000001  0.47911  1.0000
  C   C98       1.0  0.55384  0.23416999999999996  0.06811  1.0000
  C   C99       1.0  0.57252  0.05094999999999999  0.74011  1.0000
  C   C100      1.0  0.11899000000000008  0.51409  0.40426  1.0000
  C   C101      1.0  0.03737000000000001  0.59578  0.48602  1.0000
  C   C102      1.0  0.15499000000000013  0.55165  0.9942499999999997  1.0000
  C   C103      1.0  0.89432  0.84932  0.44375  1.0000
  C   C104      1.0  0.47912000000000005  0.32853  0.24813  1.0000
  C   C105      1.0  0.74005  0.05094999999999999  0.63638  1.0000
  C   C106      1.0  0.7401099999999999  0.63639  0.5725499999999998  1.0000
  C   C107      1.0  0.3581  0.9652600000000001  0.7786499999999998  1.0000
  C   C108      1.0  0.7651500000000002  0.04901999999999999  0.58659  1.0000
  C   C109      1.0  0.2376900000000001  0.39462999999999987  0.040539999999999986  1.0000
  C   C110      1.0  0.4594500000000001  0.17289999999999997  0.10537  1.0000
  C   C111      1.0  0.43846999999999986  0.9959300000000001  0.23589  1.0000
  C   C112      1.0  0.8493399999999999  0.89431  0.81261  1.0000
  C   C113      1.0  0.6083000000000002  0.6457699999999998  0.05588  1.0000
  C   C114      1.0  0.64578  0.055890000000000016  0.6083  1.0000
  C   C115      1.0  0.8946800000000001  0.82716  0.7377199999999998  1.0000
  C   C116      1.0  0.6549300000000002  0.051649999999999974  0.79909  1.0000
  C   C117      1.0  0.5138400000000001  0.044959999999999986  0.61125  1.0000
  C   C118      1.0  0.10569000000000003  0.55626  0.18738  1.0000
  C   C119      1.0  0.19006999999999988  0.5559000000000001  0.10824  1.0000
  C   C120      1.0  0.23588999999999988  0.43846  0.99593  1.0000
  C   C121      1.0  0.8810100000000002  0.48591  0.59574  1.0000
  C   C122      1.0  0.5957200000000001  0.03733999999999997  0.88091  1.0000
  C   C123      1.0  0.95098  0.23483999999999988  0.40084  1.0000
  C   C124      1.0  0.7401099999999999  0.57252  0.05094999999999999  1.0000
  C   C125      1.0  0.7376800000000001  0.54054  0.89464  1.0000
  C   C126      1.0  0.6053699999999999  0.9594600000000001  0.76232  1.0000
  C   C127      1.0  0.09924999999999999  0.54902  0.08662999999999998  1.0000
  C   C128      1.0  0.14191  0.60196  0.7213299999999999  1.0000
  C   C129      1.0  0.66996  0.45508  0.88885  1.0000
  C   C130      1.0  0.45506000000000035  0.9861599999999996  0.88878  1.0000
  C   C131      1.0  0.5208899999999999  0.75187  0.05578  1.0000
  C   C132      1.0  0.26232  0.45945999999999987  0.10537  1.0000
  C   C133      1.0  0.94411  0.3542399999999999  0.30997  1.0000
  C   C134      1.0  0.42745  0.25989  0.36361  1.0000
  C   C135      1.0  0.01400999999999996  0.90422  0.46264  1.0000
  C   C136      1.0  0.40079000000000015  0.23481000000000002  0.41342  1.0000
  C   C137      1.0  0.7437500000000001  0.52623  0.09461  1.0000
  C   C138      1.0  0.8271100000000001  0.8946200000000001  0.54055  1.0000
  C   C139      1.0  0.48625  0.38878  0.16989999999999997  1.0000
  C   C140      1.0  0.5957800000000002  0.48601  0.03737  1.0000
  C   C141      1.0  0.89431  0.44374  0.81262  1.0000
  C   C142      1.0  0.6699  0.9862200000000001  0.45506  1.0000
  C   C143      1.0  0.10537000000000003  0.45945  0.1729  1.0000
  C   C144      1.0  0.9558799999999998  0.4395199999999999  0.18757  1.0000
  C   C145      1.0  0.27862000000000003  0.39797999999999994  0.46522  1.0000
  C   C146      1.0  0.17286999999999994  0.4594599999999999  0.2623  1.0000
  C   C147      1.0  0.68738  0.6506299999999999  0.05624  1.0000
  C   C148      1.0  0.8917599999999999  0.80993  0.44409999999999994  1.0000
  C   C149      1.0  0.2562600000000002  0.47376999999999986  0.9053899999999999  1.0000
  C   C150      1.0  0.44837  0.70078  0.00579  1.0000
  C   C151      1.0  0.9318800000000002  0.85609  0.44617  1.0000
  C   C152      1.0  0.29911000000000015  0.55164  0.15491  1.0000
  C   C153      1.0  0.09914999999999995  0.26517  0.54902  1.0000
  C   C154      1.0  0.08294  0.060479999999999985  0.3125  1.0000
  C   C155      1.0  0.10202000000000001  0.22138  0.03478  1.0000
  C   C156      1.0  0.7341800000000003  0.5681099999999998  0.64388  1.0000
  C   C157      1.0  0.05578999999999997  0.75178  0.67141  1.0000
  C   C158      1.0  0.005750000000000017  0.8450099999999999  0.44835  1.0000
  C   C159      1.0  0.5373700000000003  0.98599  0.09576999999999998  1.0000
  C   C160      1.0  0.81243  0.044120000000000006  0.56048  1.0000
  C   C161      1.0  0.8285600000000001  0.97912  0.7481  1.0000
  C   C162      1.0  0.8980399999999998  0.35808  0.77868  1.0000
  C   C163      1.0  0.9461700000000002  0.35607  0.43187  1.0000
  C   C164      1.0  0.45946  0.26229  0.17286999999999997  1.0000
  C   C165      1.0  0.25189  0.020900000000000002  0.55578  1.0000
  C   C166      1.0  0.9862400000000001  0.6698599999999998  0.8887999999999998  1.0000
  C   C167      1.0  0.020879999999999985  0.25189  0.17144  1.0000
  C   C168      1.0  0.55096  0.13641999999999999  0.07259  1.0000
  C   C169      1.0  0.48616000000000004  0.95504  0.38875  1.0000
  C   C170      1.0  0.32971  0.23596000000000006  0.99593  1.0000
  C   C171      1.0  0.56812  0.73416  0.05383  1.0000
  C   C172      1.0  0.8286200000000001  0.7481999999999998  0.44421  1.0000
  C   C173      1.0  0.8980100000000002  0.9652399999999997  0.35807999999999995  1.0000
  C   C174      1.0  0.11901999999999992  0.96262  0.51406  1.0000
  C   C175      1.0  0.10533000000000002  0.17284  0.26228  1.0000
  C   C176      1.0  0.06811999999999999  0.55383  0.23417  1.0000
  C   C177      1.0  0.05588  0.69007  0.60824  1.0000
  C   C178      1.0  0.86458  0.75624  0.97375  1.0000
  C   C179      1.0  0.8297100000000003  0.7359299999999998  0.9384899999999998  1.0000
  C   C180      1.0  0.18738000000000002  0.55625  0.15062  1.0000
  C   C181      1.0  0.4461700000000002  0.93187  0.85609  1.0000
  C   C182      1.0  0.6190499999999998  0.4626700000000001  0.9042899999999999  1.0000
  C   C183      1.0  0.15062  0.18738  0.55625  1.0000
  C   C184      1.0  0.8917400000000001  0.85424  0.80994  1.0000
  C   C185      1.0  0.8301000000000001  0.51375  0.61123  1.0000
  C   C186      1.0  0.5992599999999999  0.58663  0.04902  1.0000
  C   C187      1.0  0.75187  0.05578  0.52089  1.0000
  C   C188      1.0  0.005810000000000048  0.7007800000000001  0.8450299999999997  1.0000
  C   C189      1.0  0.93952  0.6875  0.91707  1.0000
  C   C190      1.0  0.7658100000000004  0.8561299999999995  0.93189  1.0000
  C   C191      1.0  0.3300500000000001  0.54492  0.11115  1.0000
  C   C192      1.0  0.7348500000000001  0.9134099999999998  0.45098  1.0000
  C   C193      1.0  0.7213599999999999  0.53474  0.1419  1.0000
  C   C194      1.0  0.7517900000000003  0.67141  0.05579  1.0000
  C   C195      1.0  0.93189  0.76581  0.8561399999999998  1.0000
  C   C196      1.0  0.8580900000000001  0.3980399999999998  0.27867  1.0000
  C   C197      1.0  0.3542300000000001  0.3917299999999999  0.30993  1.0000
  C   C198      1.0  0.02627999999999999  0.59461  0.13542  1.0000
  C   C199      1.0  0.03478000000000003  0.10202  0.22137999999999994  1.0000
  C   C200      1.0  0.23770999999999998  0.04054  0.32712  1.0000
  C   C201      1.0  0.05382999999999997  0.73414  0.64382  1.0000
  C   C202      1.0  0.13542000000000004  0.026279999999999977  0.59462  1.0000
  C   C203      1.0  0.46525  0.85811  0.27865  1.0000
  C   C204      1.0  0.6702899999999999  0.5615099999999998  0.76408  1.0000
  C   C205      1.0  0.64192  0.22132000000000002  0.10195999999999998  1.0000
  C   C206      1.0  0.8099400000000001  0.89173  0.85424  1.0000
  C   C207      1.0  0.26228  0.10532000000000001  0.17284  1.0000
  C   C208      1.0  0.54903  0.26515  0.08658  1.0000
  C   C209      1.0  0.94376  0.3943  0.31262  1.0000
  C   C210      1.0  0.25988999999999995  0.4274800000000001  0.94905  1.0000
  C   C211      1.0  0.5828999999999998  0.04410000000000005  0.81244  1.0000
  C   C212      1.0  0.67288  0.76229  0.95946  1.0000
  C   C213      1.0  0.08287999999999993  0.31246  0.54408  1.0000
  C   C214      1.0  0.26229  0.17286999999999997  0.45946  1.0000
  C   C215      1.0  0.055779999999999975  0.52088  0.75188  1.0000
  C   C216      1.0  0.76583  0.93188  0.44617  1.0000
  C   C217      1.0  0.61898  0.014080000000000014  0.46263  1.0000
  C   C218      1.0  0.1353700000000001  0.5945899999999997  0.24368  1.0000
  C   C219      1.0  0.54492  0.11115  0.33005  1.0000
  C   C220      1.0  0.56157  0.67033  0.00408  1.0000
  C   C221      1.0  0.9959300000000001  0.3297199999999999  0.23596  1.0000
  C   C222      1.0  0.49591999999999975  0.73597  0.82972  1.0000
  C   C223      1.0  0.94421  0.24821999999999989  0.32859  1.0000
  C   C224      1.0  0.94836  0.20091  0.34507  1.0000
  C   C225      1.0  0.72139  0.60202  0.53478  1.0000
  C   C226      1.0  0.40074000000000004  0.41337  0.9509799999999998  1.0000
  C   C227      1.0  0.46522  0.2786100000000001  0.3979899999999999  1.0000
  C   C228      1.0  0.3296700000000003  0.99592  0.43843  1.0000
  C   C229      1.0  0.6728500000000001  0.60532  0.76228  1.0000
  C   C230      1.0  0.7348299999999999  0.45098  0.9008499999999999  1.0000
  C   C231      1.0  0.89432  0.8126100000000002  0.84934  1.0000
  C   C232      1.0  0.050950000000000065  0.5725899999999999  0.63642  1.0000
  C   C233      1.0  0.6053300000000001  0.76228  0.6728499999999997  1.0000
  C   C234      1.0  0.34507000000000015  0.9483499999999998  0.20092  1.0000
  C   C235      1.0  0.044119999999999944  0.58299  0.56055  1.0000
  C   C236      1.0  0.25989  0.36361000000000004  0.4274499999999999  1.0000
  C   C237      1.0  0.3810200000000002  0.9859199999999997  0.53737  1.0000
  C   C238      1.0  0.52628  0.63542  0.09461  1.0000
  C   C239      1.0  0.004080000000000014  0.56156  0.67033  1.0000
  C   C240      1.0  0.10199000000000001  0.03475999999999999  0.64192  1.0000
  C   C241      1.0  0.7991900000000001  0.051640000000000005  0.49421  1.0000
  C   C242      1.0  0.83001  0.61117  0.04494  1.0000
  C   C243      1.0  0.79909  0.6549299999999998  0.05165  1.0000
  C   C244      1.0  0.6714799999999997  0.75188  0.52087  1.0000
  C   C245      1.0  0.5040900000000001  0.2640299999999999  0.17028  1.0000
  C   C246      1.0  0.8271300000000001  0.5405400000000001  0.7377099999999998  1.0000
  C   C247      1.0  0.60825  0.05588000000000005  0.6900799999999999  1.0000
  C   C248      1.0  0.3887800000000002  0.1699  0.48625  1.0000
  C   C249      1.0  0.2652  0.0992  0.08658  1.0000
  C   C250      1.0  0.90542  0.36463  0.25631  1.0000
  C   C251      1.0  0.15066000000000004  0.10567999999999998  0.18739  1.0000
  C   C252      1.0  0.9490500000000001  0.42741  0.36358  1.0000
  C   C253      1.0  0.09578000000000028  0.5373599999999998  0.9859899999999998  1.0000
  C   C254      1.0  0.40539000000000003  0.8645799999999999  0.97372  1.0000
  C   C255      1.0  0.4442099999999999  0.9791  0.8285099999999999  1.0000
  C   C256      1.0  0.49424  0.05165  0.65502  1.0000
  C   C257      1.0  0.2401  0.07254  0.13639  1.0000
  C   C258      1.0  0.05165000000000003  0.7990899999999997  0.65493  1.0000
  C   C259      1.0  0.44409  0.80998  0.85424  1.0000
  C   C260      1.0  0.82716  0.7377199999999999  0.89468  1.0000
  C   C261      1.0  0.9550599999999999  0.16999  0.38883  1.0000
  C   C262      1.0  0.4490400000000001  0.7599599999999997  0.86362  1.0000
  C   C263      1.0  0.8542399999999999  0.44409000000000004  0.80998  1.0000
  C   C264      1.0  0.95504  0.38875  0.48616  1.0000
  C   C265      1.0  0.8126199999999999  0.89431  0.44374  1.0000
  C   C266      1.0  0.39175  0.94412  0.30993  1.0000
  C   C267      1.0  0.27864  0.46526  0.85811  1.0000
  C   C268      1.0  0.5347900000000001  0.72138  0.60201  1.0000
  C   C269      1.0  0.09920000000000008  0.08658  0.2652  1.0000
  C   C270      1.0  0.04054000000000002  0.23768  0.39463999999999994  1.0000
  C   C271      1.0  0.8581100000000004  0.27864000000000005  0.4652599999999999  1.0000
  C   C272      1.0  0.4171000000000003  0.9558999999999997  0.18756  1.0000
  C   C273      1.0  0.43844  0.32966000000000006  0.99592  1.0000
  C   C274      1.0  0.5208800000000003  0.6714699999999999  0.75188  1.0000
  C   C275      1.0  0.94837  0.5058  0.20081  1.0000
  C   C276      1.0  0.91703  0.4558900000000001  0.9394399999999998  1.0000
  C   C277      1.0  0.7622900000000001  0.95945  0.6728799999999999  1.0000
  C   C278      1.0  0.5373200000000001  0.09571999999999996  0.38095  1.0000
  C   C279      1.0  0.3493100000000002  0.3943099999999998  0.94376  1.0000
  C   C280      1.0  0.7377100000000003  0.8271299999999996  0.54054  1.0000
  C   C281      1.0  0.65063  0.05623000000000001  0.68738  1.0000
  C   C282      1.0  0.004070000000000017  0.76412  0.56153  1.0000
  C   C283      1.0  0.07258000000000002  0.55096  0.13642  1.0000
  C   C284      1.0  0.89464  0.73768  0.54054  1.0000
  C   C285      1.0  0.10568000000000001  0.15067999999999995  0.55626  1.0000
  C   C286      1.0  0.91342  0.7347999999999998  0.90081  1.0000
  C   C287      1.0  0.5058200000000002  0.345  0.20081  1.0000
  C   C288      1.0  0.7640499999999999  0.0040699999999999955  0.67029  1.0000
  C   C289      1.0  0.2992099999999998  0.9942100000000001  0.55164  1.0000
  C   C290      1.0  0.6900700000000001  0.6457699999999998  0.60827  1.0000
  C   C291      1.0  0.6875099999999998  0.91706  0.93952  1.0000
  C   C292      1.0  0.056240000000000186  0.6506899999999998  0.6056899999999998  1.0000
  C   C293      1.0  0.7213299999999999  0.14191000000000004  0.6019599999999999  1.0000
  C   C294      1.0  0.94617  0.4318899999999999  0.26584  1.0000
  C   C295      1.0  0.7563100000000001  0.86463  0.4054099999999999  1.0000
  C   C296      1.0  0.9274200000000002  0.4490399999999998  0.86358  1.0000
  C   C297      1.0  0.7482000000000001  0.44420999999999994  0.82862  1.0000
  C   C298      1.0  0.68738  0.05624000000000003  0.6056999999999999  1.0000
  C   C299      1.0  0.2341900000000001  0.14386999999999997  0.06811  1.0000
  C   C300      1.0  0.55579  0.020900000000000002  0.17149  1.0000
  C   C301      1.0  0.7377200000000004  0.8946699999999995  0.82716  1.0000
  C   C302      1.0  0.57255  0.7401099999999999  0.63639  1.0000
  C   C303      1.0  0.034759999999999965  0.64192  0.10199  1.0000
  C   C304      1.0  0.4054100000000002  0.7563099999999996  0.86463  1.0000
  C   C305      1.0  0.09571  0.38094000000000006  0.53733  1.0000
  C   C306      1.0  0.17028999999999997  0.50408  0.26403  1.0000
  C   C307      1.0  0.4461700000000001  0.7658299999999999  0.93189  1.0000
  C   C308      1.0  0.5557900000000001  0.17137999999999992  0.2518  1.0000
  C   C309      1.0  0.9053899999999999  0.25626000000000004  0.4737799999999999  1.0000
  C   C310      1.0  0.31260000000000004  0.3943099999999999  0.3493299999999999  1.0000
  C   C311      1.0  0.04493999999999998  0.83001  0.6111699999999999  1.0000
  C   C312      1.0  0.59459  0.24368999999999996  0.13537  1.0000
  C   C313      1.0  0.5137800000000001  0.83006  0.04495  1.0000
  C   C314      1.0  0.7007900000000001  0.84503  0.00581  1.0000
  C   C315      1.0  0.63542  0.52625  0.74377  1.0000
  C   C316      1.0  0.39801000000000003  0.8580899999999998  0.46524  1.0000
  C   C317      1.0  0.07252000000000004  0.24009999999999998  0.55096  1.0000
  C   C318      1.0  0.47374  0.2562400000000001  0.36459  1.0000
  C   C319      1.0  0.6506900000000003  0.60569  0.05624  1.0000
  C   C320      1.0  0.5057900000000001  0.20081  0.94837  1.0000
  C   C321      1.0  0.90429  0.61906  0.46267  1.0000
  C   C322      1.0  0.2518  0.55579  0.17137999999999995  1.0000
  C   C323      1.0  0.32971  0.43849  0.23592  1.0000
  C   C324      1.0  0.94412  0.3917  0.35423  1.0000
  C   C325      1.0  0.8560900000000002  0.44617  0.93187  1.0000
  C   C326      1.0  0.54903  0.08662999999999996  0.09925  1.0000
  C   C327      1.0  0.7599000000000006  0.44903999999999994  0.92748  1.0000
  C   C328      1.0  0.93189  0.44617000000000007  0.7658299999999998  1.0000
  C   C329      1.0  0.17033000000000004  0.06157000000000001  0.50409  1.0000
  C   C330      1.0  0.3099700000000001  0.9441099999999998  0.35423  1.0000
  C   C331      1.0  0.32715000000000005  0.3946699999999999  0.23772  1.0000
  C   C332      1.0  0.9384399999999998  0.49591  0.82967  1.0000
  C   C333      1.0  0.7481100000000003  0.8285499999999999  0.9791199999999998  1.0000
  C   C334      1.0  0.6698700000000001  0.8888  0.98624  1.0000
  C   C335      1.0  0.9594599999999999  0.6728699999999997  0.76229  1.0000
  C   C336      1.0  0.9942199999999999  0.55163  0.29921  1.0000
  C   C337      1.0  0.44422000000000034  0.7481000000000001  0.9791099999999998  1.0000
  C   C338      1.0  0.8580899999999999  0.46523  0.39801  1.0000
  C   C339      1.0  0.67033  0.004080000000000021  0.56157  1.0000
  C   C340      1.0  0.26517  0.54902  0.09914999999999999  1.0000
  C   C341      1.0  0.020900000000000054  0.5557799999999998  0.25189  1.0000
  C   C342      1.0  0.014080000000000141  0.4626299999999998  0.6189899999999999  1.0000
  C   C343      1.0  0.63642  0.05094999999999999  0.57259  1.0000
  C   C344      1.0  0.26584000000000013  0.9461699999999997  0.43189  1.0000
  C   C345      1.0  0.04495999999999997  0.61125  0.51384  1.0000
  C   C346      1.0  0.94422  0.4791099999999999  0.24813  1.0000
  C   C347      1.0  0.7651600000000001  0.59916  0.04902  1.0000
  C   C348      1.0  0.39431  0.34933  0.31260999999999994  1.0000
  C   C349      1.0  0.14381  0.23414999999999997  0.55383  1.0000
  C   C350      1.0  0.8809100000000003  0.59572  0.03733  1.0000
  C   C351      1.0  0.45588999999999996  0.93944  0.91703  1.0000
  C   C352      1.0  0.17290000000000008  0.10538  0.45945  1.0000
  C   C353      1.0  0.39171000000000017  0.35422000000000003  0.9441199999999998  1.0000
  C   C354      1.0  0.9594500000000002  0.6053799999999999  0.6729  1.0000
  C   C355      1.0  0.16994000000000004  0.95505  0.48623  1.0000
  C   C356      1.0  0.55164  0.1549  0.29911  1.0000
  C   C357      1.0  0.18739000000000006  0.15066  0.10568999999999998  1.0000
  C   C358      1.0  0.7341399999999999  0.64382  0.05383  1.0000
  C   C359      1.0  0.14190000000000003  0.72136  0.53474  1.0000
  C   C360      1.0  0.06812999999999997  0.14391  0.55383  1.0000
  C   C361      1.0  0.43953  0.41705  0.18752  1.0000
  C   C362      1.0  0.4042200000000001  0.51398  0.96263  1.0000
  C   C363      1.0  0.53475  0.14189  0.72136  1.0000
  C   C364      1.0  0.50409  0.17033  0.06157  1.0000
  C   C365      1.0  0.92748  0.7599  0.44904  1.0000
  C   C366      1.0  0.86458  0.9737200000000001  0.40539  1.0000
  C   C367      1.0  0.59462  0.026220000000000004  0.24374  1.0000
  C   C368      1.0  0.4791100000000001  0.9442099999999999  0.32849  1.0000
  C   C369      1.0  0.7599000000000002  0.92745  0.86361  1.0000
  C   C370      1.0  0.8635799999999999  0.9274100000000001  0.44904  1.0000
  C   C371      1.0  0.6900299999999999  0.05588999999999998  0.64577  1.0000
  C   C372      1.0  0.29921000000000003  0.15497  0.99419  1.0000
  C   C373      1.0  0.08661999999999997  0.09924999999999998  0.54903  1.0000
  C   C374      1.0  0.14387000000000005  0.06810999999999998  0.23418999999999995  1.0000
  C   C375      1.0  0.14576  0.55591  0.19002  1.0000
  C   C376      1.0  0.22135  0.6419  0.03474  1.0000
  C   C377      1.0  0.09461000000000011  0.7437399999999997  0.52622  1.0000
  C   C378      1.0  0.10823999999999998  0.19007  0.5559  1.0000
  C   C379      1.0  0.93944  0.91703  0.4558899999999999  1.0000
  C   C380      1.0  0.39462  0.3271  0.040559999999999985  1.0000
  C   C381      1.0  0.26403  0.17029000000000002  0.50408  1.0000
  C   C382      1.0  0.1457700000000001  0.19006  0.10826  1.0000
  C   C383      1.0  0.5405500000000003  0.8270999999999995  0.89463  1.0000
  C   C384      1.0  0.84503  0.005810000000000022  0.70078  1.0000
  C   C385      1.0  0.24004000000000003  0.13637999999999997  0.55096  1.0000
  C   C386      1.0  0.9861600000000001  0.8887799999999999  0.45506  1.0000
  C   C387      1.0  0.24375  0.026260000000000002  0.13542  1.0000
  C   C388      1.0  0.47377000000000014  0.90539  0.25626  1.0000
  C   C389      1.0  0.026230000000000087  0.24373  0.59462  1.0000
  C   C390      1.0  0.7518800000000001  0.52087  0.67148  1.0000
  C   C391      1.0  0.5946100000000002  0.13541999999999996  0.02628  1.0000
  C   C392      1.0  0.94421  0.32847999999999994  0.47911  1.0000
  C   C393      1.0  0.85619  0.76585  0.44617  1.0000
  C   C394      1.0  0.6729000000000002  0.9594399999999998  0.6053799999999999  1.0000
  C   C395      1.0  0.14577  0.10829000000000001  0.55591  1.0000
  C   C396      1.0  0.9274599999999998  0.8636100000000001  0.7598999999999998  1.0000
  C   C397      1.0  0.026260000000000023  0.13541999999999998  0.24375999999999995  1.0000
  C   C398      1.0  0.45508  0.88885  0.66995  1.0000
  C   C399      1.0  0.23596  0.9959299999999999  0.3297099999999999  1.0000
  C   C400      1.0  0.5208899999999999  0.05579  0.67152  1.0000
  C   C401      1.0  0.45591999999999994  0.9171199999999999  0.68754  1.0000
  C   C402      1.0  0.7786499999999998  0.35808999999999996  0.96526  1.0000
  C   C403      1.0  0.2563  0.90542  0.36463  1.0000
  C   C404      1.0  0.43952000000000013  0.18757000000000001  0.95588  1.0000
  C   C405      1.0  0.8124500000000003  0.5829  0.0441  1.0000
  C   C406      1.0  0.4791100000000001  0.24813000000000002  0.94422  1.0000
  C   C407      1.0  0.9437700000000001  0.34930999999999995  0.39431  1.0000
  C   C408      1.0  0.8888000000000003  0.9862399999999998  0.66986  1.0000
  C   C409      1.0  0.3887500000000002  0.48616  0.9550399999999998  1.0000
  C   C410      1.0  0.4558900000000001  0.68755  0.93951  1.0000
  C   C411      1.0  0.64393  0.56813  0.05383  1.0000
  C   C412      1.0  0.9395100000000002  0.45589  0.6875599999999998  1.0000
  C   C413      1.0  0.6112299999999999  0.8301000000000001  0.51375  1.0000
  C   C414      1.0  0.9626699999999999  0.11909  0.40428  1.0000
  C   C415      1.0  0.10569  0.18739  0.15066  1.0000
  C   C416      1.0  0.19006  0.10826000000000001  0.14575999999999997  1.0000
  C   C417      1.0  0.1873799999999999  0.10569  0.55626  1.0000
  C   C418      1.0  0.6364000000000004  0.5725399999999998  0.74011  1.0000
  C   C419      1.0  0.7562500000000001  0.97374  0.8645799999999998  1.0000
  C   C420      1.0  0.26407  0.061520000000000005  0.17028999999999997  1.0000
  C   C421      1.0  0.25995000000000024  0.9490499999999996  0.3636199999999999  1.0000
  C   C422      1.0  0.9652500000000002  0.35807999999999995  0.8980099999999998  1.0000
  C   C423      1.0  0.41705  0.18751999999999996  0.43953  1.0000
  C   C424      1.0  0.34937000000000007  0.94377  0.31262  1.0000
  C   C425      1.0  0.2658200000000002  0.4318899999999999  0.3561199999999999  1.0000
  C   C426      1.0  0.94412  0.30992  0.39176  1.0000
  C   C427      1.0  0.10536000000000001  0.26232  0.45946  1.0000
  C   C428      1.0  0.056240000000000026  0.6057  0.68738  1.0000
  C   C429      1.0  0.7359000000000001  0.49592  0.93847  1.0000
  C   C430      1.0  0.9942  0.29922  0.15497  1.0000
  C   C431      1.0  0.42748000000000036  0.9490499999999997  0.25989  1.0000
  C   C432      1.0  0.13637999999999992  0.55096  0.24004  1.0000
  C   C433      1.0  0.36457999999999985  0.47375000000000006  0.25624  1.0000
  C   C434      1.0  0.63542  0.09461000000000003  0.52628  1.0000
  C   C435      1.0  0.35618000000000005  0.9461699999999998  0.26586  1.0000
  C   C436      1.0  0.49421000000000004  0.79919  0.05164  1.0000
  C   C437      1.0  0.42741  0.36358000000000007  0.94905  1.0000
  C   C438      1.0  0.35423000000000016  0.9441099999999996  0.39171  1.0000
  C   C439      1.0  0.6438800000000002  0.7341799999999998  0.56811  1.0000
  C   C440      1.0  0.33009999999999995  0.01378  0.54494  1.0000
  C   C441      1.0  0.54411  0.06056000000000001  0.08297  1.0000
  C   C442      1.0  0.07254  0.13639  0.2401  1.0000
  C   C443      1.0  0.30993000000000004  0.39175000000000004  0.9441199999999998  1.0000
  C   C444      1.0  0.037380000000000004  0.48594000000000004  0.8809799999999998  1.0000
  C   C445      1.0  0.88098  0.03737999999999998  0.48594  1.0000
  C   C446      1.0  0.49419  0.65499  0.7992  1.0000
  C   C447      1.0  0.7437000000000004  0.0945800000000001  0.6353699999999998  1.0000
  C   C448      1.0  0.9652600000000002  0.7786499999999997  0.3581  1.0000
  C   C449      1.0  0.43189000000000005  0.2658400000000001  0.94617  1.0000
  C   C450      1.0  0.3635799999999999  0.94905  0.42741  1.0000
  C   C451      1.0  0.54494  0.3301  0.013779999999999997  1.0000
  C   C452      1.0  0.43848000000000004  0.23593000000000006  0.3297099999999999  1.0000
  C   C453      1.0  0.8542300000000002  0.8917099999999998  0.44408999999999993  1.0000
  C   C454      1.0  0.055890000000000044  0.64576  0.69003  1.0000
  C   C455      1.0  0.5373700000000001  0.3810200000000001  0.98592  1.0000
  C   C456      1.0  0.9170700000000002  0.93952  0.6875  1.0000
  C   C457      1.0  0.0441200000000002  0.5604799999999996  0.81243  1.0000
  C   C458      1.0  0.22138000000000002  0.03478  0.10201999999999999  1.0000
  C   C459      1.0  0.64577  0.6082700000000001  0.6900699999999999  1.0000
  C   C460      1.0  0.23415  0.55383  0.14381  1.0000
  C   C461      1.0  0.32859000000000005  0.9442099999999999  0.24821999999999997  1.0000
  C   C462      1.0  0.45098000000000005  0.73484  0.91342  1.0000
  C   C463      1.0  0.013839999999999953  0.11122000000000001  0.54494  1.0000
  C   C464      1.0  0.80998  0.85424  0.44408999999999993  1.0000
  C   C465      1.0  0.18752000000000016  0.4395299999999999  0.41704999999999987  1.0000
  C   C466      1.0  0.06048000000000001  0.3125  0.08293  1.0000
  C   C467      1.0  0.56811  0.64388  0.73418  1.0000
  C   C468      1.0  0.8451  0.70089  0.44836  1.0000
  C   C469      1.0  0.20080999999999982  0.9483600000000001  0.50579  1.0000
  C   C470      1.0  0.8888499999999999  0.66996  0.45508  1.0000
  C   C471      1.0  0.04495000000000008  0.51377  0.8300699999999999  1.0000
  C   C472      1.0  0.76519  0.58658  0.59921  1.0000
  C   C473      1.0  0.46263  0.61898  0.01408  1.0000
  C   C474      1.0  0.24368999999999988  0.13537  0.5945899999999998  1.0000
  C   C475      1.0  0.40427999999999986  0.9626599999999998  0.1191  1.0000
  C   C476      1.0  0.15491000000000002  0.29911  0.55164  1.0000
  C   C477      1.0  0.6111699999999999  0.04494000000000003  0.83001  1.0000
  C   C478      1.0  0.57259  0.63642  0.05094999999999999  1.0000
  C   C479      1.0  0.3126199999999999  0.34936999999999996  0.94377  1.0000
  C   C480      1.0  0.76232  0.60537  0.95946  1.0000
  C   C481      1.0  0.8285200000000004  0.44421000000000005  0.9790999999999997  1.0000
  C   C482      1.0  0.11122000000000001  0.54494  0.01384  1.0000
  C   C483      1.0  0.54411  0.31244999999999995  0.06049  1.0000
  C   C484      1.0  0.32712  0.23771  0.04055  1.0000
  C   C485      1.0  0.17148000000000002  0.55579  0.02089999999999999  1.0000
  C   C486      1.0  0.49590999999999996  0.8296700000000001  0.93844  1.0000
  C   C487      1.0  0.6702900000000002  0.7640399999999998  0.00407  1.0000
  C   C488      1.0  0.04409999999999995  0.81244  0.5829  1.0000
  C   C489      1.0  0.6082700000000003  0.69007  0.64577  1.0000
  C   C490      1.0  0.56048  0.81243  0.04412  1.0000
  C   C491      1.0  0.47372000000000003  0.36457999999999996  0.9054  1.0000
  C   C492      1.0  0.97911  0.82851  0.44421  1.0000
  C   C493      1.0  0.55383  0.06812999999999998  0.14391999999999996  1.0000
  C   C494      1.0  0.3301300000000001  0.1112  0.01376  1.0000
  C   C495      1.0  0.9594599999999999  0.7623199999999999  0.6053699999999999  1.0000
  C   C496      1.0  0.23592999999999997  0.32971  0.43848  1.0000
  C   C497      1.0  0.46268000000000037  0.9042799999999995  0.61905  1.0000
  C   C498      1.0  0.8297199999999999  0.4959200000000001  0.73597  1.0000
  C   C499      1.0  0.20091000000000023  0.3450699999999998  0.9483499999999999  1.0000
  C   C500      1.0  0.63639  0.74005  0.05094999999999999  1.0000
  C   C501      1.0  0.6875500000000001  0.9395099999999997  0.4558899999999999  1.0000
  C   C502      1.0  0.7341599999999999  0.05382999999999998  0.56812  1.0000
  C   C503      1.0  0.16999000000000025  0.3888299999999999  0.9550599999999998  1.0000
  C   C504      1.0  0.58663  0.04902000000000002  0.59926  1.0000
  C   C505      1.0  0.06055999999999999  0.08297000000000002  0.54411  1.0000
  C   C506      1.0  0.64192  0.102  0.03476  1.0000
  C   C507      1.0  0.73597  0.82971  0.49592  1.0000
  C   C508      1.0  0.23486000000000007  0.9509799999999997  0.41341  1.0000
  C   C509      1.0  0.44904  0.8635800000000001  0.9274099999999998  1.0000
  C   C510      1.0  0.3888300000000001  0.9550599999999998  0.16999  1.0000
  C   C511      1.0  0.4461700000000003  0.85619  0.7658499999999999  1.0000
  C   C512      1.0  0.9384700000000001  0.73589  0.49592  1.0000
  C   C513      1.0  0.43188000000000004  0.9461699999999998  0.35607  1.0000
  C   C514      1.0  0.3560699999999999  0.43187000000000003  0.94617  1.0000
  C   C515      1.0  0.020900000000000044  0.17147999999999997  0.55579  1.0000
  C   C516      1.0  0.05383000000000002  0.64393  0.56813  1.0000
  C   C517      1.0  0.6189500000000001  0.90426  0.01411  1.0000
  C   C518      1.0  0.30993000000000004  0.35423  0.39173  1.0000
  C   C519      1.0  0.94617  0.2658599999999999  0.35618  1.0000
  C   C520      1.0  0.6900800000000001  0.60824  0.05588  1.0000
  C   C521      1.0  0.3645800000000001  0.90539  0.47372  1.0000
  C   C522      1.0  0.9550500000000001  0.48623000000000005  0.16993  1.0000
  C   C523      1.0  0.9858900000000004  0.38105  0.09574  1.0000
  C   C524      1.0  0.4490399999999999  0.9274900000000001  0.7598999999999998  1.0000
  C   C525      1.0  0.6419100000000001  0.03474000000000001  0.22135  1.0000
  C   C526      1.0  0.45947  0.10536000000000001  0.26232  1.0000
  C   C527      1.0  0.44836000000000004  0.8450899999999999  0.70089  1.0000
  C   C528      1.0  0.4441000000000001  0.8917599999999999  0.80993  1.0000
  C   C529      1.0  0.3979900000000001  0.46521999999999986  0.27861  1.0000
  C   C530      1.0  0.050950000000000065  0.6363800000000001  0.7400499999999998  1.0000
  C   C531      1.0  0.6112499999999998  0.51384  0.04496  1.0000
  C   C532      1.0  0.013759999999999967  0.33014000000000004  0.11119999999999998  1.0000
  C   C533      1.0  0.34499000000000024  0.5057599999999999  0.9483499999999999  1.0000
  C   C534      1.0  0.4859500000000002  0.8809699999999998  0.03738  1.0000
  C   C535      1.0  0.4008400000000003  0.9509799999999998  0.23484  1.0000
  C   C536      1.0  0.96263  0.40422  0.51399  1.0000
  C   C537      1.0  0.05165000000000013  0.65502  0.4942399999999999  1.0000
  C   C538      1.0  0.3561200000000001  0.26582000000000006  0.4318999999999999  1.0000
  C   C539      1.0  0.5405400000000004  0.8946399999999995  0.73768  1.0000
  C   C540      1.0  0.60199  0.14191  0.53476  1.0000
  C   C541      1.0  0.5829900000000001  0.56055  0.04412  1.0000
  C   C542      1.0  0.43944999999999995  0.9558800000000001  0.41702  1.0000
  C   C543      1.0  0.4959200000000001  0.93847  0.73589  1.0000
  C   C544      1.0  0.055879999999999944  0.6083  0.64578  1.0000
  C   C545      1.0  0.9859900000000001  0.09578000000000003  0.53736  1.0000
  C   C546      1.0  0.89798  0.77862  0.9652299999999999  1.0000
  C   C547      1.0  0.6875400000000002  0.45592000000000005  0.91712  1.0000
  C   C548      1.0  0.04901999999999994  0.58658  0.76515  1.0000
  C   C549      1.0  0.9959300000000001  0.23588000000000003  0.4384699999999999  1.0000
  C   C550      1.0  0.9490500000000001  0.2598899999999999  0.42748  1.0000
  C   C551      1.0  0.17284000000000002  0.26228  0.10531999999999998  1.0000
  C   C552      1.0  0.32853  0.24812000000000003  0.47913  1.0000
  C   C553      1.0  0.70079  0.005780000000000006  0.44837  1.0000
  C   C554      1.0  0.11115000000000004  0.33003999999999994  0.54493  1.0000
  C   C555      1.0  0.6438300000000002  0.053830000000000044  0.7341399999999999  1.0000
  C   C556      1.0  0.9483499999999998  0.34498  0.50576  1.0000
  C   C557      1.0  0.05095000000000001  0.7401099999999999  0.57252  1.0000
  C   C558      1.0  0.95098  0.40074  0.41337  1.0000
  C   C559      1.0  0.54495  0.013840000000000003  0.11121999999999999  1.0000
  C   C560      1.0  0.9791100000000001  0.44421999999999995  0.74811  1.0000
  C   C561      1.0  0.004080000000000014  0.67028  0.76404  1.0000
  C   C562      1.0  0.9008500000000002  0.73483  0.45098  1.0000
  C   C563      1.0  0.8542400000000001  0.8099399999999999  0.89174  1.0000
  C   C564      1.0  0.8300700000000001  0.04495  0.51378  1.0000
  C   C565      1.0  0.2213200000000001  0.10196000000000001  0.64192  1.0000
  C   C566      1.0  0.84938  0.8126199999999999  0.44375  1.0000
  C   C567      1.0  0.23480999999999988  0.41341999999999995  0.40079  1.0000
  C   C568      1.0  0.56152  0.7640699999999998  0.67029  1.0000
  C   C569      1.0  0.55626  0.10567999999999997  0.15067999999999995  1.0000
  C   C570      1.0  0.11909000000000002  0.40428  0.96267  1.0000
  C   C571      1.0  0.1699  0.48625000000000007  0.3887799999999999  1.0000
  C   C572      1.0  0.44421000000000005  0.82862  0.7482  1.0000
  C   C573      1.0  0.41341000000000017  0.23486000000000007  0.9509799999999998  1.0000
  C   C574      1.0  0.5991599999999999  0.04902000000000002  0.76516  1.0000
  C   C575      1.0  0.13639000000000004  0.24010000000000004  0.07254  1.0000
  C   C576      1.0  0.55096  0.07251  0.24011  1.0000
  C   C577      1.0  0.45098  0.90085  0.73483  1.0000
  C   C578      1.0  0.061529999999999994  0.26411  0.50408  1.0000
  C   C579      1.0  0.9737200000000003  0.4053800000000001  0.8645799999999998  1.0000
  C   C580      1.0  0.98622  0.45506  0.6698999999999998  1.0000
  C   C581      1.0  0.8946300000000003  0.5405499999999999  0.8270999999999998  1.0000
  C   C582      1.0  0.34500000000000003  0.2007999999999999  0.50582  1.0000
  C   C583      1.0  0.6057  0.68738  0.05624  1.0000
  C   C584      1.0  0.00578000000000011  0.44836999999999977  0.70079  1.0000
  C   C585      1.0  0.9558800000000001  0.41701  0.43945  1.0000
  C   C586      1.0  0.39172999999999997  0.3099299999999999  0.35423  1.0000
  C   C587      1.0  0.60202  0.5347799999999998  0.72139  1.0000
  C   C588      1.0  0.3580800000000003  0.8979999999999997  0.96524  1.0000
  C   C589      1.0  0.04054000000000002  0.3271200000000001  0.23770999999999995  1.0000
  C   C590      1.0  0.44410000000000005  0.8542300000000002  0.89171  1.0000
  C   C591      1.0  0.24821999999999994  0.32859  0.94421  1.0000
  C   C592      1.0  0.6715200000000001  0.5208899999999997  0.05579  1.0000
  C   C593      1.0  0.91341  0.4509699999999999  0.73485  1.0000
  C   C594      1.0  0.27867000000000014  0.8580899999999998  0.39804  1.0000
  C   C595      1.0  0.58659  0.7651399999999999  0.04902  1.0000
  C   C596      1.0  0.5957400000000003  0.8810199999999999  0.48591  1.0000
  C   C597      1.0  0.4318900000000001  0.3561199999999999  0.26582  1.0000
  C   C598      1.0  0.48602  0.03736999999999999  0.59578  1.0000
  C   C599      1.0  0.76228  0.67285  0.60533  1.0000
  C   C600      1.0  0.65067  0.68739  0.6056899999999998  1.0000
  C   C601      1.0  0.7991999999999999  0.49418  0.655  1.0000
  C   C602      1.0  0.90081  0.91342  0.7348  1.0000
  C   C603      1.0  0.58659  0.5992  0.76519  1.0000
  C   C604      1.0  0.55579  0.25189  0.020889999999999992  1.0000
  C   C605      1.0  0.24373  0.59462  0.02622  1.0000
  C   C606      1.0  0.7562700000000002  0.4053800000000001  0.9737799999999998  1.0000
  C   C607      1.0  0.41341000000000017  0.4008  0.23481  1.0000
  C   C608      1.0  0.056240000000000026  0.68738  0.65063  1.0000
  C   C609      1.0  0.17138000000000003  0.2518  0.55579  1.0000
  C   C610      1.0  0.31244999999999995  0.06049000000000001  0.54411  1.0000
  C   C611      1.0  0.5615300000000002  0.004070000000000085  0.7641199999999998  1.0000
  C   C612      1.0  0.8124800000000004  0.56047  0.58295  1.0000
  C   C613      1.0  0.9652300000000001  0.89798  0.77862  1.0000
  C   C614      1.0  0.3946700000000001  0.2377199999999999  0.32716  1.0000
  C   C615      1.0  0.4133700000000003  0.9509799999999997  0.40074  1.0000
  C   C616      1.0  0.6550000000000002  0.7991999999999998  0.49417999999999995  1.0000
  C   C617      1.0  0.15496999999999994  0.99419  0.29922  1.0000
  C   C618      1.0  0.2658600000000001  0.35618000000000005  0.94617  1.0000
  C   C619      1.0  0.54902  0.09914999999999999  0.26517  1.0000
  C   C620      1.0  0.56047  0.58294  0.81248  1.0000
  C   C621      1.0  0.6053800000000001  0.6729  0.9594499999999999  1.0000
  C   C622      1.0  0.55591  0.14577  0.10828999999999998  1.0000
  C   C623      1.0  0.45505999999999996  0.6699  0.98623  1.0000
  C   C624      1.0  0.9626200000000003  0.5140599999999997  0.11902  1.0000
  C   C625      1.0  0.9437699999999998  0.31262  0.34938  1.0000
  C   C626      1.0  0.39463  0.04054  0.23768  1.0000
  C   C627      1.0  0.18756999999999985  0.9558800000000001  0.43952  1.0000
  C   C628      1.0  0.4437499999999999  0.89431  0.84932  1.0000
  C   C629      1.0  0.39429999999999993  0.31261999999999995  0.94376  1.0000
  C   C630      1.0  0.40538000000000024  0.9737799999999996  0.75626  1.0000
  C   C631      1.0  0.26515  0.08658999999999997  0.54902  1.0000
  C   C632      1.0  0.46264000000000005  0.014009999999999986  0.90423  1.0000
  C   C633      1.0  0.55591  0.10824  0.19007  1.0000
  C   C634      1.0  0.56055  0.044120000000000006  0.58299  1.0000
  C   C635      1.0  0.25189  0.17143999999999995  0.02088  1.0000
  C   C636      1.0  0.5509600000000001  0.24003999999999998  0.13638  1.0000
  C   C637      1.0  0.23771999999999993  0.32715  0.39467  1.0000
  C   C638      1.0  0.95098  0.4134100000000001  0.23485999999999996  1.0000
  C   C639      1.0  0.3125000000000001  0.08294  0.06048  1.0000
  C   C640      1.0  0.99592  0.4384299999999999  0.32967  1.0000
  C   C641      1.0  0.10827000000000006  0.14575999999999995  0.19006  1.0000
  C   C642      1.0  0.8126100000000003  0.8493400000000001  0.89432  1.0000
  C   C643      1.0  0.3580800000000002  0.7786799999999997  0.89804  1.0000
  C   C644      1.0  0.5347700000000001  0.60199  0.14191  1.0000
  C   C645      1.0  0.5405400000000001  0.7377099999999999  0.82713  1.0000
  C   C646      1.0  0.24812999999999993  0.47912  0.32853  1.0000
  C   C647      1.0  0.5262600000000001  0.7437599999999999  0.63542  1.0000
  C   C648      1.0  0.5992100000000001  0.76519  0.58658  1.0000
  C   C649      1.0  0.9791200000000001  0.7481  0.82856  1.0000
  C   C650      1.0  0.39431000000000005  0.9437599999999998  0.34931  1.0000
  C   C651      1.0  0.14191  0.53476  0.60199  1.0000
  C   C652      1.0  0.56813  0.05383000000000001  0.64393  1.0000
  C   C653      1.0  0.051639999999999936  0.49420000000000003  0.7992  1.0000
  C   C654      1.0  0.08658999999999999  0.54902  0.26515  1.0000
  C   C655      1.0  0.9042300000000001  0.4626399999999999  0.01401  1.0000
  C   C656      1.0  0.38095  0.53732  0.09572  1.0000
  C   C657      1.0  0.14391  0.55383  0.06813  1.0000
  C   C658      1.0  0.52623  0.09461000000000003  0.74374  1.0000
  C   C659      1.0  0.5538300000000002  0.14381  0.23414999999999994  1.0000
  C   C660      1.0  0.06810999999999999  0.23419  0.14386  1.0000
  C   C661      1.0  0.08659000000000001  0.2652  0.09919  1.0000
  C   C662      1.0  0.55591  0.19002  0.14575999999999997  1.0000
  C   C663      1.0  0.5139899999999998  0.96263  0.40422  1.0000
  C   C664      1.0  0.06049000000000004  0.54411  0.3124499999999999  1.0000
  C   C665      1.0  0.40426000000000006  0.11897999999999999  0.51409  1.0000
  C   C666      1.0  0.5516500000000001  0.9942499999999997  0.15499  1.0000
  C   C667      1.0  0.6873999999999999  0.6056900000000001  0.6506699999999997  1.0000
  C   C668      1.0  0.58295  0.8124799999999999  0.56047  1.0000
  C   C669      1.0  0.73481  0.9008  0.91342  1.0000
  C   C670      1.0  0.013780000000000037  0.54494  0.3301  1.0000
  C   C671      1.0  0.11120000000000002  0.013760000000000008  0.33014  1.0000
  C   C672      1.0  0.80994  0.44409000000000004  0.8917599999999998  1.0000
  O   O1        1.0  0.50336  0.9088  0.03327  1.0000
  O   O2        1.0  0.9668000000000001  0.37588999999999995  0.55454  1.0000
  O   O3        1.0  0.12403000000000018  0.9452899999999999  0.3974499999999999  1.0000
  O   O4        1.0  0.09118999999999992  0.44539  0.96689  1.0000
  O   O5        1.0  0.05470000000000003  0.60255  0.87597  1.0000
  O   O6        1.0  0.37589000000000006  0.55454  0.9668  1.0000
  O   O7        1.0  0.5911200000000002  0.9966699999999995  0.4668  1.0000
  O   O8        1.0  0.9966800000000001  0.5910399999999999  0.9453799999999999  1.0000
  O   O9        1.0  0.9454200000000001  0.12411000000000003  0.53325  1.0000
  O   O10       1.0  0.50346  0.03319999999999998  0.55466  1.0000
  O   O11       1.0  0.9667400000000004  0.4966399999999999  0.09119  1.0000
  O   O12       1.0  0.40896  0.054610000000000006  0.00331  1.0000
  O   O13       1.0  0.4966399999999999  0.0912  0.96673  1.0000
  O   O14       1.0  0.49665000000000004  0.44539  0.09111  1.0000
  O   O15       1.0  0.8972900000000001  0.6240199999999998  0.03319  1.0000
  O   O16       1.0  0.05465000000000005  0.46676  0.60258  1.0000
  O   O17       1.0  0.4667500000000001  0.05459  0.87589  1.0000
  O   O18       1.0  0.46694000000000013  0.94538  0.59112  1.0000
  O   O19       1.0  0.09119000000000003  0.9667399999999998  0.49664  1.0000
  O   O20       1.0  0.09112000000000005  0.4966499999999999  0.4454  1.0000
  O   O21       1.0  0.5546  0.9088900000000001  0.50335  1.0000
  O   O22       1.0  0.39743999999999996  0.12402999999999996  0.9453  1.0000
  O   O23       1.0  0.5910400000000001  0.94539  0.99669  1.0000
  O   O24       1.0  0.05462000000000001  0.4088800000000001  0.53308  1.0000
  O   O25       1.0  0.39743  0.94535  0.53324  1.0000
  O   O26       1.0  0.90881  0.55461  0.03311  1.0000
  O   O27       1.0  0.94533  0.46685000000000004  0.99658  1.0000
  O   O28       1.0  0.03310999999999995  0.90881  0.55461  1.0000
  O   O29       1.0  0.60258  0.054650000000000004  0.46676  1.0000
  O   O30       1.0  0.05459000000000002  0.87589  0.46674999999999994  1.0000
  O   O31       1.0  0.10271000000000016  0.37597999999999976  0.96681  1.0000
  O   O32       1.0  0.10255  0.55466  0.3759699999999999  1.0000
  O   O33       1.0  0.9668100000000002  0.10270999999999994  0.37598  1.0000
  O   O34       1.0  0.44546  0.03320000000000001  0.62411  1.0000
  O   O35       1.0  0.6240300000000001  0.8974599999999999  0.4453399999999999  1.0000
  O   O36       1.0  0.03320000000000008  0.6241099999999999  0.44546  1.0000
  O   O37       1.0  0.53316  0.0034199999999999964  0.05466  1.0000
  O   O38       1.0  0.03320999999999997  0.55465  0.50345  1.0000
  O   O39       1.0  0.12411000000000005  0.53325  0.94541  1.0000
  O   O40       1.0  0.55466  0.37597  0.10255  1.0000
  O   O41       1.0  0.55461  0.03312000000000007  0.9088099999999998  1.0000
  O   O42       1.0  0.44534  0.62403  0.89746  1.0000
  O   O43       1.0  0.9668100000000001  0.55461  0.10257  1.0000
  O   O44       1.0  0.9453900000000001  0.9966899999999999  0.59104  1.0000
  O   O45       1.0  0.1025699999999999  0.9668099999999998  0.55461  1.0000
  O   O46       1.0  0.9453000000000001  0.3974499999999999  0.12402999999999997  1.0000
  O   O47       1.0  0.89743  0.03318999999999998  0.44539  1.0000
  O   O48       1.0  0.49655000000000005  0.9668  0.4453399999999999  1.0000
  O   O49       1.0  0.054670000000000094  0.5331499999999998  0.003419999999999999  1.0000
  O   O50       1.0  0.12402000000000003  0.39728  0.53324  1.0000
  O   O51       1.0  0.9965800000000001  0.94533  0.46685  1.0000
  O   O52       1.0  0.4667600000000001  0.60257  0.05465  1.0000
  O   O53       1.0  0.5545400000000001  0.9667999999999999  0.37588999999999995  1.0000
  O   O54       1.0  0.0033200000000000126  0.40896  0.05462  1.0000
  O   O55       1.0  0.6240199999999999  0.033200000000000035  0.89729  1.0000
  O   O56       1.0  0.8974500000000001  0.44534000000000007  0.62403  1.0000
  O   O57       1.0  0.60256  0.8759699999999999  0.054699999999999985  1.0000
  O   O58       1.0  0.003419999999999973  0.054670000000000024  0.53315  1.0000
  O   O59       1.0  0.05461  0.0033099999999999788  0.40897  1.0000
  O   O60       1.0  0.03319000000000003  0.44539  0.89744  1.0000
  O   O61       1.0  0.8759800000000004  0.054710000000000064  0.6025499999999998  1.0000
  O   O62       1.0  0.4454000000000001  0.09110999999999998  0.49665  1.0000
  O   O63       1.0  0.4453900000000001  0.8974299999999997  0.0332  1.0000
  O   O64       1.0  0.87589  0.4667499999999999  0.05459  1.0000
  O   O65       1.0  0.40889000000000014  0.53307  0.05462  1.0000
  O   O66       1.0  0.5332399999999999  0.12402000000000003  0.39728999999999987  1.0000
  O   O67       1.0  0.46684  0.9965800000000001  0.9453399999999997  1.0000
  O   O68       1.0  0.0033300000000000096  0.53321  0.40888  1.0000
  O   O69       1.0  0.37598000000000015  0.9667999999999998  0.10271  1.0000
  O   O70       1.0  0.94535  0.53324  0.39742  1.0000
  O   O71       1.0  0.59112  0.46693000000000007  0.9453799999999999  1.0000
  O   O72       1.0  0.4667600000000004  0.8759799999999996  0.6027099999999997  1.0000
  O   O73       1.0  0.4668  0.59111  0.99667  1.0000
  O   O74       1.0  0.90889  0.5033500000000001  0.5546  1.0000
  O   O75       1.0  0.44534  0.4965399999999999  0.9668  1.0000
  O   O76       1.0  0.37597  0.10254000000000002  0.55467  1.0000
  O   O77       1.0  0.8759800000000001  0.60271  0.46676  1.0000
  O   O78       1.0  0.44540000000000013  0.96687  0.09119  1.0000
  O   O79       1.0  0.40889000000000014  0.003329999999999999  0.5332  1.0000
  O   O80       1.0  0.62411  0.44546  0.0332  1.0000
  O   O81       1.0  0.90881  0.03326000000000001  0.50336  1.0000
  O   O82       1.0  0.39729000000000014  0.53324  0.12402  1.0000
  O   O83       1.0  0.03326000000000016  0.50336  0.9088099999999998  1.0000
  O   O84       1.0  0.9453900000000003  0.5911199999999999  0.46692  1.0000
  O   O85       1.0  0.5546599999999999  0.50345  0.0332  1.0000
  O   O86       1.0  0.53307  0.054620000000000016  0.40889  1.0000
  O   O87       1.0  0.96689  0.09119000000000001  0.44539  1.0000
  O   O88       1.0  0.033189999999999976  0.8972900000000001  0.62402  1.0000
  O   O89       1.0  0.5033600000000003  0.5545999999999999  0.90889  1.0000
  O   O90       1.0  0.6027100000000001  0.46676000000000006  0.8759799999999998  1.0000
  O   O91       1.0  0.5332000000000001  0.40888999999999986  0.00333  1.0000
  O   O92       1.0  0.5546100000000002  0.10256999999999998  0.96681  1.0000
  O   O93       1.0  0.53325  0.94541  0.12410999999999998  1.0000
  O   O94       1.0  0.9667999999999999  0.4453500000000001  0.49655  1.0000
  O   O95       1.0  0.5332400000000002  0.39743000000000006  0.9453499999999998  1.0000
  O   O96       1.0  0.9966700000000003  0.4667899999999998  0.59112  1.0000
