data_image0
_chemical_formula_structural       Gd28H212C340O140
_chemical_formula_sum              "Gd28 H212 C340 O140"
_cell_length_a       20.77443
_cell_length_b       25.128040000000002
_cell_length_c       25.06957
_cell_angle_alpha    98.02238000000001
_cell_angle_beta     90.08412
_cell_angle_gamma    90.00456

_space_group_name_H-M_alt    "P 1"
_space_group_IT_number       1

loop_
  _space_group_symop_operation_xyz
  'x, y, z'

loop_
  _atom_site_type_symbol
  _atom_site_label
  _atom_site_symmetry_multiplicity
  _atom_site_fract_x
  _atom_site_fract_y
  _atom_site_fract_z
  _atom_site_occupancy
  Gd  Gd1       1.0  0.46268  0.20747  0.12217  1.0000
  Gd  Gd2       1.0  0.47002999999999995  0.08987  0.19929999999999998  1.0000
  Gd  Gd3       1.0  0.50769  0.22607000000000002  0.27461  1.0000
  Gd  Gd4       1.0  0.62784  0.15632  0.16505  1.0000
  Gd  Gd5       1.0  0.54346  0.30802  0.41032999999999986  1.0000
  Gd  Gd6       1.0  0.55062  0.3796  0.2875599999999999  1.0000
  Gd  Gd7       1.0  0.39091000000000004  0.33715  0.33767  1.0000
  Gd  Gd8       1.0  0.9625  0.7920100000000001  0.3779599999999999  1.0000
  Gd  Gd9       1.0  0.9704100000000001  0.9089100000000001  0.30052999999999996  1.0000
  Gd  Gd10      1.0  0.00506  0.77297  0.22572  1.0000
  Gd  Gd11      1.0  0.12806  0.8428800000000002  0.3348299999999999  1.0000
  Gd  Gd12      1.0  0.04271  0.6923000000000002  0.09084  1.0000
  Gd  Gd13      1.0  0.05020999999999999  0.62014  0.21260999999999994  1.0000
  Gd  Gd14      1.0  0.8898  0.6613600000000001  0.16096  1.0000
  Gd  Gd15      1.0  0.53731  0.79253  0.87783  1.0000
  Gd  Gd16      1.0  0.52997  0.9101299999999999  0.8006899999999999  1.0000
  Gd  Gd17      1.0  0.4923  0.7739300000000001  0.7253899999999999  1.0000
  Gd  Gd18      1.0  0.37215  0.84368  0.83495  1.0000
  Gd  Gd19      1.0  0.45653  0.6919800000000003  0.58967  1.0000
  Gd  Gd20      1.0  0.44936999999999994  0.6204  0.71244  1.0000
  Gd  Gd21      1.0  0.60909  0.6628500000000003  0.66233  1.0000
  Gd  Gd22      1.0  0.0375  0.20799000000000006  0.62204  1.0000
  Gd  Gd23      1.0  0.02958  0.09108999999999999  0.6994699999999999  1.0000
  Gd  Gd24      1.0  0.99493  0.22702999999999998  0.7742799999999997  1.0000
  Gd  Gd25      1.0  0.8719299999999999  0.15712  0.6651699999999999  1.0000
  Gd  Gd26      1.0  0.95729  0.3077  0.90916  1.0000
  Gd  Gd27      1.0  0.94978  0.3798600000000001  0.7873899999999999  1.0000
  Gd  Gd28      1.0  0.11019999999999999  0.33863  0.83904  1.0000
  H   H1        1.0  0.3882399999999999  0.18507  0.21858999999999995  1.0000
  H   H2        1.0  0.56902  0.26721  0.18263999999999997  1.0000
  H   H3        1.0  0.53404  0.10488000000000003  0.09677999999999999  1.0000
  H   H4        1.0  0.5757  0.1346  0.26941999999999994  1.0000
  H   H5        1.0  0.62486  0.28806000000000004  0.31533  1.0000
  H   H6        1.0  0.44034  0.23451000000000005  0.36509999999999987  1.0000
  H   H7        1.0  0.44609  0.31722  0.23027999999999996  1.0000
  H   H8        1.0  0.72033  0.0625  0.05321  1.0000
  H   H9        1.0  0.48534  0.41243  0.39230999999999994  1.0000
  H   H10       1.0  0.65611  0.1084  0.31473  1.0000
  H   H11       1.0  0.63372  0.16988000000000006  0.48273  1.0000
  H   H12       1.0  0.7103  0.027439999999999992  0.33906  1.0000
  H   H13       1.0  0.69139  0.09029000000000001  0.5076099999999999  1.0000
  H   H14       1.0  0.46301  0.26829  0.5426299999999998  1.0000
  H   H15       1.0  0.27407  0.30787  0.49042  1.0000
  H   H16       1.0  0.71706  0.3731700000000001  0.47883999999999993  1.0000
  H   H17       1.0  0.72075  0.48035000000000005  0.35964  1.0000
  H   H18       1.0  0.4715599999999999  0.52319  0.23198999999999997  1.0000
  H   H19       1.0  0.29161  0.4939100000000001  0.30661  1.0000
  H   H20       1.0  0.41509  0.22538  0.6166899999999998  1.0000
  H   H21       1.0  0.22558  0.26584  0.5654999999999999  1.0000
  H   H22       1.0  0.42505000000000004  0.6038000000000001  0.19929999999999998  1.0000
  H   H23       1.0  0.24364  0.57302  0.27255999999999997  1.0000
  H   H24       1.0  0.85122  0.5045900000000001  0.49471999999999994  1.0000
  H   H25       1.0  0.80071  0.99021  0.3745999999999999  1.0000
  H   H26       1.0  0.66911  0.0023899999999999985  0.50816  1.0000
  H   H27       1.0  0.81242  0.33762  0.5197799999999999  1.0000
  H   H28       1.0  0.80941  0.50614  0.58236  1.0000
  H   H29       1.0  0.81647  0.52232  0.3241199999999999  1.0000
  H   H30       1.0  0.81294  0.58784  0.49236999999999986  1.0000
  H   H31       1.0  0.23949  0.29729  0.6731499999999999  1.0000
  H   H32       1.0  0.33802  0.14632000000000003  0.6304799999999999  1.0000
  H   H33       1.0  0.8524099999999999  0.31676  0.6090399999999999  1.0000
  H   H34       1.0  0.85011  0.48468000000000006  0.6710299999999999  1.0000
  H   H35       1.0  0.85995  0.60929  0.30195  1.0000
  H   H36       1.0  0.85702  0.6743800000000002  0.46965999999999997  1.0000
  H   H37       1.0  0.35188  0.63094  0.13772  1.0000
  H   H38       1.0  0.25126  0.6713000000000002  0.28858999999999996  1.0000
  H   H39       1.0  0.79928  0.8680000000000001  0.47818  1.0000
  H   H40       1.0  0.69299  0.8318900000000002  0.51362  1.0000
  H   H41       1.0  0.70955  0.99438  0.5948899999999999  1.0000
  H   H42       1.0  0.22803  0.17574999999999996  0.7773599999999998  1.0000
  H   H43       1.0  0.24502  0.77922  0.17090999999999998  1.0000
  H   H44       1.0  0.63236  0.8068300000000002  0.59136  1.0000
  H   H45       1.0  0.64731  0.96889  0.6721699999999998  1.0000
  H   H46       1.0  0.40748  0.11845999999999997  0.7005099999999997  1.0000
  H   H47       1.0  0.21763  0.07703000000000003  0.75012  1.0000
  H   H48       1.0  0.42092999999999997  0.69078  0.10532999999999997  1.0000
  H   H49       1.0  0.2385  0.7635600000000001  0.07640999999999999  1.0000
  H   H50       1.0  0.45277  0.04105999999999999  0.73976  1.0000
  H   H51       1.0  0.26365  0.99804  0.7871299999999999  1.0000
  H   H52       1.0  0.46490999999999993  0.72114  0.022659999999999993  1.0000
  H   H53       1.0  0.28335  0.7945899999999999  0.9945199999999997  1.0000
  H   H54       1.0  0.8865200000000001  0.81486  0.28235  1.0000
  H   H55       1.0  0.06827  0.7320500000000002  0.31679999999999997  1.0000
  H   H56       1.0  0.03537  0.8934000000000002  0.4030399999999999  1.0000
  H   H57       1.0  0.07527  0.86273  0.23000999999999994  1.0000
  H   H58       1.0  0.12315  0.71331  0.18679  1.0000
  H   H59       1.0  0.93773  0.76454  0.13512999999999997  1.0000
  H   H60       1.0  0.9435200000000001  0.68106  0.26948  1.0000
  H   H61       1.0  0.22056  0.93812  0.44620999999999994  1.0000
  H   H62       1.0  0.9864699999999998  0.58706  0.10773  1.0000
  H   H63       1.0  0.15472  0.89151  0.18602999999999997  1.0000
  H   H64       1.0  0.13297  0.8296900000000003  0.01804  1.0000
  H   H65       1.0  0.20829  0.97271  0.16177  1.0000
  H   H66       1.0  0.19008  0.9094900000000001  0.9932  1.0000
  H   H67       1.0  0.96307  0.7320100000000003  0.9574999999999999  1.0000
  H   H68       1.0  0.77442  0.69099  0.00869  1.0000
  H   H69       1.0  0.21675  0.62788  0.021259999999999994  1.0000
  H   H70       1.0  0.21968000000000001  0.5205800000000002  0.14035  1.0000
  H   H71       1.0  0.97219  0.47575  0.2681  1.0000
  H   H72       1.0  0.7920799999999999  0.5049799999999999  0.19325999999999993  1.0000
  H   H73       1.0  0.9148400000000001  0.7759599999999999  0.8841999999999998  1.0000
  H   H74       1.0  0.72547  0.73429  0.93451  1.0000
  H   H75       1.0  0.9255399999999999  0.39548  0.30115  1.0000
  H   H76       1.0  0.7439  0.4264  0.22807  1.0000
  H   H77       1.0  0.35015  0.49606000000000006  0.005489999999999998  1.0000
  H   H78       1.0  0.29954  0.009909999999999997  0.12593999999999997  1.0000
  H   H79       1.0  0.16762  0.9973100000000003  0.9922699999999998  1.0000
  H   H80       1.0  0.3115  0.66313  0.98002  1.0000
  H   H81       1.0  0.30875  0.4945000000000001  0.9179199999999998  1.0000
  H   H82       1.0  0.31595  0.47741  0.17634999999999995  1.0000
  H   H83       1.0  0.31341  0.41281  0.00779  1.0000
  H   H84       1.0  0.73791  0.7047600000000003  0.8277499999999998  1.0000
  H   H85       1.0  0.8393  0.85451  0.8699999999999999  1.0000
  H   H86       1.0  0.35197  0.6837300000000002  0.89099  1.0000
  H   H87       1.0  0.35002  0.51562  0.8294499999999998  1.0000
  H   H88       1.0  0.36077  0.3908100000000001  0.19800999999999996  1.0000
  H   H89       1.0  0.35903  0.32677000000000006  0.030089999999999992  1.0000
  H   H90       1.0  0.8525499999999999  0.3683300000000001  0.3624999999999999  1.0000
  H   H91       1.0  0.75102  0.32855  0.21182  1.0000
  H   H92       1.0  0.29834  0.13141  0.021469999999999993  1.0000
  H   H93       1.0  0.19258000000000003  0.16771  0.98675  1.0000
  H   H94       1.0  0.20843  0.005169999999999968  0.9054799999999997  1.0000
  H   H95       1.0  0.72777  0.8265900000000003  0.72364  1.0000
  H   H96       1.0  0.74516  0.22023000000000004  0.32919  1.0000
  H   H97       1.0  0.13219  0.19300999999999993  0.9088299999999998  1.0000
  H   H98       1.0  0.14669  0.03098  0.82781  1.0000
  H   H99       1.0  0.9082699999999999  0.88276  0.8001399999999999  1.0000
  H   H100      1.0  0.71821  0.9238700000000002  0.75026  1.0000
  H   H101      1.0  0.9201299999999999  0.31003  0.3963099999999999  1.0000
  H   H102      1.0  0.73773  0.23647  0.4235399999999999  1.0000
  H   H103      1.0  0.95339  0.9596900000000003  0.76007  1.0000
  H   H104      1.0  0.76412  0.0024499999999999826  0.7125099999999999  1.0000
  H   H105      1.0  0.9638  0.27948  0.47917999999999994  1.0000
  H   H106      1.0  0.7821799999999999  0.20557000000000006  0.5059199999999999  1.0000
  H   H107      1.0  0.61175  0.81493  0.7814099999999998  1.0000
  H   H108      1.0  0.43096999999999996  0.7327900000000002  0.8173499999999999  1.0000
  H   H109      1.0  0.46595  0.8951199999999999  0.9032099999999998  1.0000
  H   H110      1.0  0.42428999999999994  0.8654  0.7305799999999998  1.0000
  H   H111      1.0  0.37513  0.71194  0.6846699999999998  1.0000
  H   H112      1.0  0.55966  0.76549  0.6349  1.0000
  H   H113      1.0  0.5539  0.6827800000000002  0.76972  1.0000
  H   H114      1.0  0.27966  0.9375  0.9467899999999998  1.0000
  H   H115      1.0  0.51465  0.5875700000000001  0.60769  1.0000
  H   H116      1.0  0.34389  0.8916  0.68527  1.0000
  H   H117      1.0  0.36627  0.8301200000000001  0.5172699999999999  1.0000
  H   H118      1.0  0.28969  0.9725600000000002  0.66094  1.0000
  H   H119      1.0  0.3086  0.90971  0.49239  1.0000
  H   H120      1.0  0.53698  0.73171  0.4573599999999999  1.0000
  H   H121      1.0  0.72592  0.69213  0.5095699999999999  1.0000
  H   H122      1.0  0.28293  0.62682  0.52116  1.0000
  H   H123      1.0  0.27924  0.5196500000000001  0.64036  1.0000
  H   H124      1.0  0.52843  0.47681000000000007  0.76801  1.0000
  H   H125      1.0  0.70838  0.50609  0.69339  1.0000
  H   H126      1.0  0.58491  0.77462  0.38331  1.0000
  H   H127      1.0  0.77441  0.7341600000000003  0.4345  1.0000
  H   H128      1.0  0.57494  0.3962  0.8006999999999999  1.0000
  H   H129      1.0  0.75635  0.42698  0.72743  1.0000
  H   H130      1.0  0.14877  0.49541  0.50528  1.0000
  H   H131      1.0  0.19927999999999998  0.009789999999999986  0.6254  1.0000
  H   H132      1.0  0.33089  0.9976100000000002  0.49184  1.0000
  H   H133      1.0  0.18757  0.6623800000000001  0.48022  1.0000
  H   H134      1.0  0.19059  0.49386  0.41763  1.0000
  H   H135      1.0  0.18352  0.47768000000000005  0.6758699999999997  1.0000
  H   H136      1.0  0.18705  0.41216000000000014  0.5076199999999998  1.0000
  H   H137      1.0  0.76051  0.7027  0.3268499999999999  1.0000
  H   H138      1.0  0.66198  0.85368  0.36952  1.0000
  H   H139      1.0  0.14758  0.6832400000000001  0.39096  1.0000
  H   H140      1.0  0.14988  0.51532  0.3289699999999999  1.0000
  H   H141      1.0  0.14005  0.3907  0.69805  1.0000
  H   H142      1.0  0.14297  0.32562  0.5303399999999999  1.0000
  H   H143      1.0  0.64811  0.36905  0.86228  1.0000
  H   H144      1.0  0.74874  0.3287  0.7114099999999998  1.0000
  H   H145      1.0  0.20071000000000003  0.13200000000000003  0.52182  1.0000
  H   H146      1.0  0.307  0.16811  0.48638  1.0000
  H   H147      1.0  0.29045  0.005619999999999993  0.40509999999999996  1.0000
  H   H148      1.0  0.77196  0.8242500000000003  0.22264  1.0000
  H   H149      1.0  0.75497  0.22078000000000003  0.82909  1.0000
  H   H150      1.0  0.36764  0.19317000000000004  0.4086399999999999  1.0000
  H   H151      1.0  0.35269  0.031110000000000006  0.32781999999999994  1.0000
  H   H152      1.0  0.59251  0.88154  0.2994899999999999  1.0000
  H   H153      1.0  0.78236  0.9229700000000002  0.24988  1.0000
  H   H154      1.0  0.57907  0.30921000000000004  0.8946599999999999  1.0000
  H   H155      1.0  0.7615  0.23644  0.92359  1.0000
  H   H156      1.0  0.54722  0.9589400000000001  0.26023999999999997  1.0000
  H   H157      1.0  0.73634  0.0019599999999999913  0.21285999999999994  1.0000
  H   H158      1.0  0.53509  0.27886  0.9773399999999998  1.0000
  H   H159      1.0  0.71664  0.20541  0.005479999999999999  1.0000
  H   H160      1.0  0.11346999999999999  0.18514  0.71765  1.0000
  H   H161      1.0  0.93172  0.26795000000000013  0.6832  1.0000
  H   H162      1.0  0.9646200000000001  0.10659000000000002  0.5969499999999999  1.0000
  H   H163      1.0  0.9247299999999999  0.13727000000000003  0.76999  1.0000
  H   H164      1.0  0.87685  0.28669  0.8132099999999998  1.0000
  H   H165      1.0  0.06226  0.23546000000000003  0.8648699999999998  1.0000
  H   H166      1.0  0.05648  0.31894  0.73052  1.0000
  H   H167      1.0  0.77943  0.061880000000000004  0.55379  1.0000
  H   H168      1.0  0.01352  0.41294000000000003  0.8922699999999999  1.0000
  H   H169      1.0  0.8452699999999999  0.10849  0.81397  1.0000
  H   H170      1.0  0.8670199999999999  0.17031  0.98196  1.0000
  H   H171      1.0  0.7917  0.027289999999999984  0.8382299999999999  1.0000
  H   H172      1.0  0.80992  0.09051000000000001  0.0068  1.0000
  H   H173      1.0  0.03692  0.26799  0.042499999999999996  1.0000
  H   H174      1.0  0.22556999999999996  0.30901  0.9913099999999998  1.0000
  H   H175      1.0  0.7832400000000002  0.37212  0.97874  1.0000
  H   H176      1.0  0.7803099999999998  0.47941999999999996  0.8596499999999999  1.0000
  H   H177      1.0  0.0278  0.52425  0.73189  1.0000
  H   H178      1.0  0.20791  0.4950100000000001  0.8067399999999998  1.0000
  H   H179      1.0  0.08516  0.22404  0.1158  1.0000
  H   H180      1.0  0.27453  0.26571  0.06548  1.0000
  H   H181      1.0  0.07446  0.60452  0.69885  1.0000
  H   H182      1.0  0.25609  0.5736  0.77193  1.0000
  H   H183      1.0  0.64985  0.50394  0.9945099999999998  1.0000
  H   H184      1.0  0.70045  0.9900900000000002  0.87405  1.0000
  H   H185      1.0  0.83238  0.0026900000000000006  0.007729999999999999  1.0000
  H   H186      1.0  0.68849  0.33687  0.019979999999999998  1.0000
  H   H187      1.0  0.69125  0.5055  0.08207999999999997  1.0000
  H   H188      1.0  0.68405  0.52258  0.82365  1.0000
  H   H189      1.0  0.68658  0.5872  0.99221  1.0000
  H   H190      1.0  0.26208  0.29524  0.17224999999999993  1.0000
  H   H191      1.0  0.16069  0.14549  0.12999999999999998  1.0000
  H   H192      1.0  0.64803  0.31627  0.10901  1.0000
  H   H193      1.0  0.64998  0.4843800000000001  0.17055  1.0000
  H   H194      1.0  0.63922  0.60919  0.8019799999999998  1.0000
  H   H195      1.0  0.64096  0.67323  0.9698999999999998  1.0000
  H   H196      1.0  0.14744  0.63167  0.6374999999999998  1.0000
  H   H197      1.0  0.24897  0.67145  0.78818  1.0000
  H   H198      1.0  0.70166  0.86859  0.9785299999999999  1.0000
  H   H199      1.0  0.80742  0.83229  0.01325  1.0000
  H   H200      1.0  0.7915599999999999  0.9948300000000001  0.09451999999999999  1.0000
  H   H201      1.0  0.27223  0.17341000000000004  0.27636  1.0000
  H   H202      1.0  0.25483  0.7797700000000002  0.6708099999999998  1.0000
  H   H203      1.0  0.8677999999999999  0.8069900000000001  0.09117  1.0000
  H   H204      1.0  0.8532999999999998  0.9690200000000002  0.17217999999999994  1.0000
  H   H205      1.0  0.09172  0.11724000000000001  0.19985  1.0000
  H   H206      1.0  0.28178  0.07613000000000003  0.24974  1.0000
  H   H207      1.0  0.07986  0.68997  0.6036899999999998  1.0000
  H   H208      1.0  0.26227  0.76353  0.57646  1.0000
  H   H209      1.0  0.0466  0.04031  0.23993  1.0000
  H   H210      1.0  0.23587  0.99755  0.28749  1.0000
  H   H211      1.0  0.03618999999999999  0.7205200000000003  0.52082  1.0000
  H   H212      1.0  0.21781  0.79443  0.49407999999999996  1.0000
  C   C1        1.0  0.59953  0.18802000000000005  0.3834299999999999  1.0000
  C   C2        1.0  0.69451  0.08966000000000002  0.08464999999999999  1.0000
  C   C3        1.0  0.63931  0.14316  0.39746  1.0000
  C   C4        1.0  0.40289  0.31865  0.46936999999999995  1.0000
  C   C5        1.0  0.65807  0.39525  0.3906499999999999  1.0000
  C   C6        1.0  0.41428  0.45504  0.29073999999999994  1.0000
  C   C7        1.0  0.66274  0.10371999999999999  0.3568899999999999  1.0000
  C   C8        1.0  0.65094  0.13849  0.45178  1.0000
  C   C9        1.0  0.37185  0.29163  0.51204  1.0000
  C   C10       1.0  0.71528  0.42343000000000003  0.4161899999999999  1.0000
  C   C11       1.0  0.385  0.50352  0.27186999999999995  1.0000
  C   C12       1.0  0.6945  0.05888  0.37063  1.0000
  C   C13       1.0  0.68265  0.09361000000000001  0.4653899999999999  1.0000
  C   C14       1.0  0.4111099999999999  0.26724  0.5475099999999999  1.0000
  C   C15       1.0  0.30472  0.29  0.51835  1.0000
  C   C16       1.0  0.73888  0.4074100000000001  0.4638099999999999  1.0000
  C   C17       1.0  0.74077  0.46823000000000004  0.39621999999999996  1.0000
  C   C18       1.0  0.42179999999999995  0.53464  0.24075999999999995  1.0000
  C   C19       1.0  0.32063  0.5182500000000001  0.28317  1.0000
  C   C20       1.0  0.70339  0.05256000000000001  0.42505  1.0000
  C   C21       1.0  0.38409  0.24304  0.58884  1.0000
  C   C22       1.0  0.27765  0.26671  0.56054  1.0000
  C   C23       1.0  0.7876699999999999  0.43682  0.49281  1.0000
  C   C24       1.0  0.78922  0.4984000000000001  0.4252299999999999  1.0000
  C   C25       1.0  0.3951799999999999  0.57946  0.22208  1.0000
  C   C26       1.0  0.29399  0.56317  0.26430999999999993  1.0000
  C   C27       1.0  0.7315  0.0027799999999999956  0.43974  1.0000
  C   C28       1.0  0.31706  0.24361  0.59689  1.0000
  C   C29       1.0  0.81  0.42324  0.545  1.0000
  C   C30       1.0  0.81251  0.4818900000000001  0.47286  1.0000
  C   C31       1.0  0.81338  0.5490800000000001  0.4097499999999999  1.0000
  C   C32       1.0  0.33083  0.5949300000000001  0.23353999999999994  1.0000
  C   C33       1.0  0.78013  0.97468  0.40915  1.0000
  C   C34       1.0  0.7083  0.9819  0.48499999999999993  1.0000
  C   C35       1.0  0.2901  0.22316000000000003  0.6450399999999997  1.0000
  C   C36       1.0  0.82059  0.36969  0.55294  1.0000
  C   C37       1.0  0.82  0.46488  0.5879099999999999  1.0000
  C   C38       1.0  0.8253800000000001  0.55559  0.3559099999999999  1.0000
  C   C39       1.0  0.8244599999999999  0.59221  0.45088999999999996  1.0000
  C   C40       1.0  0.30443  0.6442600000000003  0.21491  1.0000
  C   C41       1.0  0.8040199999999998  0.92654  0.42335  1.0000
  C   C42       1.0  0.73179  0.9336800000000001  0.49982999999999994  1.0000
  C   C43       1.0  0.2509  0.25677000000000005  0.68081  1.0000
  C   C44       1.0  0.30738  0.17236  0.6580399999999998  1.0000
  C   C45       1.0  0.8435  0.35792  0.60217  1.0000
  C   C46       1.0  0.842  0.45326  0.63724  1.0000
  C   C47       1.0  0.85033  0.60391  0.34349999999999997  1.0000
  C   C48       1.0  0.84824  0.6404100000000001  0.4386099999999999  1.0000
  C   C49       1.0  0.32226  0.6585900000000002  0.16457  1.0000
  C   C50       1.0  0.26433  0.67949  0.24847999999999998  1.0000
  C   C51       1.0  0.77943  0.9054  0.4680699999999999  1.0000
  C   C52       1.0  0.85814  0.8990700000000001  0.3916999999999999  1.0000
  C   C53       1.0  0.70359  0.9153500000000002  0.54815  1.0000
  C   C54       1.0  0.22849  0.23907000000000003  0.728  1.0000
  C   C55       1.0  0.28539  0.15413000000000002  0.7053899999999997  1.0000
  C   C56       1.0  0.85511  0.39985000000000004  0.64407  1.0000
  C   C57       1.0  0.8620199999999999  0.64623  0.38496999999999987  1.0000
  C   C58       1.0  0.30172  0.7069300000000002  0.1475  1.0000
  C   C59       1.0  0.2428  0.72754  0.23195999999999997  1.0000
  C   C60       1.0  0.68369  0.8619100000000001  0.54846  1.0000
  C   C61       1.0  0.69191  0.9534600000000002  0.59386  1.0000
  C   C62       1.0  0.24446000000000004  0.18767999999999999  0.7395699999999997  1.0000
  C   C63       1.0  0.19132  0.27523  0.7689599999999998  1.0000
  C   C64       1.0  0.30944  0.10360000000000001  0.72267  1.0000
  C   C65       1.0  0.88323  0.38983  0.69574  1.0000
  C   C66       1.0  0.88892  0.69854  0.3757  1.0000
  C   C67       1.0  0.26074  0.74074  0.18155  1.0000
  C   C68       1.0  0.32612  0.72401  0.09686  1.0000
  C   C69       1.0  0.20426  0.7673600000000003  0.26941  1.0000
  C   C70       1.0  0.649  0.8479200000000001  0.59194  1.0000
  C   C71       1.0  0.65772  0.9393600000000002  0.6373  1.0000
  C   C72       1.0  0.37563  0.09183  0.7188399999999998  1.0000
  C   C73       1.0  0.26914  0.06907  0.7473  1.0000
  C   C74       1.0  0.39013  0.7124200000000003  0.08060999999999997  1.0000
  C   C75       1.0  0.28823  0.7541900000000002  0.06507999999999999  1.0000
  C   C76       1.0  0.63433  0.8868300000000002  0.6361  1.0000
  C   C77       1.0  0.40126  0.04863999999999999  0.7410399999999999  1.0000
  C   C78       1.0  0.29463  0.02488999999999999  0.7682299999999999  1.0000
  C   C79       1.0  0.41532  0.7296200000000002  0.03458  1.0000
  C   C80       1.0  0.31315  0.7716900000000002  0.01891  1.0000
  C   C81       1.0  0.59199  0.8744699999999999  0.68037  1.0000
  C   C82       1.0  0.36116  0.01485  0.76637  1.0000
  C   C83       1.0  0.37702  0.7591900000000003  0.00287  1.0000
  C   C84       1.0  0.3895799999999999  0.96944  0.7915299999999997  1.0000
  C   C85       1.0  0.40252  0.7740000000000001  0.9521999999999999  1.0000
  C   C86       1.0  0.09907  0.8111000000000003  0.11676  1.0000
  C   C87       1.0  0.19459  0.9105300000000001  0.4151399999999999  1.0000
  C   C88       1.0  0.13821  0.85651  0.10327  1.0000
  C   C89       1.0  0.9029999999999999  0.68032  0.02983  1.0000
  C   C90       1.0  0.15806  0.60594  0.10969999999999998  1.0000
  C   C91       1.0  0.91441  0.54375  0.20840999999999996  1.0000
  C   C92       1.0  0.16126  0.8961500000000001  0.14386  1.0000
  C   C93       1.0  0.14987  0.86125  0.04899  1.0000
  C   C94       1.0  0.8720099999999998  0.70796  0.9875399999999998  1.0000
  C   C95       1.0  0.21481  0.57744  0.08384  1.0000
  C   C96       1.0  0.8855099999999999  0.4954500000000001  0.22796  1.0000
  C   C97       1.0  0.19275  0.9411600000000001  0.13016999999999998  1.0000
  C   C98       1.0  0.18131  0.9062300000000002  0.03540999999999999  1.0000
  C   C99       1.0  0.91114  0.73304  0.95261  1.0000
  C   C100      1.0  0.8048599999999999  0.70951  0.98117  1.0000
  C   C101      1.0  0.23832000000000003  0.59349  0.03626  1.0000
  C   C102      1.0  0.24001  0.5324300000000001  0.10378999999999997  1.0000
  C   C103      1.0  0.9224  0.46442  0.25922  1.0000
  C   C104      1.0  0.82112  0.4807000000000001  0.21676  1.0000
  C   C105      1.0  0.20179  0.94743  0.07576999999999999  1.0000
  C   C106      1.0  0.8839299999999999  0.75783  0.91171  1.0000
  C   C107      1.0  0.7775699999999999  0.73348  0.9394799999999998  1.0000
  C   C108      1.0  0.28681  0.56386  0.007259999999999998  1.0000
  C   C109      1.0  0.28829  0.50203  0.07488999999999998  1.0000
  C   C110      1.0  0.8957199999999998  0.41979  0.27821  1.0000
  C   C111      1.0  0.79437  0.4361200000000001  0.23602999999999993  1.0000
  C   C112      1.0  0.22997  0.9971500000000002  0.06092999999999999  1.0000
  C   C113      1.0  0.8168599999999999  0.7572900000000002  0.9036399999999998  1.0000
  C   C114      1.0  0.30921  0.5774  0.95508  1.0000
  C   C115      1.0  0.31143  0.51867  0.027259999999999993  1.0000
  C   C116      1.0  0.31304  0.4513900000000001  0.09046999999999997  1.0000
  C   C117      1.0  0.83128  0.40448000000000006  0.26687  1.0000
  C   C118      1.0  0.27888  0.025260000000000005  0.09128999999999997  1.0000
  C   C119      1.0  0.20685000000000003  0.01781  0.015479999999999997  1.0000
  C   C120      1.0  0.7896899999999999  0.7783500000000001  0.8558799999999999  1.0000
  C   C121      1.0  0.31985  0.63093  0.9470299999999998  1.0000
  C   C122      1.0  0.31942  0.53573  0.91227  1.0000
  C   C123      1.0  0.32526  0.44452  0.14424  1.0000
  C   C124      1.0  0.32492  0.4084400000000001  0.04929  1.0000
  C   C125      1.0  0.8047799999999999  0.35523  0.2853899999999999  1.0000
  C   C126      1.0  0.30317  0.07313  0.07668  1.0000
  C   C127      1.0  0.23051  0.06588  0.0005  1.0000
  C   C128      1.0  0.74978  0.74521  0.82023  1.0000
  C   C129      1.0  0.8076999999999999  0.8289200000000002  0.8427799999999998  1.0000
  C   C130      1.0  0.34304  0.64258  0.89786  1.0000
  C   C131      1.0  0.34173  0.54721  0.8630399999999998  1.0000
  C   C132      1.0  0.3512  0.39642  0.15646  1.0000
  C   C133      1.0  0.34973  0.36042  0.06134  1.0000
  C   C134      1.0  0.82259  0.34087000000000006  0.33567999999999987  1.0000
  C   C135      1.0  0.76423  0.3202400000000001  0.25187999999999994  1.0000
  C   C136      1.0  0.27843  0.09419  0.03199  1.0000
  C   C137      1.0  0.35801  0.10008  0.10785999999999998  1.0000
  C   C138      1.0  0.20251  0.08421000000000002  0.95215  1.0000
  C   C139      1.0  0.72754  0.76283  0.77292  1.0000
  C   C140      1.0  0.78554  0.8473200000000001  0.7955  1.0000
  C   C141      1.0  0.35487  0.6006  0.8560299999999998  1.0000
  C   C142      1.0  0.36385  0.35437000000000013  0.11492999999999999  1.0000
  C   C143      1.0  0.80158  0.29277  0.35286  1.0000
  C   C144      1.0  0.74278  0.27212  0.26824  1.0000
  C   C145      1.0  0.18307  0.13774999999999998  0.9518499999999998  1.0000
  C   C146      1.0  0.1909  0.04613  0.9064  1.0000
  C   C147      1.0  0.74393  0.8141700000000002  0.7613499999999999  1.0000
  C   C148      1.0  0.69095  0.72574  0.73217  1.0000
  C   C149      1.0  0.81004  0.89758  0.7779999999999999  1.0000
  C   C150      1.0  0.38316  0.6104100000000001  0.8043399999999999  1.0000
  C   C151      1.0  0.39141999999999993  0.30211  0.12406999999999997  1.0000
  C   C152      1.0  0.76083  0.25877  0.31862  1.0000
  C   C153      1.0  0.82554  0.27614  0.40384  1.0000
  C   C154      1.0  0.70416  0.2324  0.23059  1.0000
  C   C155      1.0  0.14868  0.15188  0.9082399999999998  1.0000
  C   C156      1.0  0.15709  0.060419999999999974  0.8627899999999997  1.0000
  C   C157      1.0  0.8763  0.9092400000000003  0.7816699999999999  1.0000
  C   C158      1.0  0.76972  0.9319100000000002  0.75305  1.0000
  C   C159      1.0  0.8893499999999999  0.2881  0.42072999999999994  1.0000
  C   C160      1.0  0.78735  0.24592  0.43525  1.0000
  C   C161      1.0  0.13404  0.11305000000000003  0.8639699999999999  1.0000
  C   C162      1.0  0.90186  0.9521900000000001  0.75905  1.0000
  C   C163      1.0  0.79514  0.97583  0.7317199999999998  1.0000
  C   C164      1.0  0.91426  0.2708800000000001  0.46689  1.0000
  C   C165      1.0  0.8119500000000001  0.22848  0.4815799999999999  1.0000
  C   C166      1.0  0.09196  0.12561  0.81958  1.0000
  C   C167      1.0  0.86168  0.98581  0.7335299999999998  1.0000
  C   C168      1.0  0.87566  0.24101000000000006  0.49802999999999986  1.0000
  C   C169      1.0  0.8897899999999999  0.03125  0.70837  1.0000
  C   C170      1.0  0.90016  0.22582000000000002  0.5488399999999999  1.0000
  C   C171      1.0  0.40046  0.8119800000000003  0.6165599999999999  1.0000
  C   C172      1.0  0.30549  0.91034  0.91535  1.0000
  C   C173      1.0  0.36069  0.8568400000000002  0.6025399999999999  1.0000
  C   C174      1.0  0.5971  0.6813500000000002  0.53062  1.0000
  C   C175      1.0  0.34192  0.6047500000000001  0.6093499999999998  1.0000
  C   C176      1.0  0.58571  0.54496  0.7092599999999999  1.0000
  C   C177      1.0  0.33725  0.8962700000000002  0.6431  1.0000
  C   C178      1.0  0.34905  0.86151  0.54822  1.0000
  C   C179      1.0  0.62814  0.7083700000000003  0.4879599999999999  1.0000
  C   C180      1.0  0.28471  0.57657  0.5838  1.0000
  C   C181      1.0  0.61499  0.4964799999999999  0.72813  1.0000
  C   C182      1.0  0.30549  0.9411200000000002  0.6293699999999999  1.0000
  C   C183      1.0  0.31735  0.9063900000000003  0.53461  1.0000
  C   C184      1.0  0.58889  0.73276  0.45249  1.0000
  C   C185      1.0  0.69527  0.71  0.4816399999999999  1.0000
  C   C186      1.0  0.26111  0.59259  0.53619  1.0000
  C   C187      1.0  0.25922  0.5317700000000001  0.60378  1.0000
  C   C188      1.0  0.5782  0.46536000000000005  0.75923  1.0000
  C   C189      1.0  0.67936  0.48175  0.7168299999999999  1.0000
  C   C190      1.0  0.2966  0.9474400000000002  0.57495  1.0000
  C   C191      1.0  0.6159  0.7569600000000001  0.41116  1.0000
  C   C192      1.0  0.72235  0.73329  0.43945  1.0000
  C   C193      1.0  0.21232999999999996  0.5631800000000001  0.50719  1.0000
  C   C194      1.0  0.21076999999999999  0.50159  0.57477  1.0000
  C   C195      1.0  0.60482  0.42053  0.7779199999999997  1.0000
  C   C196      1.0  0.706  0.43683  0.73568  1.0000
  C   C197      1.0  0.2685  0.9972200000000002  0.5602499999999999  1.0000
  C   C198      1.0  0.68293  0.75639  0.40311  1.0000
  C   C199      1.0  0.18999  0.5767600000000002  0.455  1.0000
  C   C200      1.0  0.18748  0.5181000000000001  0.52714  1.0000
  C   C201      1.0  0.18661  0.45092  0.59025  1.0000
  C   C202      1.0  0.66916  0.40507000000000004  0.7664499999999997  1.0000
  C   C203      1.0  0.21985999999999997  0.02531999999999999  0.5908499999999999  1.0000
  C   C204      1.0  0.29169  0.018100000000000012  0.515  1.0000
  C   C205      1.0  0.7099  0.77684  0.35496  1.0000
  C   C206      1.0  0.1794  0.6303100000000001  0.4470599999999999  1.0000
  C   C207      1.0  0.17999  0.5351200000000002  0.41209  1.0000
  C   C208      1.0  0.17461  0.44441000000000014  0.64409  1.0000
  C   C209      1.0  0.17553  0.40779000000000004  0.54911  1.0000
  C   C210      1.0  0.69556  0.35573999999999995  0.7850899999999997  1.0000
  C   C211      1.0  0.19597  0.07345999999999998  0.5766499999999999  1.0000
  C   C212      1.0  0.26821  0.06632  0.50016  1.0000
  C   C213      1.0  0.74909  0.7432300000000001  0.31919  1.0000
  C   C214      1.0  0.69261  0.82764  0.34195999999999993  1.0000
  C   C215      1.0  0.15649  0.6420800000000002  0.39782  1.0000
  C   C216      1.0  0.158  0.5467400000000001  0.3627599999999999  1.0000
  C   C217      1.0  0.14966  0.3960900000000001  0.6564999999999999  1.0000
  C   C218      1.0  0.15175  0.35959000000000013  0.5613799999999999  1.0000
  C   C219      1.0  0.67773  0.34141  0.8354299999999999  1.0000
  C   C220      1.0  0.73566  0.3205  0.75152  1.0000
  C   C221      1.0  0.22056  0.09460000000000002  0.53193  1.0000
  C   C222      1.0  0.14185  0.10092999999999999  0.6082999999999998  1.0000
  C   C223      1.0  0.2964  0.08465000000000002  0.45184999999999986  1.0000
  C   C224      1.0  0.7714999999999999  0.76093  0.27199999999999996  1.0000
  C   C225      1.0  0.7146  0.8458700000000002  0.2946  1.0000
  C   C226      1.0  0.14488  0.6001500000000001  0.35593  1.0000
  C   C227      1.0  0.13797  0.35377  0.61502  1.0000
  C   C228      1.0  0.69828  0.29307  0.8524999999999999  1.0000
  C   C229      1.0  0.75719  0.27246  0.76804  1.0000
  C   C230      1.0  0.3163  0.13809  0.4515399999999999  1.0000
  C   C231      1.0  0.30808  0.046540000000000005  0.40614  1.0000
  C   C232      1.0  0.75553  0.8123200000000002  0.26043  1.0000
  C   C233      1.0  0.80868  0.72477  0.23104  1.0000
  C   C234      1.0  0.69055  0.8964  0.27733  1.0000
  C   C235      1.0  0.11676  0.61017  0.30425  1.0000
  C   C236      1.0  0.11107  0.30146  0.6243  1.0000
  C   C237      1.0  0.73925  0.25926  0.81845  1.0000
  C   C238      1.0  0.67388  0.27599  0.9031299999999998  1.0000
  C   C239      1.0  0.79573  0.23264000000000004  0.7305899999999997  1.0000
  C   C240      1.0  0.35099  0.15208  0.4080599999999999  1.0000
  C   C241      1.0  0.34227  0.06064  0.3626999999999999  1.0000
  C   C242      1.0  0.62436  0.9081700000000001  0.28116  1.0000
  C   C243      1.0  0.73085  0.9309300000000001  0.2527  1.0000
  C   C244      1.0  0.60986  0.28758000000000006  0.91939  1.0000
  C   C245      1.0  0.71176  0.2458  0.93491  1.0000
  C   C246      1.0  0.36566  0.11316999999999999  0.3638899999999999  1.0000
  C   C247      1.0  0.59873  0.95136  0.25896  1.0000
  C   C248      1.0  0.70536  0.9751100000000003  0.23177  1.0000
  C   C249      1.0  0.58468  0.27038  0.9654199999999997  1.0000
  C   C250      1.0  0.68684  0.22831  0.9810899999999998  1.0000
  C   C251      1.0  0.40800000000000003  0.12553  0.31963  1.0000
  C   C252      1.0  0.63884  0.9851500000000001  0.23361999999999994  1.0000
  C   C253      1.0  0.62297  0.24081  0.99713  1.0000
  C   C254      1.0  0.61041  0.03056  0.20847  1.0000
  C   C255      1.0  0.59748  0.22600000000000003  0.0478  1.0000
  C   C256      1.0  0.90093  0.18890000000000004  0.8832299999999997  1.0000
  C   C257      1.0  0.80541  0.08947  0.58486  1.0000
  C   C258      1.0  0.86178  0.14349  0.8967299999999999  1.0000
  C   C259      1.0  0.097  0.31968  0.9701699999999998  1.0000
  C   C260      1.0  0.84193  0.39406  0.8903  1.0000
  C   C261      1.0  0.08559  0.4562500000000001  0.7915899999999999  1.0000
  C   C262      1.0  0.83873  0.10385000000000003  0.85613  1.0000
  C   C263      1.0  0.85012  0.13875  0.9510099999999998  1.0000
  C   C264      1.0  0.12798  0.29204  0.01246  1.0000
  C   C265      1.0  0.7851900000000002  0.42256  0.91616  1.0000
  C   C266      1.0  0.11448  0.50455  0.7720399999999997  1.0000
  C   C267      1.0  0.8072499999999999  0.05884000000000001  0.86983  1.0000
  C   C268      1.0  0.8186799999999999  0.09376999999999998  0.9645899999999997  1.0000
  C   C269      1.0  0.08886  0.26696  0.04739  1.0000
  C   C270      1.0  0.19512999999999997  0.29049  0.018829999999999996  1.0000
  C   C271      1.0  0.76167  0.40651  0.9637299999999998  1.0000
  C   C272      1.0  0.75998  0.46757000000000004  0.8962099999999998  1.0000
  C   C273      1.0  0.0776  0.53558  0.7407699999999999  1.0000
  C   C274      1.0  0.17887  0.5192999999999999  0.7832399999999998  1.0000
  C   C275      1.0  0.7982  0.05256999999999997  0.9242299999999998  1.0000
  C   C276      1.0  0.11606  0.24217  0.08827999999999997  1.0000
  C   C277      1.0  0.22242999999999996  0.26652  0.06051999999999999  1.0000
  C   C278      1.0  0.71318  0.43614  0.9927399999999997  1.0000
  C   C279      1.0  0.7117  0.4979700000000001  0.9251099999999998  1.0000
  C   C280      1.0  0.10428  0.5802100000000001  0.72179  1.0000
  C   C281      1.0  0.20563  0.56388  0.76397  1.0000
  C   C282      1.0  0.77002  0.0028499999999999754  0.9390699999999997  1.0000
  C   C283      1.0  0.18313  0.24270999999999998  0.09635  1.0000
  C   C284      1.0  0.69078  0.4226000000000001  0.04492  1.0000
  C   C285      1.0  0.68857  0.48133  0.97274  1.0000
  C   C286      1.0  0.68696  0.54861  0.9095299999999997  1.0000
  C   C287      1.0  0.16871  0.59552  0.7331299999999997  1.0000
  C   C288      1.0  0.72111  0.9747400000000003  0.9087099999999998  1.0000
  C   C289      1.0  0.79314  0.9821900000000002  0.98452  1.0000
  C   C290      1.0  0.2103  0.22164  0.14412  1.0000
  C   C291      1.0  0.68015  0.36907000000000006  0.05296999999999999  1.0000
  C   C292      1.0  0.68057  0.46427  0.08772  1.0000
  C   C293      1.0  0.67473  0.5554700000000001  0.8557499999999998  1.0000
  C   C294      1.0  0.67507  0.5915599999999999  0.9507099999999998  1.0000
  C   C295      1.0  0.19521999999999998  0.64477  0.7146099999999999  1.0000
  C   C296      1.0  0.69682  0.92687  0.92332  1.0000
  C   C297      1.0  0.76949  0.9341200000000001  0.9994999999999999  1.0000
  C   C298      1.0  0.25021  0.25478  0.17976  1.0000
  C   C299      1.0  0.19229  0.17108  0.15721999999999997  1.0000
  C   C300      1.0  0.65696  0.35742  0.10213999999999997  1.0000
  C   C301      1.0  0.65826  0.4527900000000001  0.13696  1.0000
  C   C302      1.0  0.64879  0.6035800000000001  0.84353  1.0000
  C   C303      1.0  0.65026  0.6395800000000001  0.9386499999999998  1.0000
  C   C304      1.0  0.1774  0.65913  0.66431  1.0000
  C   C305      1.0  0.23575999999999997  0.67976  0.74811  1.0000
  C   C306      1.0  0.72156  0.9058100000000002  0.9680099999999999  1.0000
  C   C307      1.0  0.64198  0.8999199999999999  0.8921399999999998  1.0000
  C   C308      1.0  0.79748  0.9157900000000002  0.04784999999999998  1.0000
  C   C309      1.0  0.27245  0.23716000000000004  0.22708  1.0000
  C   C310      1.0  0.21445  0.15268  0.20449999999999993  1.0000
  C   C311      1.0  0.64512  0.3994000000000001  0.14396999999999996  1.0000
  C   C312      1.0  0.63615  0.64563  0.88507  1.0000
  C   C313      1.0  0.19841  0.7072300000000001  0.6471299999999998  1.0000
  C   C314      1.0  0.25721  0.7278800000000001  0.73176  1.0000
  C   C315      1.0  0.8169299999999999  0.86225  0.04815  1.0000
  C   C316      1.0  0.80909  0.9538700000000001  0.09359999999999997  1.0000
  C   C317      1.0  0.25607  0.18583000000000002  0.23864999999999995  1.0000
  C   C318      1.0  0.30904  0.27426  0.26783  1.0000
  C   C319      1.0  0.18995  0.10241  0.22199999999999995  1.0000
  C   C320      1.0  0.61683  0.38959  0.19565999999999997  1.0000
  C   C321      1.0  0.60857  0.69789  0.8759299999999998  1.0000
  C   C322      1.0  0.23916  0.74123  0.68138  1.0000
  C   C323      1.0  0.17446  0.72386  0.5961599999999999  1.0000
  C   C324      1.0  0.29584  0.7675999999999997  0.7693999999999998  1.0000
  C   C325      1.0  0.85132  0.84812  0.09175999999999998  1.0000
  C   C326      1.0  0.8429  0.93958  0.13720999999999997  1.0000
  C   C327      1.0  0.12369  0.09075  0.21833  1.0000
  C   C328      1.0  0.23027  0.06809  0.24694999999999995  1.0000
  C   C329      1.0  0.11065  0.7119  0.57927  1.0000
  C   C330      1.0  0.21264  0.75408  0.5647499999999999  1.0000
  C   C331      1.0  0.86595  0.88695  0.13603  1.0000
  C   C332      1.0  0.09813  0.04780999999999999  0.24093999999999993  1.0000
  C   C333      1.0  0.20484999999999998  0.024170000000000004  0.26827  1.0000
  C   C334      1.0  0.08573  0.72912  0.5331099999999999  1.0000
  C   C335      1.0  0.18805  0.7715200000000001  0.51842  1.0000
  C   C336      1.0  0.90803  0.8743900000000001  0.18042  1.0000
  C   C337      1.0  0.13831  0.01419  0.26646  1.0000
  C   C338      1.0  0.12432999999999998  0.75899  0.50197  1.0000
  C   C339      1.0  0.11020999999999999  0.96875  0.29163  1.0000
  C   C340      1.0  0.09983000000000002  0.77418  0.45116  1.0000
  O   O1        1.0  0.43369  0.18229000000000006  0.20910999999999993  1.0000
  O   O2        1.0  0.54928  0.23255  0.18683999999999998  1.0000
  O   O3        1.0  0.52066  0.1273  0.12987999999999997  1.0000
  O   O4        1.0  0.37688  0.14557000000000003  0.09782999999999999  1.0000
  O   O5        1.0  0.42517  0.29676  0.16624  1.0000
  O   O6        1.0  0.38292  0.26195  0.08753999999999998  1.0000
  O   O7        1.0  0.4972  0.19822  0.03458  1.0000
  O   O8        1.0  0.55197  0.14316  0.23802999999999994  1.0000
  O   O9        1.0  0.54892  0.027730000000000005  0.19892999999999994  1.0000
  O   O10       1.0  0.38365  0.07421000000000001  0.14345999999999998  1.0000
  O   O11       1.0  0.4126500000000001  0.08990000000000002  0.27757  1.0000
  O   O12       1.0  0.57906  0.2966  0.31724  1.0000
  O   O13       1.0  0.46099999999999997  0.2687  0.35967999999999994  1.0000
  O   O14       1.0  0.46407999999999994  0.31754  0.26727  1.0000
  O   O15       1.0  0.57775  0.18542000000000003  0.33598  1.0000
  O   O16       1.0  0.4388  0.16965  0.3251799999999999  1.0000
  O   O17       1.0  0.7269  0.12122000000000002  0.11882999999999999  1.0000
  O   O18       1.0  0.63323  0.08747  0.08466999999999998  1.0000
  O   O19       1.0  0.64625  0.06852999999999998  0.19845999999999997  1.0000
  O   O20       1.0  0.69434  0.24052  0.18228999999999998  1.0000
  O   O21       1.0  0.68175  0.19073000000000007  0.24882999999999997  1.0000
  O   O22       1.0  0.62717  0.20141  0.07911  1.0000
  O   O23       1.0  0.49311999999999995  0.37805  0.37042  1.0000
  O   O24       1.0  0.46444  0.32539  0.4732599999999999  1.0000
  O   O25       1.0  0.58791  0.22784999999999994  0.4208099999999999  1.0000
  O   O26       1.0  0.63227  0.35987000000000013  0.4165  1.0000
  O   O27       1.0  0.6363  0.40765  0.3466599999999999  1.0000
  O   O28       1.0  0.4732199999999999  0.4443300000000001  0.27808999999999995  1.0000
  O   O29       1.0  0.59091  0.3438700000000001  0.20098999999999995  1.0000
  O   O30       1.0  0.61674  0.42819000000000007  0.2351  1.0000
  O   O31       1.0  0.36948  0.33346000000000003  0.4311699999999999  1.0000
  O   O32       1.0  0.37979  0.42602  0.31773  1.0000
  O   O33       1.0  0.30892  0.32511  0.26703  1.0000
  O   O34       1.0  0.34079  0.25389  0.30434  1.0000
  O   O35       1.0  0.46421000000000007  0.75371  0.9390399999999999  1.0000
  O   O36       1.0  0.93221  0.8173500000000002  0.29109  1.0000
  O   O37       1.0  0.048709999999999996  0.7668300000000002  0.3128  1.0000
  O   O38       1.0  0.02187  0.87095  0.36995  1.0000
  O   O39       1.0  0.87722  0.85398  0.4025399999999999  1.0000
  O   O40       1.0  0.9222299999999999  0.70375  0.33335999999999993  1.0000
  O   O41       1.0  0.88057  0.73866  0.41224999999999995  1.0000
  O   O42       1.0  0.99988  0.80085  0.4651399999999999  1.0000
  O   O43       1.0  0.051789999999999996  0.8549000000000002  0.26179  1.0000
  O   O44       1.0  0.048749999999999995  0.9711500000000002  0.30119999999999997  1.0000
  O   O45       1.0  0.8830499999999999  0.9236800000000001  0.3548599999999999  1.0000
  O   O46       1.0  0.91274  0.9100000000000001  0.2225  1.0000
  O   O47       1.0  0.07774  0.7034800000000002  0.18470999999999996  1.0000
  O   O48       1.0  0.95859  0.73037  0.14026999999999998  1.0000
  O   O49       1.0  0.96157  0.68036  0.23254999999999998  1.0000
  O   O50       1.0  0.07753  0.8123400000000001  0.16411  1.0000
  O   O51       1.0  0.93867  0.8302000000000003  0.17489  1.0000
  O   O52       1.0  0.22697  0.87871  0.38129  1.0000
  O   O53       1.0  0.13329  0.9125000000000002  0.4151999999999999  1.0000
  O   O54       1.0  0.14631  0.93099  0.30161  1.0000
  O   O55       1.0  0.19436  0.75924  0.3176899999999999  1.0000
  O   O56       1.0  0.18194  0.80905  0.25114  1.0000
  O   O57       1.0  0.13019  0.7991400000000001  0.42071  1.0000
  O   O58       1.0  0.9930900000000001  0.6216700000000001  0.12954  1.0000
  O   O59       1.0  0.96467  0.67453  0.026759999999999992  1.0000
  O   O60       1.0  0.08772  0.7717600000000002  0.07877  1.0000
  O   O61       1.0  0.13297  0.64237  0.0847  1.0000
  O   O62       1.0  0.13598  0.5926900000000002  0.15318999999999997  1.0000
  O   O63       1.0  0.97297  0.55535  0.22183  1.0000
  O   O64       1.0  0.09101  0.65596  0.29906999999999995  1.0000
  O   O65       1.0  0.11665999999999999  0.57165  0.26474  1.0000
  O   O66       1.0  0.86927  0.6641000000000002  0.06709  1.0000
  O   O67       1.0  0.8800299999999999  0.57148  0.17989  1.0000
  O   O68       1.0  0.8083400000000001  0.67374  0.23048  1.0000
  O   O69       1.0  0.8411299999999999  0.7459900000000003  0.19565999999999997  1.0000
  O   O70       1.0  0.9613899999999999  0.24627000000000002  0.5632599999999999  1.0000
  O   O71       1.0  0.5663  0.81771  0.79089  1.0000
  O   O72       1.0  0.45070999999999994  0.7674500000000002  0.8131499999999999  1.0000
  O   O73       1.0  0.4793299999999999  0.8727000000000001  0.87012  1.0000
  O   O74       1.0  0.62312  0.85443  0.90216  1.0000
  O   O75       1.0  0.57482  0.7032500000000002  0.8337599999999998  1.0000
  O   O76       1.0  0.61707  0.7380500000000002  0.9124699999999998  1.0000
  O   O77       1.0  0.50279  0.80178  0.9654199999999997  1.0000
  O   O78       1.0  0.44803000000000004  0.8568400000000002  0.76197  1.0000
  O   O79       1.0  0.45107  0.97227  0.80107  1.0000
  O   O80       1.0  0.61634  0.9257900000000002  0.85653  1.0000
  O   O81       1.0  0.58735  0.9101000000000002  0.7224299999999999  1.0000
  O   O82       1.0  0.42092999999999997  0.7034  0.68275  1.0000
  O   O83       1.0  0.53899  0.7313  0.64032  1.0000
  O   O84       1.0  0.53591  0.6824600000000002  0.73273  1.0000
  O   O85       1.0  0.42225  0.81458  0.66401  1.0000
  O   O86       1.0  0.5612  0.83035  0.6748199999999999  1.0000
  O   O87       1.0  0.27309  0.87878  0.88117  1.0000
  O   O88       1.0  0.36676  0.91253  0.91533  1.0000
  O   O89       1.0  0.35375  0.9314700000000002  0.8015399999999999  1.0000
  O   O90       1.0  0.30565  0.75948  0.81771  1.0000
  O   O91       1.0  0.31824  0.8092700000000003  0.7511599999999998  1.0000
  O   O92       1.0  0.37283  0.7985900000000001  0.9208899999999998  1.0000
  O   O93       1.0  0.50687  0.6219500000000001  0.62958  1.0000
  O   O94       1.0  0.53555  0.6746100000000002  0.52674  1.0000
  O   O95       1.0  0.41209  0.7721500000000001  0.57918  1.0000
  O   O96       1.0  0.36773  0.64012  0.58349  1.0000
  O   O97       1.0  0.36369  0.59235  0.65334  1.0000
  O   O98       1.0  0.52677  0.55567  0.7219099999999998  1.0000
  O   O99       1.0  0.40907  0.6561300000000001  0.7989999999999999  1.0000
  O   O100      1.0  0.38326  0.57181  0.7648999999999998  1.0000
  O   O101      1.0  0.63052  0.66654  0.56883  1.0000
  O   O102      1.0  0.6202  0.5739800000000002  0.6822699999999998  1.0000
  O   O103      1.0  0.69107  0.6748900000000002  0.7329599999999998  1.0000
  O   O104      1.0  0.6592  0.7461100000000003  0.69566  1.0000
  O   O105      1.0  0.53579  0.24629000000000006  0.060959999999999986  1.0000
  O   O106      1.0  0.06778  0.18265  0.70891  1.0000
  O   O107      1.0  0.95129  0.23317  0.6871899999999997  1.0000
  O   O108      1.0  0.97812  0.12904999999999997  0.6300499999999999  1.0000
  O   O109      1.0  0.12277  0.14602  0.59746  1.0000
  O   O110      1.0  0.07776  0.29625  0.66664  1.0000
  O   O111      1.0  0.11943  0.26134  0.58775  1.0000
  O   O112      1.0  0.00012000000000000007  0.19914000000000007  0.53486  1.0000
  O   O113      1.0  0.9482  0.1451  0.7382  1.0000
  O   O114      1.0  0.95124  0.028849999999999973  0.6987999999999998  1.0000
  O   O115      1.0  0.11693999999999999  0.07632000000000001  0.6451399999999999  1.0000
  O   O116      1.0  0.08726  0.08999999999999998  0.7774999999999997  1.0000
  O   O117      1.0  0.92226  0.29652  0.8152899999999998  1.0000
  O   O118      1.0  0.04141  0.26963000000000004  0.85973  1.0000
  O   O119      1.0  0.03842  0.3196400000000001  0.76744  1.0000
  O   O120      1.0  0.9224599999999998  0.18766000000000002  0.8358899999999998  1.0000
  O   O121      1.0  0.06131999999999999  0.1698  0.8251099999999998  1.0000
  O   O122      1.0  0.77303  0.12128999999999998  0.6187099999999999  1.0000
  O   O123      1.0  0.86671  0.0875  0.5848  1.0000
  O   O124      1.0  0.85369  0.06901  0.6983899999999997  1.0000
  O   O125      1.0  0.80564  0.24076000000000003  0.6823  1.0000
  O   O126      1.0  0.81805  0.19095  0.74886  1.0000
  O   O127      1.0  0.8698  0.20086  0.57929  1.0000
  O   O128      1.0  0.006910000000000001  0.3783200000000001  0.8704599999999998  1.0000
  O   O129      1.0  0.03532  0.32547  0.9732299999999998  1.0000
  O   O130      1.0  0.91227  0.22824000000000003  0.92122  1.0000
  O   O131      1.0  0.8670299999999999  0.35762999999999995  0.9152999999999998  1.0000
  O   O132      1.0  0.86401  0.40731  0.8468099999999997  1.0000
  O   O133      1.0  0.027019999999999995  0.44465000000000005  0.7781699999999998  1.0000
  O   O134      1.0  0.90898  0.34404000000000007  0.70093  1.0000
  O   O135      1.0  0.88333  0.4283400000000001  0.73526  1.0000
  O   O136      1.0  0.13072  0.33589  0.9329099999999998  1.0000
  O   O137      1.0  0.11996  0.42851  0.82011  1.0000
  O   O138      1.0  0.19165  0.32626000000000005  0.7695099999999998  1.0000
  O   O139      1.0  0.15886  0.25401  0.8043399999999999  1.0000
  O   O140      1.0  0.0386  0.7537200000000002  0.43674  1.0000
