data_image0
_chemical_formula_structural       Zn36H648C792O216
_chemical_formula_sum              "Zn36 H648 C792 O216"
_cell_length_a       29.87337
_cell_length_b       29.87362
_cell_length_c       29.873640000000005
_cell_angle_alpha    80.72844
_cell_angle_beta     80.72897
_cell_angle_gamma    80.72896

_space_group_name_H-M_alt    "P 1"
_space_group_IT_number       1

loop_
  _space_group_symop_operation_xyz
  'x, y, z'

loop_
  _atom_site_type_symbol
  _atom_site_label
  _atom_site_symmetry_multiplicity
  _atom_site_fract_x
  _atom_site_fract_y
  _atom_site_fract_z
  _atom_site_occupancy
  Zn  Zn1       1.0  0.6867700000000002  0.19558  0.19132  1.0000
  Zn  Zn2       1.0  0.5797  0.19520000000000004  0.21512  1.0000
  Zn  Zn3       1.0  0.8375800000000002  0.75539  0.51707  1.0000
  Zn  Zn4       1.0  0.19558000000000003  0.19131999999999996  0.68676  1.0000
  Zn  Zn5       1.0  0.19521  0.21511999999999998  0.5797  1.0000
  Zn  Zn6       1.0  0.7553900000000002  0.5170799999999998  0.83758  1.0000
  Zn  Zn7       1.0  0.19132000000000005  0.6867799999999997  0.19558  1.0000
  Zn  Zn8       1.0  0.2151200000000001  0.57971  0.1952  1.0000
  Zn  Zn9       1.0  0.51708  0.8375799999999999  0.75539  1.0000
  Zn  Zn10      1.0  0.30442000000000013  0.81323  0.30868  1.0000
  Zn  Zn11      1.0  0.30479  0.9203  0.28488  1.0000
  Zn  Zn12      1.0  0.7446100000000002  0.66242  0.98292  1.0000
  Zn  Zn13      1.0  0.3086800000000001  0.30442  0.81322  1.0000
  Zn  Zn14      1.0  0.2848800000000001  0.30480000000000007  0.92029  1.0000
  Zn  Zn15      1.0  0.9829200000000005  0.74461  0.66242  1.0000
  Zn  Zn16      1.0  0.8132300000000003  0.30868  0.30442  1.0000
  Zn  Zn17      1.0  0.9202900000000005  0.28488  0.3048  1.0000
  Zn  Zn18      1.0  0.66242  0.98293  0.74461  1.0000
  Zn  Zn19      1.0  0.3132300000000002  0.80442  0.8086799999999998  1.0000
  Zn  Zn20      1.0  0.42030000000000023  0.8048  0.78488  1.0000
  Zn  Zn21      1.0  0.16242000000000006  0.24460999999999997  0.48292  1.0000
  Zn  Zn22      1.0  0.80442  0.80868  0.31322999999999995  1.0000
  Zn  Zn23      1.0  0.8047900000000002  0.78488  0.4203  1.0000
  Zn  Zn24      1.0  0.24460999999999997  0.48292  0.16242  1.0000
  Zn  Zn25      1.0  0.8086800000000002  0.31323  0.80442  1.0000
  Zn  Zn26      1.0  0.7848800000000002  0.4203  0.8048  1.0000
  Zn  Zn27      1.0  0.48292000000000007  0.16242  0.24461  1.0000
  Zn  Zn28      1.0  0.6955800000000002  0.18677000000000002  0.69132  1.0000
  Zn  Zn29      1.0  0.6952000000000003  0.0797  0.71512  1.0000
  Zn  Zn30      1.0  0.2553900000000001  0.33758  0.01708  1.0000
  Zn  Zn31      1.0  0.69132  0.69558  0.18678  1.0000
  Zn  Zn32      1.0  0.71512  0.6952  0.07971  1.0000
  Zn  Zn33      1.0  0.017079999999999998  0.25539  0.33758  1.0000
  Zn  Zn34      1.0  0.18677  0.69132  0.69558  1.0000
  Zn  Zn35      1.0  0.07970000000000001  0.7151199999999999  0.6952  1.0000
  Zn  Zn36      1.0  0.3375800000000001  0.01708  0.25539  1.0000
  H   H1        1.0  0.73021  0.07842  0.11549999999999999  1.0000
  H   H2        1.0  0.72805  0.010799999999999999  0.0764  1.0000
  H   H3        1.0  0.6531200000000001  0.9906099999999998  0.0656  1.0000
  H   H4        1.0  0.58344  0.10492  0.13308  1.0000
  H   H5        1.0  0.52475  0.058170000000000006  0.14084  1.0000
  H   H6        1.0  0.53272  0.09680999999999998  0.08969  1.0000
  H   H7        1.0  0.5359800000000002  0.07272  0.97962  1.0000
  H   H8        1.0  0.4927500000000001  0.11902000000000001  0.99049  1.0000
  H   H9        1.0  0.5381700000000001  0.10394999999999999  0.02428  1.0000
  H   H10       1.0  0.4617  0.008060000000000001  0.18682  1.0000
  H   H11       1.0  0.47573  0.95386  0.1677  1.0000
  H   H12       1.0  0.5178600000000002  0.99011  0.16031  1.0000
  H   H13       1.0  0.39332999999999996  0.9732  0.01155  1.0000
  H   H14       1.0  0.35635000000000017  0.9879199999999998  0.06098  1.0000
  H   H15       1.0  0.3650700000000001  0.02999  0.01294  1.0000
  H   H16       1.0  0.3682000000000003  0.96972  0.12374  1.0000
  H   H17       1.0  0.41047000000000006  0.95544  0.16077  1.0000
  H   H18       1.0  0.3605900000000002  0.9043  0.18272  1.0000
  H   H19       1.0  0.45189  0.84418  0.07453  1.0000
  H   H20       1.0  0.4302400000000002  0.02895000000000002  0.9603699999999998  1.0000
  H   H21       1.0  0.4782700000000002  0.05864  0.95185  1.0000
  H   H22       1.0  0.3642700000000001  0.17507  0.9496399999999999  1.0000
  H   H23       1.0  0.38674000000000014  0.17865  0.80294  1.0000
  H   H24       1.0  0.43946000000000024  0.10519  0.81148  1.0000
  H   H25       1.0  0.45189000000000007  0.06494000000000001  0.88844  1.0000
  H   H26       1.0  0.91613  0.1577  0.27861  1.0000
  H   H27       1.0  0.9898100000000002  0.02954  0.24172  1.0000
  H   H28       1.0  0.06380000000000001  0.05784999999999999  0.24335  1.0000
  H   H29       1.0  0.06304  0.13488  0.26675  1.0000
  H   H30       1.0  0.8555900000000001  0.12469999999999999  0.26018  1.0000
  H   H31       1.0  0.8721700000000001  0.10342  0.31475  1.0000
  H   H32       1.0  0.78013  0.09124999999999998  0.19544999999999998  1.0000
  H   H33       1.0  0.8348200000000002  0.10055  0.20414999999999997  1.0000
  H   H34       1.0  0.78477  0.1352  0.22691  1.0000
  H   H35       1.0  0.6874  0.000679999999999996  0.32279  1.0000
  H   H36       1.0  0.7133999999999999  0.97353  0.37078  1.0000
  H   H37       1.0  0.72535  0.94963  0.31881  1.0000
  H   H38       1.0  0.86226  0.012279999999999998  0.3938  1.0000
  H   H39       1.0  0.8954100000000003  0.04323  0.34871  1.0000
  H   H40       1.0  0.8949600000000001  0.98444  0.34845  1.0000
  H   H41       1.0  0.6985000000000002  0.0007399999999999946  0.48392  1.0000
  H   H42       1.0  0.67341  0.94842  0.55405  1.0000
  H   H43       1.0  0.71684  0.86961  0.56968  1.0000
  H   H44       1.0  0.80398  0.89351  0.44147  1.0000
  H   H45       1.0  0.6885000000000002  0.06308  0.28309  1.0000
  H   H46       1.0  0.7182100000000002  0.08385  0.2295  1.0000
  H   H47       1.0  0.6346700000000002  0.087  0.24882  1.0000
  H   H48       1.0  0.53243  0.013450000000000004  0.22197999999999998  1.0000
  H   H49       1.0  0.59321  0.94768  0.20426  1.0000
  H   H50       1.0  0.6743900000000003  0.95138  0.21083  1.0000
  H   H51       1.0  0.78355  0.933  0.37652  1.0000
  H   H52       1.0  0.8304000000000004  0.95257  0.39348  1.0000
  H   H53       1.0  0.36982  0.76028  0.17605  1.0000
  H   H54       1.0  0.4286100000000002  0.7680499999999999  0.10629  1.0000
  H   H55       1.0  0.07842000000000005  0.11549999999999998  0.73021  1.0000
  H   H56       1.0  0.010800000000000004  0.0764  0.72805  1.0000
  H   H57       1.0  0.9906  0.06559999999999999  0.65312  1.0000
  H   H58       1.0  0.10493000000000002  0.13308000000000003  0.58345  1.0000
  H   H59       1.0  0.05817000000000004  0.14084000000000002  0.52476  1.0000
  H   H60       1.0  0.09680000000000001  0.08968999999999999  0.53272  1.0000
  H   H61       1.0  0.07270999999999998  0.9796199999999999  0.53598  1.0000
  H   H62       1.0  0.11901  0.99049  0.49276  1.0000
  H   H63       1.0  0.10394999999999999  0.02428999999999999  0.53817  1.0000
  H   H64       1.0  0.008049999999999995  0.18682  0.4617  1.0000
  H   H65       1.0  0.95386  0.1677  0.47573  1.0000
  H   H66       1.0  0.9901100000000005  0.16031  0.51786  1.0000
  H   H67       1.0  0.9731900000000002  0.01156  0.39333  1.0000
  H   H68       1.0  0.9879200000000002  0.060989999999999996  0.35635  1.0000
  H   H69       1.0  0.029980000000000003  0.012939999999999997  0.36507  1.0000
  H   H70       1.0  0.9697200000000002  0.12373999999999999  0.3682  1.0000
  H   H71       1.0  0.9554300000000002  0.16077  0.41047  1.0000
  H   H72       1.0  0.9043000000000004  0.18272  0.36059  1.0000
  H   H73       1.0  0.84418  0.07453  0.4519  1.0000
  H   H74       1.0  0.028950000000000028  0.96038  0.43024  1.0000
  H   H75       1.0  0.05864000000000003  0.95186  0.47827  1.0000
  H   H76       1.0  0.17507000000000006  0.9496399999999998  0.36427  1.0000
  H   H77       1.0  0.17864000000000005  0.80294  0.38674  1.0000
  H   H78       1.0  0.10518000000000009  0.8114799999999998  0.43946  1.0000
  H   H79       1.0  0.06493  0.88845  0.45189  1.0000
  H   H80       1.0  0.15769  0.2786100000000001  0.91614  1.0000
  H   H81       1.0  0.029530000000000015  0.24173000000000003  0.98982  1.0000
  H   H82       1.0  0.057849999999999985  0.24336  0.06381  1.0000
  H   H83       1.0  0.13488  0.26675  0.06304  1.0000
  H   H84       1.0  0.12470000000000003  0.26017  0.8555999999999999  1.0000
  H   H85       1.0  0.10342000000000005  0.31474  0.8721699999999999  1.0000
  H   H86       1.0  0.09124999999999998  0.19545000000000004  0.78014  1.0000
  H   H87       1.0  0.10055  0.20414999999999997  0.83482  1.0000
  H   H88       1.0  0.13519999999999996  0.22691000000000003  0.78477  1.0000
  H   H89       1.0  0.0006800000000000027  0.3228  0.68739  1.0000
  H   H90       1.0  0.9735300000000001  0.37078  0.7133999999999999  1.0000
  H   H91       1.0  0.9496299999999999  0.31882  0.72534  1.0000
  H   H92       1.0  0.012280000000000025  0.39381  0.86226  1.0000
  H   H93       1.0  0.04324000000000001  0.3486999999999999  0.89541  1.0000
  H   H94       1.0  0.9844400000000001  0.34846  0.89496  1.0000
  H   H95       1.0  0.0007399999999999948  0.48392  0.6985  1.0000
  H   H96       1.0  0.9484199999999999  0.55406  0.67341  1.0000
  H   H97       1.0  0.8696000000000002  0.56969  0.71684  1.0000
  H   H98       1.0  0.8935100000000005  0.4414799999999999  0.80398  1.0000
  H   H99       1.0  0.06308000000000001  0.28309  0.6885  1.0000
  H   H100      1.0  0.08385000000000001  0.2295  0.71821  1.0000
  H   H101      1.0  0.08700000000000001  0.24882999999999994  0.63466  1.0000
  H   H102      1.0  0.013450000000000031  0.2219899999999999  0.53243  1.0000
  H   H103      1.0  0.9476700000000001  0.20425999999999997  0.59321  1.0000
  H   H104      1.0  0.9513800000000001  0.21082999999999988  0.67439  1.0000
  H   H105      1.0  0.9330000000000005  0.37653  0.7835499999999999  1.0000
  H   H106      1.0  0.9525700000000001  0.39349000000000006  0.8304  1.0000
  H   H107      1.0  0.76028  0.17604999999999993  0.36982  1.0000
  H   H108      1.0  0.76804  0.10629000000000001  0.42861  1.0000
  H   H109      1.0  0.11550000000000006  0.73021  0.07842  1.0000
  H   H110      1.0  0.07640000000000001  0.7280499999999998  0.0108  1.0000
  H   H111      1.0  0.06560000000000006  0.65312  0.9906  1.0000
  H   H112      1.0  0.13307000000000005  0.58344  0.10492  1.0000
  H   H113      1.0  0.14084000000000002  0.52475  0.05817  1.0000
  H   H114      1.0  0.08969  0.53272  0.0968  1.0000
  H   H115      1.0  0.9796200000000005  0.53598  0.07272  1.0000
  H   H116      1.0  0.9904800000000004  0.49275  0.11901  1.0000
  H   H117      1.0  0.02428000000000005  0.5381699999999998  0.10396  1.0000
  H   H118      1.0  0.18682000000000007  0.4616999999999999  0.00805  1.0000
  H   H119      1.0  0.16769  0.47574  0.95386  1.0000
  H   H120      1.0  0.16031000000000004  0.51787  0.99012  1.0000
  H   H121      1.0  0.011550000000000008  0.39334  0.9732  1.0000
  H   H122      1.0  0.06098000000000006  0.3563599999999998  0.98792  1.0000
  H   H123      1.0  0.012929999999999999  0.36508  0.02999  1.0000
  H   H124      1.0  0.12374  0.36820999999999987  0.96972  1.0000
  H   H125      1.0  0.16076999999999994  0.41048000000000007  0.95543  1.0000
  H   H126      1.0  0.18272000000000008  0.36058999999999997  0.9043  1.0000
  H   H127      1.0  0.07452999999999999  0.4519  0.84418  1.0000
  H   H128      1.0  0.9603700000000002  0.43025  0.02895  1.0000
  H   H129      1.0  0.9518500000000002  0.47827  0.05864  1.0000
  H   H130      1.0  0.9496400000000003  0.36427  0.17506  1.0000
  H   H131      1.0  0.8029500000000003  0.38673  0.17864  1.0000
  H   H132      1.0  0.8114700000000004  0.43945  0.10518  1.0000
  H   H133      1.0  0.8884400000000002  0.45189  0.06493  1.0000
  H   H134      1.0  0.2786300000000001  0.9161399999999997  0.15765  1.0000
  H   H135      1.0  0.24174000000000012  0.9898599999999997  0.029519999999999998  1.0000
  H   H136      1.0  0.24335000000000007  0.06383999999999997  0.05786  1.0000
  H   H137      1.0  0.2667300000000001  0.06305000000000002  0.13491  1.0000
  H   H138      1.0  0.2601400000000001  0.85562  0.12467  1.0000
  H   H139      1.0  0.31471000000000005  0.8721799999999997  0.10341  1.0000
  H   H140      1.0  0.1954500000000001  0.78013  0.09124  1.0000
  H   H141      1.0  0.20414  0.83482  0.10053999999999999  1.0000
  H   H142      1.0  0.22691  0.78477  0.13518  1.0000
  H   H143      1.0  0.3228  0.68739  0.00068  1.0000
  H   H144      1.0  0.3707800000000002  0.7133899999999997  0.97353  1.0000
  H   H145      1.0  0.3188200000000002  0.72535  0.94963  1.0000
  H   H146      1.0  0.3938  0.86227  0.01226  1.0000
  H   H147      1.0  0.3487  0.89542  0.04322  1.0000
  H   H148      1.0  0.34846  0.89498  0.98442  1.0000
  H   H149      1.0  0.48392  0.6985  0.00073  1.0000
  H   H150      1.0  0.5540600000000001  0.67342  0.94841  1.0000
  H   H151      1.0  0.56969  0.71685  0.8696  1.0000
  H   H152      1.0  0.4414800000000001  0.80399  0.89351  1.0000
  H   H153      1.0  0.2830900000000001  0.68851  0.06308  1.0000
  H   H154      1.0  0.22950000000000004  0.71821  0.08385  1.0000
  H   H155      1.0  0.24883000000000008  0.6346699999999997  0.087  1.0000
  H   H156      1.0  0.22198000000000004  0.53243  0.01345  1.0000
  H   H157      1.0  0.20426  0.59321  0.94768  1.0000
  H   H158      1.0  0.21083  0.67439  0.95138  1.0000
  H   H159      1.0  0.37653  0.78356  0.933  1.0000
  H   H160      1.0  0.3934900000000003  0.8303999999999998  0.95257  1.0000
  H   H161      1.0  0.17604999999999998  0.3698199999999999  0.76028  1.0000
  H   H162      1.0  0.10629  0.42861999999999995  0.76804  1.0000
  H   H163      1.0  0.42158000000000007  0.76979  0.3845  1.0000
  H   H164      1.0  0.4892000000000001  0.7719399999999998  0.4236  1.0000
  H   H165      1.0  0.50939  0.84688  0.4344  1.0000
  H   H166      1.0  0.39508000000000004  0.91655  0.36691999999999997  1.0000
  H   H167      1.0  0.44183000000000006  0.97524  0.35916  1.0000
  H   H168      1.0  0.4032  0.9672799999999998  0.41031  1.0000
  H   H169      1.0  0.42729  0.96402  0.52037  1.0000
  H   H170      1.0  0.3809900000000001  0.00724  0.50951  1.0000
  H   H171      1.0  0.3960500000000002  0.9618299999999999  0.47571  1.0000
  H   H172      1.0  0.49195  0.0383  0.31318  1.0000
  H   H173      1.0  0.5461400000000001  0.024270000000000014  0.33229999999999993  1.0000
  H   H174      1.0  0.5098800000000002  0.98213  0.33969  1.0000
  H   H175      1.0  0.5268000000000003  0.10667  0.48844  1.0000
  H   H176      1.0  0.51208  0.14365  0.43901  1.0000
  H   H177      1.0  0.47002000000000005  0.13493  0.48706  1.0000
  H   H178      1.0  0.5302800000000002  0.1318  0.37626  1.0000
  H   H179      1.0  0.5445600000000002  0.08953  0.33923  1.0000
  H   H180      1.0  0.5957  0.13941  0.31728  1.0000
  H   H181      1.0  0.6558200000000002  0.0481  0.42547  1.0000
  H   H182      1.0  0.47105000000000025  0.06975999999999999  0.53962  1.0000
  H   H183      1.0  0.44136000000000003  0.021729999999999996  0.54814  1.0000
  H   H184      1.0  0.3249300000000001  0.13572999999999996  0.55036  1.0000
  H   H185      1.0  0.32136  0.11325999999999999  0.69706  1.0000
  H   H186      1.0  0.39481999999999995  0.060540000000000004  0.68852  1.0000
  H   H187      1.0  0.4350700000000001  0.048110000000000014  0.6115499999999999  1.0000
  H   H188      1.0  0.3423100000000001  0.58386  0.22139  1.0000
  H   H189      1.0  0.47047000000000017  0.5101799999999999  0.25827  1.0000
  H   H190      1.0  0.44215000000000004  0.43619  0.25664  1.0000
  H   H191      1.0  0.36510999999999993  0.43696  0.23325  1.0000
  H   H192      1.0  0.3753  0.6444  0.23983  1.0000
  H   H193      1.0  0.39657999999999993  0.62782  0.18527  1.0000
  H   H194      1.0  0.40874999999999995  0.71986  0.30455  1.0000
  H   H195      1.0  0.3994500000000001  0.6651799999999999  0.29585  1.0000
  H   H196      1.0  0.3648000000000002  0.71522  0.27309  1.0000
  H   H197      1.0  0.49932000000000015  0.8126000000000001  0.17719999999999997  1.0000
  H   H198      1.0  0.52646  0.7866  0.12922  1.0000
  H   H199      1.0  0.5503700000000002  0.77466  0.18119  1.0000
  H   H200      1.0  0.48772000000000004  0.63773  0.1062  1.0000
  H   H201      1.0  0.45676  0.60459  0.1513  1.0000
  H   H202      1.0  0.5155600000000002  0.60504  0.15155  1.0000
  H   H203      1.0  0.49926000000000004  0.8015  0.01608  1.0000
  H   H204      1.0  0.5515800000000003  0.8265899999999999  0.94594  1.0000
  H   H205      1.0  0.6303900000000002  0.78316  0.93031  1.0000
  H   H206      1.0  0.60648  0.69601  0.05852  1.0000
  H   H207      1.0  0.43692000000000003  0.8114899999999998  0.21691  1.0000
  H   H208      1.0  0.41615  0.78179  0.2705  1.0000
  H   H209      1.0  0.4130000000000002  0.86533  0.25118  1.0000
  H   H210      1.0  0.48655000000000015  0.9675699999999999  0.27802  1.0000
  H   H211      1.0  0.55232  0.90679  0.29574  1.0000
  H   H212      1.0  0.5486200000000001  0.8256099999999997  0.28917  1.0000
  H   H213      1.0  0.56699  0.71644  0.12348  1.0000
  H   H214      1.0  0.54742  0.6696  0.10652  1.0000
  H   H215      1.0  0.7397200000000002  0.13018  0.32395  1.0000
  H   H216      1.0  0.7319500000000002  0.07139  0.39370999999999995  1.0000
  H   H217      1.0  0.38450000000000023  0.42158999999999996  0.7697899999999999  1.0000
  H   H218      1.0  0.4235999999999999  0.4892000000000001  0.77194  1.0000
  H   H219      1.0  0.4344  0.5094  0.84688  1.0000
  H   H220      1.0  0.3669299999999999  0.39508  0.91655  1.0000
  H   H221      1.0  0.35916  0.44183000000000006  0.97524  1.0000
  H   H222      1.0  0.4103100000000001  0.4031999999999999  0.96728  1.0000
  H   H223      1.0  0.52038  0.42728  0.9640199999999999  1.0000
  H   H224      1.0  0.50951  0.38099  0.00725  1.0000
  H   H225      1.0  0.4757200000000001  0.39605000000000007  0.9618299999999999  1.0000
  H   H226      1.0  0.31318  0.49195  0.0383  1.0000
  H   H227      1.0  0.33231  0.54614  0.02426  1.0000
  H   H228      1.0  0.3396900000000001  0.5098900000000001  0.98213  1.0000
  H   H229      1.0  0.48845  0.5268  0.10666  1.0000
  H   H230      1.0  0.4390199999999998  0.51208  0.14365  1.0000
  H   H231      1.0  0.4870700000000001  0.47001  0.13492  1.0000
  H   H232      1.0  0.37627  0.53028  0.1318  1.0000
  H   H233      1.0  0.33923  0.54456  0.08953  1.0000
  H   H234      1.0  0.31728  0.5957  0.13941  1.0000
  H   H235      1.0  0.42547000000000007  0.65582  0.0481  1.0000
  H   H236      1.0  0.5396300000000003  0.47104999999999997  0.06975  1.0000
  H   H237      1.0  0.5481500000000002  0.44135999999999986  0.02173  1.0000
  H   H238      1.0  0.55035  0.32494  0.13572  1.0000
  H   H239      1.0  0.6970500000000002  0.32135  0.11327  1.0000
  H   H240      1.0  0.6885300000000002  0.39482  0.06055  1.0000
  H   H241      1.0  0.61156  0.43507  0.04811  1.0000
  H   H242      1.0  0.22136999999999998  0.34235  0.58386  1.0000
  H   H243      1.0  0.25826  0.47048  0.51014  1.0000
  H   H244      1.0  0.25665  0.44214  0.43616  1.0000
  H   H245      1.0  0.23327000000000003  0.36509  0.43695  1.0000
  H   H246      1.0  0.23986000000000005  0.37533  0.6443799999999998  1.0000
  H   H247      1.0  0.18529000000000004  0.39659  0.62782  1.0000
  H   H248      1.0  0.30454999999999993  0.40876  0.71987  1.0000
  H   H249      1.0  0.29586  0.39945999999999987  0.66518  1.0000
  H   H250      1.0  0.27309000000000005  0.36482  0.71522  1.0000
  H   H251      1.0  0.17720000000000002  0.49932  0.8126  1.0000
  H   H252      1.0  0.12922000000000006  0.5264699999999998  0.78661  1.0000
  H   H253      1.0  0.18118  0.55037  0.77466  1.0000
  H   H254      1.0  0.10620000000000004  0.48773999999999995  0.63773  1.0000
  H   H255      1.0  0.1513  0.45678  0.60458  1.0000
  H   H256      1.0  0.15155  0.5155799999999998  0.60503  1.0000
  H   H257      1.0  0.01608000000000002  0.49927  0.8015  1.0000
  H   H258      1.0  0.9459400000000004  0.55159  0.82658  1.0000
  H   H259      1.0  0.93031  0.6304  0.7831499999999999  1.0000
  H   H260      1.0  0.05852000000000005  0.6064899999999999  0.69601  1.0000
  H   H261      1.0  0.21691000000000007  0.43692  0.81149  1.0000
  H   H262      1.0  0.2705000000000001  0.41614999999999996  0.78179  1.0000
  H   H263      1.0  0.25118  0.413  0.86533  1.0000
  H   H264      1.0  0.2780200000000001  0.48654999999999976  0.96757  1.0000
  H   H265      1.0  0.29574000000000006  0.55232  0.9067899999999999  1.0000
  H   H266      1.0  0.28917  0.54862  0.82561  1.0000
  H   H267      1.0  0.1234800000000001  0.567  0.71644  1.0000
  H   H268      1.0  0.10651000000000001  0.5474299999999999  0.6695999999999999  1.0000
  H   H269      1.0  0.32395000000000007  0.7397199999999999  0.13018  1.0000
  H   H270      1.0  0.39371  0.73195  0.07139  1.0000
  H   H271      1.0  0.76978  0.3845  0.42158  1.0000
  H   H272      1.0  0.7719400000000004  0.4236  0.4892  1.0000
  H   H273      1.0  0.8468800000000001  0.4344  0.50939  1.0000
  H   H274      1.0  0.9165500000000002  0.36692  0.39508  1.0000
  H   H275      1.0  0.9752400000000004  0.35916  0.44183  1.0000
  H   H276      1.0  0.9672800000000003  0.41031000000000006  0.4031899999999999  1.0000
  H   H277      1.0  0.9640200000000002  0.52038  0.42727999999999994  1.0000
  H   H278      1.0  0.007250000000000016  0.50951  0.38098999999999994  1.0000
  H   H279      1.0  0.9618300000000004  0.4757199999999999  0.39605  1.0000
  H   H280      1.0  0.03830000000000002  0.31318  0.49194  1.0000
  H   H281      1.0  0.024270000000000014  0.33231  0.54614  1.0000
  H   H282      1.0  0.98214  0.3396899999999999  0.50988  1.0000
  H   H283      1.0  0.10667000000000001  0.48845  0.5268  1.0000
  H   H284      1.0  0.14364999999999997  0.43902  0.51208  1.0000
  H   H285      1.0  0.13493000000000008  0.48706  0.47001  1.0000
  H   H286      1.0  0.1318  0.37627  0.53028  1.0000
  H   H287      1.0  0.08953  0.33923  0.54456  1.0000
  H   H288      1.0  0.13940999999999998  0.31728  0.5957  1.0000
  H   H289      1.0  0.048110000000000014  0.42547  0.65581  1.0000
  H   H290      1.0  0.06976000000000002  0.53963  0.47105  1.0000
  H   H291      1.0  0.021730000000000017  0.54815  0.44136  1.0000
  H   H292      1.0  0.13573  0.55036  0.32493  1.0000
  H   H293      1.0  0.11326  0.69706  0.32136  1.0000
  H   H294      1.0  0.06053999999999996  0.68852  0.39482  1.0000
  H   H295      1.0  0.048110000000000014  0.6115599999999999  0.43507  1.0000
  H   H296      1.0  0.5838600000000003  0.22139  0.3423  1.0000
  H   H297      1.0  0.51019  0.2582799999999999  0.47046  1.0000
  H   H298      1.0  0.43620000000000003  0.25665  0.44215  1.0000
  H   H299      1.0  0.4369600000000001  0.23325000000000004  0.36512  1.0000
  H   H300      1.0  0.6444100000000003  0.23981999999999992  0.3753  1.0000
  H   H301      1.0  0.6278200000000003  0.18525  0.39658  1.0000
  H   H302      1.0  0.7198600000000003  0.3045499999999999  0.40875  1.0000
  H   H303      1.0  0.6651800000000002  0.29585  0.39944999999999997  1.0000
  H   H304      1.0  0.7152300000000003  0.27308999999999994  0.3648  1.0000
  H   H305      1.0  0.8126000000000002  0.17720999999999998  0.49931999999999993  1.0000
  H   H306      1.0  0.7866000000000002  0.12922  0.52647  1.0000
  H   H307      1.0  0.7746500000000002  0.18118999999999993  0.55037  1.0000
  H   H308      1.0  0.6377300000000002  0.10619999999999995  0.48773  1.0000
  H   H309      1.0  0.6045900000000002  0.15129  0.45677  1.0000
  H   H310      1.0  0.6050400000000002  0.15155  0.51556  1.0000
  H   H311      1.0  0.8015000000000002  0.01608  0.49926  1.0000
  H   H312      1.0  0.8265800000000002  0.94594  0.55158  1.0000
  H   H313      1.0  0.7831500000000002  0.93031  0.63039  1.0000
  H   H314      1.0  0.6960200000000002  0.05852999999999998  0.60649  1.0000
  H   H315      1.0  0.8114900000000002  0.21690999999999996  0.43692  1.0000
  H   H316      1.0  0.78179  0.2705  0.41615  1.0000
  H   H317      1.0  0.8653300000000003  0.25118  0.413  1.0000
  H   H318      1.0  0.96757  0.27801999999999993  0.48655  1.0000
  H   H319      1.0  0.9067900000000002  0.29574  0.55232  1.0000
  H   H320      1.0  0.82561  0.28917  0.54862  1.0000
  H   H321      1.0  0.7164400000000002  0.12347999999999999  0.567  1.0000
  H   H322      1.0  0.6696000000000002  0.10651999999999999  0.54743  1.0000
  H   H323      1.0  0.13018000000000002  0.32395  0.73972  1.0000
  H   H324      1.0  0.07138999999999997  0.39371  0.73195  1.0000
  H   H325      1.0  0.26979000000000003  0.92159  0.8845  1.0000
  H   H326      1.0  0.27195  0.9891999999999999  0.9236  1.0000
  H   H327      1.0  0.34688000000000024  0.009399999999999993  0.9344  1.0000
  H   H328      1.0  0.4165599999999999  0.89508  0.86692  1.0000
  H   H329      1.0  0.4752500000000001  0.94183  0.85916  1.0000
  H   H330      1.0  0.46728000000000014  0.9032  0.91031  1.0000
  H   H331      1.0  0.46402000000000015  0.9272799999999998  0.02038  1.0000
  H   H332      1.0  0.50725  0.88099  0.00951  1.0000
  H   H333      1.0  0.46183  0.8960500000000001  0.97571  1.0000
  H   H334      1.0  0.5383000000000001  0.9919499999999996  0.81318  1.0000
  H   H335      1.0  0.52427  0.04614000000000001  0.8323  1.0000
  H   H336      1.0  0.48214000000000024  0.009890000000000006  0.83969  1.0000
  H   H337      1.0  0.6066700000000004  0.026799999999999963  0.98845  1.0000
  H   H338      1.0  0.6436500000000002  0.012079999999999997  0.93902  1.0000
  H   H339      1.0  0.63492  0.97001  0.98706  1.0000
  H   H340      1.0  0.6318  0.030280000000000012  0.87626  1.0000
  H   H341      1.0  0.58953  0.04456000000000001  0.83922  1.0000
  H   H342      1.0  0.6394100000000003  0.09569999999999998  0.81728  1.0000
  H   H343      1.0  0.5481  0.15581999999999996  0.92547  1.0000
  H   H344      1.0  0.5697600000000002  0.97105  0.03963  1.0000
  H   H345      1.0  0.52173  0.94136  0.04814  1.0000
  H   H346      1.0  0.63573  0.82493  0.05036  1.0000
  H   H347      1.0  0.6132600000000002  0.82136  0.19705  1.0000
  H   H348      1.0  0.56054  0.8948200000000001  0.18852  1.0000
  H   H349      1.0  0.5481100000000002  0.93507  0.11155  1.0000
  H   H350      1.0  0.08386000000000002  0.8423  0.72139  1.0000
  H   H351      1.0  0.01018999999999998  0.97046  0.75827  1.0000
  H   H352      1.0  0.9362000000000004  0.9421599999999998  0.75665  1.0000
  H   H353      1.0  0.93696  0.86512  0.73325  1.0000
  H   H354      1.0  0.14441000000000004  0.8753  0.73981  1.0000
  H   H355      1.0  0.12783000000000008  0.89659  0.68525  1.0000
  H   H356      1.0  0.21986  0.90876  0.80454  1.0000
  H   H357      1.0  0.16518000000000008  0.89946  0.79584  1.0000
  H   H358      1.0  0.21522999999999998  0.86481  0.77309  1.0000
  H   H359      1.0  0.3126000000000001  0.9993299999999999  0.6772  1.0000
  H   H360      1.0  0.2866  0.02647  0.62922  1.0000
  H   H361      1.0  0.27465  0.050369999999999984  0.68119  1.0000
  H   H362      1.0  0.13774000000000006  0.98773  0.60619  1.0000
  H   H363      1.0  0.10459000000000009  0.95677  0.65129  1.0000
  H   H364      1.0  0.10504000000000001  0.015560000000000004  0.65154  1.0000
  H   H365      1.0  0.3015  0.99927  0.51608  1.0000
  H   H366      1.0  0.3265800000000001  0.05158000000000001  0.44593999999999995  1.0000
  H   H367      1.0  0.28315  0.1304  0.43030999999999997  1.0000
  H   H368      1.0  0.19602  0.10649  0.55853  1.0000
  H   H369      1.0  0.31150000000000017  0.93692  0.71691  1.0000
  H   H370      1.0  0.2817900000000002  0.9161499999999998  0.7705  1.0000
  H   H371      1.0  0.36533000000000004  0.913  0.75118  1.0000
  H   H372      1.0  0.46757000000000004  0.98655  0.77802  1.0000
  H   H373      1.0  0.40678999999999993  0.05233  0.79574  1.0000
  H   H374      1.0  0.3256100000000001  0.04861999999999998  0.78917  1.0000
  H   H375      1.0  0.21645000000000003  0.06699999999999999  0.62348  1.0000
  H   H376      1.0  0.1696000000000001  0.04743000000000001  0.60651  1.0000
  H   H377      1.0  0.63018  0.23971999999999996  0.82395  1.0000
  H   H378      1.0  0.57139  0.23196  0.89371  1.0000
  H   H379      1.0  0.9215800000000001  0.8845  0.26978  1.0000
  H   H380      1.0  0.9891900000000003  0.9236  0.27194  1.0000
  H   H381      1.0  0.009390000000000016  0.9344  0.34688  1.0000
  H   H382      1.0  0.8950700000000003  0.86693  0.41655  1.0000
  H   H383      1.0  0.94183  0.85916  0.47524  1.0000
  H   H384      1.0  0.9031899999999999  0.9103099999999997  0.46728  1.0000
  H   H385      1.0  0.9272900000000002  0.02038  0.46402  1.0000
  H   H386      1.0  0.8809900000000003  0.00951000000000001  0.50724  1.0000
  H   H387      1.0  0.89605  0.97571  0.46183  1.0000
  H   H388      1.0  0.9919400000000005  0.81318  0.5383  1.0000
  H   H389      1.0  0.04613999999999996  0.8323100000000001  0.52427  1.0000
  H   H390      1.0  0.009890000000000027  0.83969  0.48213  1.0000
  H   H391      1.0  0.026800000000000018  0.9884499999999999  0.60666  1.0000
  H   H392      1.0  0.012080000000000033  0.9390199999999997  0.64365  1.0000
  H   H393      1.0  0.9700200000000003  0.9870600000000002  0.63492  1.0000
  H   H394      1.0  0.030279999999999967  0.87626  0.63179  1.0000
  H   H395      1.0  0.04456999999999999  0.83923  0.58952  1.0000
  H   H396      1.0  0.09570000000000001  0.81728  0.6394  1.0000
  H   H397      1.0  0.15581999999999996  0.92547  0.5481  1.0000
  H   H398      1.0  0.9710500000000002  0.03963  0.56976  1.0000
  H   H399      1.0  0.9413600000000002  0.048150000000000005  0.52173  1.0000
  H   H400      1.0  0.82493  0.05036000000000003  0.6357299999999999  1.0000
  H   H401      1.0  0.8213600000000002  0.19705999999999996  0.61326  1.0000
  H   H402      1.0  0.8948200000000002  0.18852  0.56054  1.0000
  H   H403      1.0  0.93507  0.11156  0.54811  1.0000
  H   H404      1.0  0.8423000000000003  0.7213899999999998  0.08386  1.0000
  H   H405      1.0  0.9704599999999999  0.75827  0.01018  1.0000
  H   H406      1.0  0.9421500000000005  0.75665  0.9361899999999999  1.0000
  H   H407      1.0  0.8651100000000002  0.73325  0.93695  1.0000
  H   H408      1.0  0.8753000000000002  0.73983  0.1444  1.0000
  H   H409      1.0  0.8965800000000003  0.68527  0.12782  1.0000
  H   H410      1.0  0.90875  0.80455  0.21986  1.0000
  H   H411      1.0  0.89945  0.7958499999999997  0.16518  1.0000
  H   H412      1.0  0.8648000000000002  0.77309  0.21522  1.0000
  H   H413      1.0  0.9993200000000002  0.6772  0.31259999999999993  1.0000
  H   H414      1.0  0.026470000000000028  0.6292199999999999  0.2866  1.0000
  H   H415      1.0  0.05037  0.68119  0.27466  1.0000
  H   H416      1.0  0.9877199999999999  0.6062  0.13773  1.0000
  H   H417      1.0  0.9567600000000002  0.6513  0.10459  1.0000
  H   H418      1.0  0.01555999999999998  0.65155  0.10504  1.0000
  H   H419      1.0  0.9992599999999999  0.51608  0.3015  1.0000
  H   H420      1.0  0.051579999999999994  0.44595  0.32658  1.0000
  H   H421      1.0  0.13039000000000006  0.43032  0.28316  1.0000
  H   H422      1.0  0.10649000000000006  0.55852  0.19601  1.0000
  H   H423      1.0  0.9369099999999999  0.7169099999999998  0.31149  1.0000
  H   H424      1.0  0.9161400000000001  0.7705  0.28179  1.0000
  H   H425      1.0  0.9130000000000004  0.75118  0.36533  1.0000
  H   H426      1.0  0.9865499999999999  0.77802  0.46757  1.0000
  H   H427      1.0  0.052329999999999995  0.79574  0.40679  1.0000
  H   H428      1.0  0.04861999999999998  0.78917  0.32561  1.0000
  H   H429      1.0  0.06699  0.62348  0.21644  1.0000
  H   H430      1.0  0.04742999999999997  0.60652  0.1696  1.0000
  H   H431      1.0  0.23972000000000018  0.82395  0.63018  1.0000
  H   H432      1.0  0.23196000000000003  0.89371  0.57139  1.0000
  H   H433      1.0  0.8845  0.26978999999999986  0.92158  1.0000
  H   H434      1.0  0.9236000000000003  0.2719500000000001  0.98919  1.0000
  H   H435      1.0  0.9344000000000002  0.34688  0.00939  1.0000
  H   H436      1.0  0.8669300000000004  0.41656  0.89507  1.0000
  H   H437      1.0  0.8591600000000005  0.47525000000000006  0.94183  1.0000
  H   H438      1.0  0.9103100000000002  0.46728000000000003  0.90319  1.0000
  H   H439      1.0  0.020379999999999992  0.46402  0.92728  1.0000
  H   H440      1.0  0.009510000000000044  0.5072499999999998  0.88099  1.0000
  H   H441      1.0  0.97572  0.46184000000000003  0.8960399999999998  1.0000
  H   H442      1.0  0.8131800000000002  0.5383000000000001  0.99194  1.0000
  H   H443      1.0  0.8323100000000001  0.52426  0.04614  1.0000
  H   H444      1.0  0.8396900000000005  0.48213  0.00988  1.0000
  H   H445      1.0  0.98845  0.60666  0.0268  1.0000
  H   H446      1.0  0.9390200000000004  0.6436499999999999  0.01208  1.0000
  H   H447      1.0  0.9870700000000001  0.63492  0.97001  1.0000
  H   H448      1.0  0.8762600000000003  0.6318  0.03028  1.0000
  H   H449      1.0  0.8392300000000003  0.58953  0.04456  1.0000
  H   H450      1.0  0.8172800000000002  0.63941  0.0957  1.0000
  H   H451      1.0  0.9254700000000002  0.5480999999999998  0.15582  1.0000
  H   H452      1.0  0.03963000000000001  0.56976  0.97105  1.0000
  H   H453      1.0  0.04815  0.52173  0.94136  1.0000
  H   H454      1.0  0.050360000000000064  0.63573  0.8249399999999998  1.0000
  H   H455      1.0  0.1970500000000001  0.61327  0.82135  1.0000
  H   H456      1.0  0.18852999999999998  0.56055  0.89481  1.0000
  H   H457      1.0  0.11156000000000009  0.54812  0.93507  1.0000
  H   H458      1.0  0.7213700000000002  0.08386  0.84234  1.0000
  H   H459      1.0  0.75826  0.010140000000000026  0.9704799999999999  1.0000
  H   H460      1.0  0.7566500000000005  0.93616  0.94213  1.0000
  H   H461      1.0  0.7332700000000002  0.93695  0.8650899999999999  1.0000
  H   H462      1.0  0.73986  0.14438  0.87533  1.0000
  H   H463      1.0  0.6852900000000002  0.12782  0.89658  1.0000
  H   H464      1.0  0.8045500000000001  0.21987999999999996  0.9087599999999998  1.0000
  H   H465      1.0  0.7958599999999999  0.16519  0.89946  1.0000
  H   H466      1.0  0.77309  0.21522999999999998  0.86481  1.0000
  H   H467      1.0  0.6772  0.31261  0.99932  1.0000
  H   H468      1.0  0.6292200000000002  0.2866099999999999  0.02646  1.0000
  H   H469      1.0  0.6811800000000002  0.27466  0.05036  1.0000
  H   H470      1.0  0.6062000000000001  0.13774000000000003  0.98774  1.0000
  H   H471      1.0  0.6513000000000001  0.10458  0.95678  1.0000
  H   H472      1.0  0.6515400000000001  0.10503  0.01558  1.0000
  H   H473      1.0  0.5160800000000002  0.3015  0.99927  1.0000
  H   H474      1.0  0.44594  0.32658  0.05158  1.0000
  H   H475      1.0  0.43031000000000014  0.28315  0.1304  1.0000
  H   H476      1.0  0.5585200000000002  0.19602  0.10649  1.0000
  H   H477      1.0  0.7169100000000002  0.3115  0.93691  1.0000
  H   H478      1.0  0.7705000000000002  0.2818  0.91614  1.0000
  H   H479      1.0  0.7511700000000002  0.36534  0.913  1.0000
  H   H480      1.0  0.7780200000000003  0.46756999999999993  0.98655  1.0000
  H   H481      1.0  0.7957400000000002  0.40678999999999993  0.05232  1.0000
  H   H482      1.0  0.7891700000000003  0.32561  0.04862  1.0000
  H   H483      1.0  0.62347  0.21645  0.06699  1.0000
  H   H484      1.0  0.60651  0.1696  0.04743  1.0000
  H   H485      1.0  0.8239500000000002  0.63018  0.23972  1.0000
  H   H486      1.0  0.8937100000000002  0.57139  0.23195  1.0000
  H   H487      1.0  0.57842  0.23022000000000004  0.6155  1.0000
  H   H488      1.0  0.5108000000000003  0.22805999999999998  0.5764  1.0000
  H   H489      1.0  0.4906100000000001  0.15313  0.5656  1.0000
  H   H490      1.0  0.6049200000000001  0.08345  0.63307  1.0000
  H   H491      1.0  0.5581700000000003  0.02476000000000001  0.6408399999999999  1.0000
  H   H492      1.0  0.5968000000000003  0.03273  0.58969  1.0000
  H   H493      1.0  0.5727100000000002  0.03597999999999997  0.47962  1.0000
  H   H494      1.0  0.6190099999999998  0.99276  0.49049  1.0000
  H   H495      1.0  0.60395  0.03817  0.52428  1.0000
  H   H496      1.0  0.5080500000000002  0.9617  0.68682  1.0000
  H   H497      1.0  0.45386000000000015  0.9757299999999998  0.66769  1.0000
  H   H498      1.0  0.49011000000000005  0.017869999999999994  0.66031  1.0000
  H   H499      1.0  0.47320000000000023  0.8933399999999998  0.51155  1.0000
  H   H500      1.0  0.48792000000000035  0.85635  0.5609799999999999  1.0000
  H   H501      1.0  0.52998  0.8650799999999997  0.51294  1.0000
  H   H502      1.0  0.46972000000000025  0.8682  0.6237399999999999  1.0000
  H   H503      1.0  0.45542999999999995  0.91048  0.66077  1.0000
  H   H504      1.0  0.4043000000000002  0.8605999999999998  0.68272  1.0000
  H   H505      1.0  0.34418000000000015  0.9519  0.57453  1.0000
  H   H506      1.0  0.5289500000000003  0.93024  0.46037  1.0000
  H   H507      1.0  0.55864  0.9782699999999998  0.45185  1.0000
  H   H508      1.0  0.6750700000000002  0.8642699999999999  0.44964  1.0000
  H   H509      1.0  0.67864  0.88674  0.30294  1.0000
  H   H510      1.0  0.60517  0.93946  0.31148  1.0000
  H   H511      1.0  0.5649300000000003  0.9518899999999999  0.38845  1.0000
  H   H512      1.0  0.65769  0.41614  0.7786  1.0000
  H   H513      1.0  0.52953  0.48982000000000003  0.74173  1.0000
  H   H514      1.0  0.5578500000000002  0.5638099999999999  0.74335  1.0000
  H   H515      1.0  0.63488  0.56305  0.76675  1.0000
  H   H516      1.0  0.6247000000000003  0.3556000000000001  0.76017  1.0000
  H   H517      1.0  0.6034200000000002  0.37218  0.81473  1.0000
  H   H518      1.0  0.5912500000000003  0.28014  0.69545  1.0000
  H   H519      1.0  0.6005500000000003  0.33482999999999985  0.70415  1.0000
  H   H520      1.0  0.6352000000000002  0.28478  0.72691  1.0000
  H   H521      1.0  0.50068  0.18739999999999998  0.8228  1.0000
  H   H522      1.0  0.47353000000000023  0.21339999999999998  0.87078  1.0000
  H   H523      1.0  0.44963  0.22535000000000002  0.8188099999999999  1.0000
  H   H524      1.0  0.51228  0.3622699999999999  0.8938  1.0000
  H   H525      1.0  0.5432400000000002  0.39541  0.8487  1.0000
  H   H526      1.0  0.48444  0.39497  0.84845  1.0000
  H   H527      1.0  0.5007400000000002  0.19851000000000002  0.98392  1.0000
  H   H528      1.0  0.44842  0.17341  0.05406  1.0000
  H   H529      1.0  0.3696100000000001  0.21684  0.06969  1.0000
  H   H530      1.0  0.39351  0.30398999999999987  0.94148  1.0000
  H   H531      1.0  0.5630800000000002  0.18851  0.78308  1.0000
  H   H532      1.0  0.58385  0.21821  0.7295  1.0000
  H   H533      1.0  0.587  0.13467  0.74882  1.0000
  H   H534      1.0  0.51345  0.03243000000000001  0.72198  1.0000
  H   H535      1.0  0.4476700000000001  0.09321  0.70426  1.0000
  H   H536      1.0  0.45138000000000017  0.17439000000000002  0.71083  1.0000
  H   H537      1.0  0.4330100000000002  0.28356  0.87652  1.0000
  H   H538      1.0  0.4525699999999998  0.3304  0.89348  1.0000
  H   H539      1.0  0.26028000000000007  0.8698200000000001  0.67605  1.0000
  H   H540      1.0  0.26804000000000006  0.92861  0.60629  1.0000
  H   H541      1.0  0.6155000000000003  0.57842  0.23021  1.0000
  H   H542      1.0  0.5764  0.5108  0.22805  1.0000
  H   H543      1.0  0.5656000000000004  0.49061  0.15311999999999998  1.0000
  H   H544      1.0  0.63307  0.6049199999999998  0.08343999999999999  1.0000
  H   H545      1.0  0.64083  0.55817  0.02476  1.0000
  H   H546      1.0  0.58969  0.5968  0.03272  1.0000
  H   H547      1.0  0.47962  0.57272  0.03598  1.0000
  H   H548      1.0  0.49049000000000004  0.61902  0.99275  1.0000
  H   H549      1.0  0.52428  0.60396  0.03817  1.0000
  H   H550      1.0  0.6868200000000002  0.50806  0.9617  1.0000
  H   H551      1.0  0.66769  0.45386  0.97574  1.0000
  H   H552      1.0  0.6603  0.49012  0.01787  1.0000
  H   H553      1.0  0.5115500000000002  0.4732099999999998  0.89333  1.0000
  H   H554      1.0  0.5609700000000002  0.48793  0.85635  1.0000
  H   H555      1.0  0.5129300000000001  0.52999  0.86508  1.0000
  H   H556      1.0  0.62373  0.4697200000000001  0.8682  1.0000
  H   H557      1.0  0.6607700000000002  0.45543999999999996  0.91047  1.0000
  H   H558      1.0  0.6827200000000003  0.40431  0.86059  1.0000
  H   H559      1.0  0.5745300000000002  0.34419  0.9519  1.0000
  H   H560      1.0  0.46037000000000006  0.52895  0.9302399999999998  1.0000
  H   H561      1.0  0.45185000000000003  0.5586399999999998  0.97827  1.0000
  H   H562      1.0  0.44963999999999993  0.67506  0.86427  1.0000
  H   H563      1.0  0.30295  0.67865  0.88673  1.0000
  H   H564      1.0  0.3114700000000002  0.60519  0.93945  1.0000
  H   H565      1.0  0.38843999999999995  0.5649299999999999  0.95188  1.0000
  H   H566      1.0  0.77863  0.65765  0.41614  1.0000
  H   H567      1.0  0.7417400000000002  0.52952  0.48986  1.0000
  H   H568      1.0  0.7433500000000002  0.55787  0.56384  1.0000
  H   H569      1.0  0.7667200000000002  0.63491  0.56305  1.0000
  H   H570      1.0  0.7601400000000001  0.62467  0.35562  1.0000
  H   H571      1.0  0.8147100000000003  0.6034199999999997  0.37218  1.0000
  H   H572      1.0  0.6954500000000001  0.5912399999999999  0.28013  1.0000
  H   H573      1.0  0.7041300000000005  0.60054  0.33482  1.0000
  H   H574      1.0  0.7269100000000002  0.63518  0.28476999999999997  1.0000
  H   H575      1.0  0.8228000000000002  0.50068  0.18739  1.0000
  H   H576      1.0  0.87078  0.47354  0.21339  1.0000
  H   H577      1.0  0.8188100000000003  0.44964  0.22534  1.0000
  H   H578      1.0  0.8938000000000003  0.51226  0.36227  1.0000
  H   H579      1.0  0.8487000000000002  0.54322  0.39542  1.0000
  H   H580      1.0  0.8484500000000003  0.48442  0.39497  1.0000
  H   H581      1.0  0.9839200000000005  0.50073  0.1985  1.0000
  H   H582      1.0  0.054060000000000004  0.44842  0.17342  1.0000
  H   H583      1.0  0.06968999999999999  0.3696  0.21685  1.0000
  H   H584      1.0  0.94147  0.39351  0.30398  1.0000
  H   H585      1.0  0.7830900000000001  0.56308  0.18851  1.0000
  H   H586      1.0  0.7295  0.58385  0.21821  1.0000
  H   H587      1.0  0.7488200000000003  0.587  0.13467  1.0000
  H   H588      1.0  0.7219800000000002  0.51345  0.03243  1.0000
  H   H589      1.0  0.70425  0.4476799999999999  0.09321  1.0000
  H   H590      1.0  0.7108200000000002  0.4513799999999999  0.17439  1.0000
  H   H591      1.0  0.8765200000000002  0.43301  0.28355  1.0000
  H   H592      1.0  0.8934800000000003  0.45257  0.3304  1.0000
  H   H593      1.0  0.6760500000000003  0.26028  0.86982  1.0000
  H   H594      1.0  0.60629  0.2680499999999999  0.92861  1.0000
  H   H595      1.0  0.2302100000000001  0.6155  0.57841  1.0000
  H   H596      1.0  0.22805000000000006  0.5764  0.5108  1.0000
  H   H597      1.0  0.15312000000000003  0.5655999999999999  0.49061  1.0000
  H   H598      1.0  0.08345  0.63308  0.60492  1.0000
  H   H599      1.0  0.024760000000000035  0.64084  0.5581699999999999  1.0000
  H   H600      1.0  0.032720000000000006  0.58969  0.5968  1.0000
  H   H601      1.0  0.035979999999999984  0.47962000000000005  0.57271  1.0000
  H   H602      1.0  0.9927500000000005  0.49049  0.61901  1.0000
  H   H603      1.0  0.03817000000000002  0.52429  0.60395  1.0000
  H   H604      1.0  0.9616900000000005  0.68682  0.50805  1.0000
  H   H605      1.0  0.9757300000000004  0.6677  0.45385999999999993  1.0000
  H   H606      1.0  0.017860000000000053  0.6603099999999997  0.49011  1.0000
  H   H607      1.0  0.8933300000000002  0.51155  0.4732  1.0000
  H   H608      1.0  0.85635  0.56098  0.48792  1.0000
  H   H609      1.0  0.8650700000000004  0.51294  0.52999  1.0000
  H   H610      1.0  0.8682000000000002  0.62374  0.46972  1.0000
  H   H611      1.0  0.9104700000000004  0.6607699999999999  0.45544  1.0000
  H   H612      1.0  0.86059  0.68272  0.4043  1.0000
  H   H613      1.0  0.9518900000000005  0.57453  0.34418  1.0000
  H   H614      1.0  0.9302399999999998  0.46038  0.52895  1.0000
  H   H615      1.0  0.9782700000000003  0.45186  0.55863  1.0000
  H   H616      1.0  0.8642700000000004  0.44964000000000004  0.67506  1.0000
  H   H617      1.0  0.88674  0.30295  0.67864  1.0000
  H   H618      1.0  0.93946  0.31148  0.60518  1.0000
  H   H619      1.0  0.9518900000000001  0.38845  0.56493  1.0000
  H   H620      1.0  0.41614000000000007  0.77861  0.6577  1.0000
  H   H621      1.0  0.48981000000000025  0.7417299999999998  0.52954  1.0000
  H   H622      1.0  0.5638000000000002  0.74335  0.55784  1.0000
  H   H623      1.0  0.56304  0.76675  0.63488  1.0000
  H   H624      1.0  0.3555900000000001  0.76018  0.6247  1.0000
  H   H625      1.0  0.37218000000000007  0.81475  0.6034099999999999  1.0000
  H   H626      1.0  0.2801400000000001  0.6954599999999999  0.59124  1.0000
  H   H627      1.0  0.33482000000000006  0.70416  0.60055  1.0000
  H   H628      1.0  0.28477  0.72691  0.63519  1.0000
  H   H629      1.0  0.18739999999999998  0.8228  0.50067  1.0000
  H   H630      1.0  0.21339999999999998  0.87078  0.47353  1.0000
  H   H631      1.0  0.2253500000000001  0.8188099999999998  0.44963  1.0000
  H   H632      1.0  0.3622600000000002  0.89381  0.51227  1.0000
  H   H633      1.0  0.39541000000000004  0.8487099999999997  0.54323  1.0000
  H   H634      1.0  0.39496  0.84845  0.48444  1.0000
  H   H635      1.0  0.19850000000000004  0.98392  0.50073  1.0000
  H   H636      1.0  0.1734200000000001  0.054060000000000004  0.44842  1.0000
  H   H637      1.0  0.21685  0.06968999999999997  0.36961  1.0000
  H   H638      1.0  0.30398  0.94147  0.39351  1.0000
  H   H639      1.0  0.18851000000000004  0.78309  0.56308  1.0000
  H   H640      1.0  0.21821000000000004  0.7295  0.58385  1.0000
  H   H641      1.0  0.13467  0.74882  0.587  1.0000
  H   H642      1.0  0.03243  0.72198  0.51345  1.0000
  H   H643      1.0  0.09320999999999997  0.70426  0.44767  1.0000
  H   H644      1.0  0.17439  0.71083  0.45138  1.0000
  H   H645      1.0  0.28356000000000003  0.8765199999999997  0.433  1.0000
  H   H646      1.0  0.33039999999999997  0.89348  0.45257  1.0000
  H   H647      1.0  0.8698200000000003  0.67605  0.26028  1.0000
  H   H648      1.0  0.9286100000000002  0.60629  0.26805  1.0000
  C   C1        1.0  0.6568000000000003  0.09530999999999999  0.1259  1.0000
  C   C2        1.0  0.6979100000000003  0.06922  0.11024  1.0000
  C   C3        1.0  0.69637  0.03151  0.08851  1.0000
  C   C4        1.0  0.6546300000000003  0.020029999999999996  0.08226  1.0000
  C   C5        1.0  0.61341  0.04663  0.09764  1.0000
  C   C6        1.0  0.61445  0.0842  0.11963  1.0000
  C   C7        1.0  0.65668  0.13468  0.1508  1.0000
  C   C8        1.0  0.46849000000000013  0.01048  0.11272  1.0000
  C   C9        1.0  0.43181  0.99683  0.09635  1.0000
  C   C10       1.0  0.42215000000000014  0.01337  0.05145  1.0000
  C   C11       1.0  0.45101  0.04197  0.02257  1.0000
  C   C12       1.0  0.5307  0.060649999999999996  0.10334  1.0000
  C   C13       1.0  0.51481  0.09019  0.007089999999999999  1.0000
  C   C14       1.0  0.4814800000000002  0.98974  0.15924  1.0000
  C   C15       1.0  0.38222  0.0003200000000000001  0.03348  1.0000
  C   C16       1.0  0.4052000000000002  0.9611  0.12479  1.0000
  C   C17       1.0  0.48614000000000024  0.058029999999999984  0.0392  1.0000
  C   C18       1.0  0.3610600000000001  0.83216  0.18215  1.0000
  C   C19       1.0  0.37417  0.87546  0.16432  1.0000
  C   C20       1.0  0.4256200000000002  0.84045  0.10412  1.0000
  C   C21       1.0  0.33249  0.82683  0.22721  1.0000
  C   C22       1.0  0.44506  0.055  0.97302  1.0000
  C   C23       1.0  0.40876999999999997  0.11735  0.92421  1.0000
  C   C24       1.0  0.37989999999999996  0.15933  0.91946  1.0000
  C   C25       1.0  0.37185000000000007  0.18098  0.87581  1.0000
  C   C26       1.0  0.39285999999999993  0.16112  0.83663  1.0000
  C   C27       1.0  0.42189000000000004  0.11986  0.84172  1.0000
  C   C28       1.0  0.42968000000000023  0.09745000000000001  0.88523  1.0000
  C   C29       1.0  0.34238  0.22632000000000002  0.87043  1.0000
  C   C30       1.0  0.9885800000000002  0.19677999999999998  0.28745  1.0000
  C   C31       1.0  0.9895500000000003  0.15051  0.27379  1.0000
  C   C32       1.0  0.9479500000000002  0.13508  0.27167  1.0000
  C   C33       1.0  0.9485100000000002  0.09091000000000002  0.26126  1.0000
  C   C34       1.0  0.9905100000000001  0.06341000000000002  0.25038  1.0000
  C   C35       1.0  0.03150000000000001  0.07942  0.2517  1.0000
  C   C36       1.0  0.03134  0.12253  0.26442  1.0000
  C   C37       1.0  0.40630999999999995  0.87947  0.12495999999999999  1.0000
  C   C38       1.0  0.8669300000000002  0.09332  0.28238  1.0000
  C   C39       1.0  0.8319400000000002  0.0607  0.29176  1.0000
  C   C40       1.0  0.7967000000000002  0.06657999999999997  0.26408  1.0000
  C   C41       1.0  0.7992100000000002  0.10020999999999994  0.22038  1.0000
  C   C42       1.0  0.7595800000000004  0.04133999999999999  0.27811  1.0000
  C   C43       1.0  0.7592600000000003  0.00835000000000001  0.31759999999999994  1.0000
  C   C44       1.0  0.7193800000000004  0.9819  0.33347  1.0000
  C   C45       1.0  0.83313  0.026240000000000006  0.33002  1.0000
  C   C46       1.0  0.8733300000000003  0.01634  0.35672  1.0000
  C   C47       1.0  0.75308  0.95104  0.45841  1.0000
  C   C48       1.0  0.7159000000000003  0.9659  0.49034  1.0000
  C   C49       1.0  0.7024400000000002  0.9365999999999999  0.52977  1.0000
  C   C50       1.0  0.7262300000000005  0.89251  0.53862  1.0000
  C   C51       1.0  0.7626500000000003  0.8776699999999998  0.50624  1.0000
  C   C52       1.0  0.7758200000000002  0.90652  0.46584  1.0000
  C   C53       1.0  0.7166  0.05406  0.2561  1.0000
  C   C54       1.0  0.6603200000000002  0.018339999999999995  0.23185  1.0000
  C   C55       1.0  0.6266800000000002  0.05564999999999999  0.24003  1.0000
  C   C56       1.0  0.56815  0.014619999999999998  0.2241  1.0000
  C   C57       1.0  0.6021300000000002  0.978  0.21462  1.0000
  C   C58       1.0  0.58078  0.053739999999999996  0.23609  1.0000
  C   C59       1.0  0.6477800000000005  0.9796999999999999  0.21817  1.0000
  C   C60       1.0  0.7967800000000003  0.99993  0.3423  1.0000
  C   C61       1.0  0.54709  0.09497  0.24389  1.0000
  C   C62       1.0  0.7962500000000002  0.96349  0.38328999999999996  1.0000
  C   C63       1.0  0.4938700000000001  0.04317  0.08486  1.0000
  C   C64       1.0  0.3793500000000001  0.79351  0.1608  1.0000
  C   C65       1.0  0.41202000000000005  0.7980199999999997  0.12184  1.0000
  C   C66       1.0  0.7891600000000001  0.83153  0.51269  1.0000
  C   C67       1.0  0.09531  0.1259  0.6568  1.0000
  C   C68       1.0  0.06922  0.11023999999999999  0.69791  1.0000
  C   C69       1.0  0.031510000000000024  0.08850999999999995  0.69637  1.0000
  C   C70       1.0  0.020030000000000006  0.08225999999999997  0.65463  1.0000
  C   C71       1.0  0.046630000000000005  0.09764  0.61342  1.0000
  C   C72       1.0  0.08421  0.11963  0.61445  1.0000
  C   C73       1.0  0.13468000000000002  0.15079999999999996  0.65668  1.0000
  C   C74       1.0  0.010480000000000019  0.11272000000000001  0.4685  1.0000
  C   C75       1.0  0.9968200000000002  0.09635000000000002  0.43182  1.0000
  C   C76       1.0  0.013370000000000002  0.05145  0.42215  1.0000
  C   C77       1.0  0.04197000000000001  0.022569999999999996  0.45101  1.0000
  C   C78       1.0  0.06064999999999999  0.10334000000000002  0.53071  1.0000
  C   C79       1.0  0.09019  0.007090000000000003  0.51481  1.0000
  C   C80       1.0  0.98974  0.15924  0.48148  1.0000
  C   C81       1.0  0.00031999999999999683  0.033490000000000006  0.38222  1.0000
  C   C82       1.0  0.9611000000000002  0.12479  0.40521  1.0000
  C   C83       1.0  0.05803000000000001  0.0392  0.48614  1.0000
  C   C84       1.0  0.83216  0.18215999999999993  0.36106  1.0000
  C   C85       1.0  0.8754600000000001  0.16432  0.37417  1.0000
  C   C86       1.0  0.8404500000000003  0.10412  0.42562  1.0000
  C   C87       1.0  0.82683  0.22722000000000003  0.33249  1.0000
  C   C88       1.0  0.055  0.9730199999999999  0.44506  1.0000
  C   C89       1.0  0.11735  0.92421  0.40877  1.0000
  C   C90       1.0  0.15933000000000003  0.91946  0.37989  1.0000
  C   C91       1.0  0.18097000000000002  0.87581  0.37184  1.0000
  C   C92       1.0  0.16111000000000003  0.83663  0.39286  1.0000
  C   C93       1.0  0.11985000000000003  0.84172  0.42188  1.0000
  C   C94       1.0  0.09743999999999997  0.88523  0.42967  1.0000
  C   C95       1.0  0.22632000000000002  0.87043  0.34238  1.0000
  C   C96       1.0  0.19678000000000004  0.28745  0.98858  1.0000
  C   C97       1.0  0.15051  0.2738  0.98955  1.0000
  C   C98       1.0  0.13507000000000002  0.27167  0.94796  1.0000
  C   C99       1.0  0.0909  0.26126  0.94852  1.0000
  C   C100      1.0  0.06341000000000001  0.25037999999999994  0.99052  1.0000
  C   C101      1.0  0.07941999999999999  0.25171  0.0315  1.0000
  C   C102      1.0  0.12253000000000001  0.26443  0.03134  1.0000
  C   C103      1.0  0.8794700000000003  0.12495999999999999  0.40632  1.0000
  C   C104      1.0  0.09331000000000002  0.28237  0.86694  1.0000
  C   C105      1.0  0.060700000000000004  0.29176  0.83194  1.0000
  C   C106      1.0  0.06658000000000007  0.2640799999999999  0.7967  1.0000
  C   C107      1.0  0.1002100000000001  0.22038  0.79921  1.0000
  C   C108      1.0  0.04134000000000005  0.27812  0.75958  1.0000
  C   C109      1.0  0.008360000000000001  0.31761  0.75926  1.0000
  C   C110      1.0  0.9818999999999999  0.33348  0.71937  1.0000
  C   C111      1.0  0.02624  0.33002  0.83313  1.0000
  C   C112      1.0  0.016340000000000025  0.35672  0.87333  1.0000
  C   C113      1.0  0.9510400000000004  0.45840999999999993  0.75308  1.0000
  C   C114      1.0  0.9659  0.49034  0.71589  1.0000
  C   C115      1.0  0.9366  0.52978  0.70244  1.0000
  C   C116      1.0  0.89251  0.5386299999999999  0.72622  1.0000
  C   C117      1.0  0.8776700000000001  0.50625  0.76265  1.0000
  C   C118      1.0  0.90652  0.46584999999999993  0.77582  1.0000
  C   C119      1.0  0.05406000000000001  0.25611  0.7166  1.0000
  C   C120      1.0  0.01834  0.23185000000000003  0.66032  1.0000
  C   C121      1.0  0.05565000000000001  0.24004  0.62668  1.0000
  C   C122      1.0  0.014620000000000001  0.22410000000000002  0.56815  1.0000
  C   C123      1.0  0.9780000000000003  0.21463  0.60213  1.0000
  C   C124      1.0  0.05374000000000002  0.23610000000000003  0.5807799999999999  1.0000
  C   C125      1.0  0.9797000000000001  0.21818  0.64778  1.0000
  C   C126      1.0  0.99993  0.3423  0.79678  1.0000
  C   C127      1.0  0.09497  0.24389000000000002  0.54709  1.0000
  C   C128      1.0  0.9634900000000003  0.38329  0.79625  1.0000
  C   C129      1.0  0.04317000000000001  0.08485999999999999  0.49388  1.0000
  C   C130      1.0  0.79351  0.16079999999999997  0.37935  1.0000
  C   C131      1.0  0.79802  0.12184  0.41202  1.0000
  C   C132      1.0  0.83154  0.51269  0.78916  1.0000
  C   C133      1.0  0.12589  0.6568  0.09531  1.0000
  C   C134      1.0  0.11024000000000006  0.69791  0.06922  1.0000
  C   C135      1.0  0.08851  0.69637  0.03151  1.0000
  C   C136      1.0  0.08226  0.65463  0.02003  1.0000
  C   C137      1.0  0.09764  0.61341  0.04663  1.0000
  C   C138      1.0  0.11963  0.61445  0.0842  1.0000
  C   C139      1.0  0.15080000000000007  0.65668  0.13468  1.0000
  C   C140      1.0  0.11272000000000004  0.4685  0.01048  1.0000
  C   C141      1.0  0.09634000000000002  0.43182  0.99682  1.0000
  C   C142      1.0  0.05144000000000003  0.4221499999999999  0.01337  1.0000
  C   C143      1.0  0.022560000000000004  0.45102  0.04197  1.0000
  C   C144      1.0  0.10334000000000004  0.53071  0.06065  1.0000
  C   C145      1.0  0.00708000000000001  0.51481  0.09019  1.0000
  C   C146      1.0  0.15924000000000008  0.48149000000000003  0.98974  1.0000
  C   C147      1.0  0.03348000000000001  0.38222  0.00032  1.0000
  C   C148      1.0  0.12479000000000004  0.40521  0.9610999999999998  1.0000
  C   C149      1.0  0.03919000000000003  0.48614  0.05803  1.0000
  C   C150      1.0  0.18215000000000012  0.3610699999999999  0.83216  1.0000
  C   C151      1.0  0.16431999999999997  0.37418000000000007  0.87546  1.0000
  C   C152      1.0  0.10412000000000003  0.4256299999999999  0.84045  1.0000
  C   C153      1.0  0.22721000000000008  0.3325  0.82683  1.0000
  C   C154      1.0  0.9730100000000003  0.44506999999999997  0.05499999999999999  1.0000
  C   C155      1.0  0.9242100000000002  0.4087699999999999  0.11735  1.0000
  C   C156      1.0  0.9194600000000002  0.3799  0.15933  1.0000
  C   C157      1.0  0.8758100000000002  0.37183999999999995  0.18098  1.0000
  C   C158      1.0  0.8366300000000002  0.39286  0.16111  1.0000
  C   C159      1.0  0.8417200000000002  0.42188  0.11986  1.0000
  C   C160      1.0  0.8852200000000002  0.42967  0.09744  1.0000
  C   C161      1.0  0.8704400000000002  0.34237  0.22632  1.0000
  C   C162      1.0  0.28745000000000004  0.98858  0.19678  1.0000
  C   C163      1.0  0.2738  0.9895599999999998  0.15051  1.0000
  C   C164      1.0  0.27168  0.94797  0.13505  1.0000
  C   C165      1.0  0.26126  0.94854  0.09088  1.0000
  C   C166      1.0  0.25039  0.9905500000000002  0.06339  1.0000
  C   C167      1.0  0.25171  0.03153  0.07943  1.0000
  C   C168      1.0  0.26442000000000004  0.03134999999999999  0.12255  1.0000
  C   C169      1.0  0.12496000000000004  0.40632  0.8794699999999999  1.0000
  C   C170      1.0  0.2823500000000001  0.8669499999999998  0.09329  1.0000
  C   C171      1.0  0.29174  0.83196  0.06068  1.0000
  C   C172      1.0  0.26407  0.79671  0.06656  1.0000
  C   C173      1.0  0.22037  0.79921  0.10019999999999998  1.0000
  C   C174      1.0  0.27811000000000013  0.75958  0.04134  1.0000
  C   C175      1.0  0.31761000000000006  0.75926  0.00836  1.0000
  C   C176      1.0  0.33348000000000005  0.7193799999999998  0.9819  1.0000
  C   C177      1.0  0.33  0.83315  0.02622  1.0000
  C   C178      1.0  0.3567100000000002  0.87334  0.01633  1.0000
  C   C179      1.0  0.45841000000000004  0.75309  0.95104  1.0000
  C   C180      1.0  0.4903400000000001  0.7159  0.9658999999999999  1.0000
  C   C181      1.0  0.52977  0.70244  0.9366  1.0000
  C   C182      1.0  0.53863  0.72623  0.89251  1.0000
  C   C183      1.0  0.5062500000000002  0.7626599999999998  0.87766  1.0000
  C   C184      1.0  0.4658500000000002  0.7758299999999999  0.90652  1.0000
  C   C185      1.0  0.2561100000000001  0.7166  0.05406  1.0000
  C   C186      1.0  0.23185  0.6603199999999999  0.01834  1.0000
  C   C187      1.0  0.24003000000000008  0.6266799999999999  0.05565  1.0000
  C   C188      1.0  0.2241000000000001  0.56815  0.01462  1.0000
  C   C189      1.0  0.21462000000000012  0.60214  0.97801  1.0000
  C   C190      1.0  0.23609  0.58078  0.05374  1.0000
  C   C191      1.0  0.21817000000000006  0.64778  0.97971  1.0000
  C   C192      1.0  0.34229999999999994  0.79679  0.99992  1.0000
  C   C193      1.0  0.2438900000000001  0.54709  0.09497  1.0000
  C   C194      1.0  0.3832900000000001  0.79626  0.9634899999999998  1.0000
  C   C195      1.0  0.08486000000000005  0.4938799999999999  0.04317  1.0000
  C   C196      1.0  0.16080000000000003  0.37936  0.79351  1.0000
  C   C197      1.0  0.12184000000000002  0.41203  0.79802  1.0000
  C   C198      1.0  0.51269  0.78917  0.83153  1.0000
  C   C199      1.0  0.40469  0.8432  0.3741  1.0000
  C   C200      1.0  0.43078000000000016  0.80209  0.38976  1.0000
  C   C201      1.0  0.4684900000000001  0.8036299999999997  0.41149  1.0000
  C   C202      1.0  0.47997  0.84536  0.41774  1.0000
  C   C203      1.0  0.45337000000000016  0.88658  0.40235999999999994  1.0000
  C   C204      1.0  0.4158  0.88555  0.38037  1.0000
  C   C205      1.0  0.36532000000000003  0.84331  0.3492  1.0000
  C   C206      1.0  0.48952  0.0315  0.38728  1.0000
  C   C207      1.0  0.50317  0.06819000000000001  0.40365  1.0000
  C   C208      1.0  0.48662  0.07785  0.44854999999999995  1.0000
  C   C209      1.0  0.45803000000000016  0.04899  0.47742999999999997  1.0000
  C   C210      1.0  0.43935  0.96929  0.39666  1.0000
  C   C211      1.0  0.40980999999999995  0.98519  0.49291  1.0000
  C   C212      1.0  0.51026  0.01852  0.34076  1.0000
  C   C213      1.0  0.49968000000000007  0.11778  0.46651  1.0000
  C   C214      1.0  0.5389  0.09479000000000001  0.37521  1.0000
  C   C215      1.0  0.44197  0.01386000000000001  0.4608  1.0000
  C   C216      1.0  0.6678400000000002  0.13894  0.31784  1.0000
  C   C217      1.0  0.62454  0.12583000000000005  0.33568  1.0000
  C   C218      1.0  0.6595500000000002  0.07438000000000002  0.39588  1.0000
  C   C219      1.0  0.6731700000000003  0.16750999999999996  0.27278  1.0000
  C   C220      1.0  0.44500000000000023  0.05494  0.52698  1.0000
  C   C221      1.0  0.3826500000000001  0.09122999999999995  0.57579  1.0000
  C   C222      1.0  0.34067000000000003  0.12010999999999998  0.58054  1.0000
  C   C223      1.0  0.3190300000000001  0.12815999999999994  0.62419  1.0000
  C   C224      1.0  0.33888999999999997  0.10714000000000001  0.66337  1.0000
  C   C225      1.0  0.3801500000000001  0.07811999999999997  0.65828  1.0000
  C   C226      1.0  0.40256000000000014  0.07033  0.61477  1.0000
  C   C227      1.0  0.2736799999999999  0.15763  0.62957  1.0000
  C   C228      1.0  0.30321999999999993  0.51141  0.21255  1.0000
  C   C229      1.0  0.34949  0.51044  0.2262  1.0000
  C   C230      1.0  0.3649299999999999  0.55204  0.22833  1.0000
  C   C231      1.0  0.4091  0.55148  0.23874  1.0000
  C   C232      1.0  0.4366000000000002  0.50948  0.24962  1.0000
  C   C233      1.0  0.42058  0.4685  0.24829  1.0000
  C   C234      1.0  0.37746  0.46866  0.23557  1.0000
  C   C235      1.0  0.62053  0.09368  0.37504  1.0000
  C   C236      1.0  0.40669000000000005  0.63306  0.21763  1.0000
  C   C237      1.0  0.43930000000000025  0.66806  0.20824  1.0000
  C   C238      1.0  0.4334200000000002  0.70329  0.23592  1.0000
  C   C239      1.0  0.39979000000000015  0.70079  0.27962  1.0000
  C   C240      1.0  0.45866000000000007  0.74042  0.22189  1.0000
  C   C241      1.0  0.49164000000000024  0.74074  0.1824  1.0000
  C   C242      1.0  0.5181  0.78062  0.16652  1.0000
  C   C243      1.0  0.47376000000000007  0.66686  0.16999  1.0000
  C   C244      1.0  0.4836600000000002  0.6266699999999997  0.14328  1.0000
  C   C245      1.0  0.54895  0.74692  0.041589999999999995  1.0000
  C   C246      1.0  0.5340900000000002  0.7841  0.00966  1.0000
  C   C247      1.0  0.5633900000000002  0.79756  0.97022  1.0000
  C   C248      1.0  0.6074900000000002  0.77378  0.96137  1.0000
  C   C249      1.0  0.62233  0.73735  0.99375  1.0000
  C   C250      1.0  0.5934799999999999  0.72418  0.03415  1.0000
  C   C251      1.0  0.44594000000000017  0.7834  0.2439  1.0000
  C   C252      1.0  0.4816600000000001  0.8396699999999998  0.26815  1.0000
  C   C253      1.0  0.44434999999999997  0.87332  0.25996  1.0000
  C   C254      1.0  0.4853800000000001  0.9318499999999998  0.2758999999999999  1.0000
  C   C255      1.0  0.52199  0.89786  0.28537  1.0000
  C   C256      1.0  0.4462600000000001  0.9192099999999997  0.2639  1.0000
  C   C257      1.0  0.5202900000000003  0.8522199999999998  0.28182  1.0000
  C   C258      1.0  0.50007  0.70322  0.1577  1.0000
  C   C259      1.0  0.4050300000000002  0.9529  0.25611  1.0000
  C   C260      1.0  0.5365100000000002  0.7037499999999998  0.11671  1.0000
  C   C261      1.0  0.4568300000000001  0.006120000000000002  0.41514  1.0000
  C   C262      1.0  0.7064800000000002  0.12065  0.3392  1.0000
  C   C263      1.0  0.7019800000000003  0.08798  0.37816  1.0000
  C   C264      1.0  0.66846  0.71084  0.98731  1.0000
  C   C265      1.0  0.3741100000000002  0.40469  0.8432  1.0000
  C   C266      1.0  0.3897600000000002  0.43078999999999995  0.80209  1.0000
  C   C267      1.0  0.41149  0.4684900000000001  0.80363  1.0000
  C   C268      1.0  0.41774000000000006  0.47996999999999995  0.84536  1.0000
  C   C269      1.0  0.4023600000000002  0.45336999999999994  0.88658  1.0000
  C   C270      1.0  0.38036999999999993  0.41579999999999995  0.88555  1.0000
  C   C271      1.0  0.3492000000000002  0.36532  0.84331  1.0000
  C   C272      1.0  0.3872800000000003  0.48952  0.0315  1.0000
  C   C273      1.0  0.40366000000000013  0.50317  0.06818  1.0000
  C   C274      1.0  0.44856  0.4866299999999999  0.07785  1.0000
  C   C275      1.0  0.47742999999999997  0.45803  0.048979999999999996  1.0000
  C   C276      1.0  0.3966600000000001  0.4393499999999999  0.96929  1.0000
  C   C277      1.0  0.4929200000000002  0.40981999999999996  0.9851899999999999  1.0000
  C   C278      1.0  0.34076000000000006  0.51026  0.01852  1.0000
  C   C279      1.0  0.4665200000000001  0.4996799999999999  0.11778  1.0000
  C   C280      1.0  0.37522000000000005  0.53889  0.09479  1.0000
  C   C281      1.0  0.4608100000000001  0.44197  0.01385  1.0000
  C   C282      1.0  0.3178500000000001  0.66784  0.13894  1.0000
  C   C283      1.0  0.33568000000000014  0.62453  0.12583  1.0000
  C   C284      1.0  0.39588  0.65955  0.07438  1.0000
  C   C285      1.0  0.27279  0.67317  0.16751  1.0000
  C   C286      1.0  0.5269900000000002  0.445  0.05493  1.0000
  C   C287      1.0  0.5757900000000002  0.38265  0.09123  1.0000
  C   C288      1.0  0.5805300000000002  0.34067  0.1201  1.0000
  C   C289      1.0  0.62418  0.3190199999999999  0.12816  1.0000
  C   C290      1.0  0.66337  0.33889  0.10714  1.0000
  C   C291      1.0  0.6582800000000002  0.38014  0.07812  1.0000
  C   C292      1.0  0.61477  0.40255999999999986  0.07032  1.0000
  C   C293      1.0  0.62956  0.27368  0.15762  1.0000
  C   C294      1.0  0.21255000000000002  0.30323  0.51141  1.0000
  C   C295      1.0  0.2262  0.3495  0.51044  1.0000
  C   C296      1.0  0.22831999999999997  0.36495  0.55203  1.0000
  C   C297      1.0  0.23874  0.40912  0.55146  1.0000
  C   C298      1.0  0.24961  0.43661000000000005  0.50945  1.0000
  C   C299      1.0  0.24829000000000004  0.42057  0.46847  1.0000
  C   C300      1.0  0.23558000000000004  0.37746  0.46865  1.0000
  C   C301      1.0  0.3750400000000001  0.62053  0.09368  1.0000
  C   C302      1.0  0.2176500000000002  0.40671  0.63304  1.0000
  C   C303      1.0  0.20826000000000003  0.43933  0.66804  1.0000
  C   C304      1.0  0.2359300000000001  0.4334399999999999  0.70328  1.0000
  C   C305      1.0  0.27963000000000005  0.39979999999999993  0.7007899999999999  1.0000
  C   C306      1.0  0.22189  0.45866  0.7404099999999999  1.0000
  C   C307      1.0  0.18239  0.49165  0.74074  1.0000
  C   C308      1.0  0.16652000000000003  0.5181  0.78062  1.0000
  C   C309      1.0  0.17000000000000004  0.47378000000000003  0.66685  1.0000
  C   C310      1.0  0.14329  0.48367  0.6266599999999999  1.0000
  C   C311      1.0  0.04158999999999998  0.54896  0.74692  1.0000
  C   C312      1.0  0.009660000000000007  0.5341  0.7841  1.0000
  C   C313      1.0  0.9702200000000002  0.5634000000000001  0.79756  1.0000
  C   C314      1.0  0.9613700000000003  0.60749  0.77377  1.0000
  C   C315      1.0  0.9937500000000004  0.6223399999999998  0.73734  1.0000
  C   C316      1.0  0.03415000000000006  0.5934799999999998  0.72417  1.0000
  C   C317      1.0  0.24389000000000002  0.44593999999999995  0.7834  1.0000
  C   C318      1.0  0.2681500000000001  0.48166999999999993  0.83967  1.0000
  C   C319      1.0  0.25997000000000003  0.4443500000000001  0.8733199999999999  1.0000
  C   C320      1.0  0.2759  0.48538000000000003  0.93185  1.0000
  C   C321      1.0  0.28538  0.52199  0.89786  1.0000
  C   C322      1.0  0.26391000000000014  0.4462599999999999  0.91921  1.0000
  C   C323      1.0  0.28183000000000014  0.5202999999999998  0.85222  1.0000
  C   C324      1.0  0.15771000000000007  0.50008  0.70321  1.0000
  C   C325      1.0  0.2561100000000001  0.4050299999999999  0.9529  1.0000
  C   C326      1.0  0.11670999999999998  0.5365100000000002  0.70374  1.0000
  C   C327      1.0  0.4151400000000001  0.45683  0.00612  1.0000
  C   C328      1.0  0.3392000000000001  0.70648  0.12064  1.0000
  C   C329      1.0  0.37816  0.70198  0.08797  1.0000
  C   C330      1.0  0.9873099999999999  0.66847  0.71083  1.0000
  C   C331      1.0  0.8432000000000002  0.37411  0.40469  1.0000
  C   C332      1.0  0.8020900000000002  0.38976  0.43078  1.0000
  C   C333      1.0  0.8036200000000002  0.41149  0.46849  1.0000
  C   C334      1.0  0.8453700000000002  0.41775  0.47997  1.0000
  C   C335      1.0  0.8865800000000003  0.40235999999999994  0.45336  1.0000
  C   C336      1.0  0.88555  0.38037  0.41579  1.0000
  C   C337      1.0  0.8433100000000002  0.34921  0.36532  1.0000
  C   C338      1.0  0.031510000000000024  0.38727999999999996  0.48951999999999996  1.0000
  C   C339      1.0  0.06819000000000004  0.40366  0.50317  1.0000
  C   C340      1.0  0.07785  0.44856  0.48662  1.0000
  C   C341      1.0  0.048990000000000006  0.47743  0.45802999999999994  1.0000
  C   C342      1.0  0.9692900000000001  0.39665999999999996  0.43935  1.0000
  C   C343      1.0  0.9851900000000001  0.49291999999999997  0.40981  1.0000
  C   C344      1.0  0.01852000000000002  0.34076  0.51025  1.0000
  C   C345      1.0  0.11778000000000001  0.4665199999999999  0.49968  1.0000
  C   C346      1.0  0.09480000000000005  0.37521  0.53889  1.0000
  C   C347      1.0  0.013860000000000006  0.46081000000000005  0.4419699999999999  1.0000
  C   C348      1.0  0.13894000000000004  0.31785  0.66784  1.0000
  C   C349      1.0  0.12583000000000003  0.33568  0.62453  1.0000
  C   C350      1.0  0.07438000000000008  0.39588  0.65955  1.0000
  C   C351      1.0  0.16750999999999996  0.27279  0.67317  1.0000
  C   C352      1.0  0.054940000000000044  0.52698  0.44499999999999995  1.0000
  C   C353      1.0  0.09123000000000002  0.57579  0.38265  1.0000
  C   C354      1.0  0.12009999999999998  0.58054  0.34067  1.0000
  C   C355      1.0  0.12816  0.62419  0.31902  1.0000
  C   C356      1.0  0.10713999999999999  0.66337  0.33889  1.0000
  C   C357      1.0  0.07811000000000004  0.65828  0.38014  1.0000
  C   C358      1.0  0.07032000000000001  0.61477  0.40256  1.0000
  C   C359      1.0  0.15761999999999998  0.62957  0.27368  1.0000
  C   C360      1.0  0.5114200000000002  0.21254999999999993  0.30322000000000005  1.0000
  C   C361      1.0  0.5104400000000002  0.22621  0.34949  1.0000
  C   C362      1.0  0.55205  0.22833  0.36492  1.0000
  C   C363      1.0  0.5514900000000003  0.23874000000000004  0.40909  1.0000
  C   C364      1.0  0.50949  0.24962  0.43659  1.0000
  C   C365      1.0  0.4685  0.24828999999999998  0.42058  1.0000
  C   C366      1.0  0.46866  0.23557000000000003  0.37747  1.0000
  C   C367      1.0  0.09369  0.37504  0.62052  1.0000
  C   C368      1.0  0.63307  0.21761999999999998  0.40668  1.0000
  C   C369      1.0  0.66806  0.20824000000000004  0.4393  1.0000
  C   C370      1.0  0.7033  0.23592  0.43342  1.0000
  C   C371      1.0  0.7007900000000002  0.2796199999999999  0.39979  1.0000
  C   C372      1.0  0.7404200000000002  0.22188999999999998  0.45865999999999996  1.0000
  C   C373      1.0  0.7407400000000002  0.18240000000000003  0.49165  1.0000
  C   C374      1.0  0.78062  0.16653  0.5181  1.0000
  C   C375      1.0  0.6668700000000001  0.16998  0.47376  1.0000
  C   C376      1.0  0.62667  0.14327999999999996  0.48366  1.0000
  C   C377      1.0  0.7469200000000003  0.04159000000000001  0.54896  1.0000
  C   C378      1.0  0.7841000000000002  0.009659999999999992  0.5341  1.0000
  C   C379      1.0  0.79756  0.97023  0.5634  1.0000
  C   C380      1.0  0.77377  0.9613699999999997  0.60749  1.0000
  C   C381      1.0  0.7373500000000004  0.99376  0.62233  1.0000
  C   C382      1.0  0.72418  0.03416  0.59348  1.0000
  C   C383      1.0  0.7834000000000002  0.2439  0.44593999999999995  1.0000
  C   C384      1.0  0.83967  0.26815  0.48166  1.0000
  C   C385      1.0  0.8733200000000002  0.2599699999999999  0.44435  1.0000
  C   C386      1.0  0.9318500000000002  0.2759  0.48538  1.0000
  C   C387      1.0  0.8978600000000002  0.28537999999999997  0.52199  1.0000
  C   C388      1.0  0.9192100000000002  0.26391  0.44626  1.0000
  C   C389      1.0  0.8522200000000002  0.28183  0.52029  1.0000
  C   C390      1.0  0.70322  0.1577  0.50007  1.0000
  C   C391      1.0  0.9529100000000001  0.2561099999999999  0.40503  1.0000
  C   C392      1.0  0.70375  0.11672  0.53651  1.0000
  C   C393      1.0  0.006130000000000002  0.41514  0.45683  1.0000
  C   C394      1.0  0.12065000000000006  0.3392  0.70648  1.0000
  C   C395      1.0  0.08798000000000004  0.37816  0.70198  1.0000
  C   C396      1.0  0.71084  0.98731  0.66846  1.0000
  C   C397      1.0  0.34320000000000006  0.90469  0.8741  1.0000
  C   C398      1.0  0.30209000000000025  0.93079  0.88976  1.0000
  C   C399      1.0  0.30363000000000023  0.96849  0.91149  1.0000
  C   C400      1.0  0.34537  0.97997  0.9177399999999999  1.0000
  C   C401      1.0  0.38659000000000004  0.95337  0.90236  1.0000
  C   C402      1.0  0.38555  0.9158  0.88037  1.0000
  C   C403      1.0  0.34332  0.86532  0.8492  1.0000
  C   C404      1.0  0.53151  0.98952  0.88727  1.0000
  C   C405      1.0  0.56819  0.003180000000000013  0.9036499999999998  1.0000
  C   C406      1.0  0.5778500000000001  0.9866299999999999  0.94855  1.0000
  C   C407      1.0  0.54899  0.9580299999999999  0.97743  1.0000
  C   C408      1.0  0.4692899999999999  0.9393500000000001  0.89666  1.0000
  C   C409      1.0  0.48519  0.90982  0.99291  1.0000
  C   C410      1.0  0.51852  0.010259999999999991  0.84076  1.0000
  C   C411      1.0  0.61778  0.9996800000000001  0.96651  1.0000
  C   C412      1.0  0.59479  0.038899999999999976  0.87521  1.0000
  C   C413      1.0  0.5138599999999999  0.94197  0.9608  1.0000
  C   C414      1.0  0.63894  0.16784  0.81784  1.0000
  C   C415      1.0  0.6258300000000002  0.12454  0.83568  1.0000
  C   C416      1.0  0.57438  0.15955  0.89588  1.0000
  C   C417      1.0  0.66751  0.17318  0.77279  1.0000
  C   C418      1.0  0.5549300000000003  0.9449999999999997  0.02698  1.0000
  C   C419      1.0  0.59123  0.8826499999999998  0.07579  1.0000
  C   C420      1.0  0.6201000000000001  0.84067  0.08054  1.0000
  C   C421      1.0  0.62815  0.81902  0.12419  1.0000
  C   C422      1.0  0.60714  0.83889  0.16337  1.0000
  C   C423      1.0  0.57811  0.88014  0.15827999999999998  1.0000
  C   C424      1.0  0.57032  0.90256  0.11477  1.0000
  C   C425      1.0  0.6576200000000002  0.77368  0.12957  1.0000
  C   C426      1.0  0.011420000000000008  0.80322  0.71255  1.0000
  C   C427      1.0  0.010450000000000053  0.84949  0.7262  1.0000
  C   C428      1.0  0.05205000000000003  0.8649299999999998  0.72833  1.0000
  C   C429      1.0  0.05149  0.9091  0.73874  1.0000
  C   C430      1.0  0.00949000000000003  0.93659  0.74962  1.0000
  C   C431      1.0  0.9685000000000001  0.92058  0.74829  1.0000
  C   C432      1.0  0.96866  0.87747  0.73557  1.0000
  C   C433      1.0  0.5936900000000003  0.12052999999999998  0.87504  1.0000
  C   C434      1.0  0.13307  0.90669  0.71762  1.0000
  C   C435      1.0  0.16806000000000001  0.9393  0.70823  1.0000
  C   C436      1.0  0.2033000000000001  0.9334199999999998  0.73591  1.0000
  C   C437      1.0  0.20079000000000002  0.89979  0.77962  1.0000
  C   C438      1.0  0.2404200000000001  0.95866  0.72188  1.0000
  C   C439      1.0  0.24074000000000012  0.9916499999999997  0.68239  1.0000
  C   C440      1.0  0.28062000000000004  0.01811  0.66652  1.0000
  C   C441      1.0  0.16687000000000002  0.97377  0.66998  1.0000
  C   C442      1.0  0.12667000000000006  0.9836599999999999  0.64328  1.0000
  C   C443      1.0  0.24692000000000008  0.048960000000000004  0.54159  1.0000
  C   C444      1.0  0.2841  0.034100000000000005  0.50966  1.0000
  C   C445      1.0  0.29756  0.06340000000000001  0.4702299999999999  1.0000
  C   C446      1.0  0.27377  0.10749000000000002  0.46136999999999995  1.0000
  C   C447      1.0  0.23735  0.12234000000000002  0.49375  1.0000
  C   C448      1.0  0.22418000000000007  0.09349  0.53415  1.0000
  C   C449      1.0  0.28340000000000004  0.94594  0.74389  1.0000
  C   C450      1.0  0.33968  0.9816700000000002  0.76815  1.0000
  C   C451      1.0  0.37332000000000015  0.94435  0.75997  1.0000
  C   C452      1.0  0.43185  0.9853799999999998  0.7759  1.0000
  C   C453      1.0  0.3978700000000001  0.022000000000000002  0.78538  1.0000
  C   C454      1.0  0.41922  0.94626  0.76391  1.0000
  C   C455      1.0  0.35222  0.020299999999999995  0.78183  1.0000
  C   C456      1.0  0.2032200000000001  8.000000000000308e-05  0.6577  1.0000
  C   C457      1.0  0.45291000000000015  0.90503  0.75611  1.0000
  C   C458      1.0  0.20375  0.03652  0.61671  1.0000
  C   C459      1.0  0.50612  0.95683  0.91514  1.0000
  C   C460      1.0  0.6206400000000002  0.20649  0.8392  1.0000
  C   C461      1.0  0.5879700000000002  0.20197999999999997  0.87815  1.0000
  C   C462      1.0  0.21084000000000003  0.16847  0.48731  1.0000
  C   C463      1.0  0.9046900000000004  0.87411  0.3432  1.0000
  C   C464      1.0  0.9307800000000002  0.8897599999999999  0.30209  1.0000
  C   C465      1.0  0.96849  0.91149  0.30362  1.0000
  C   C466      1.0  0.9799700000000005  0.91775  0.34536  1.0000
  C   C467      1.0  0.95336  0.90236  0.38658  1.0000
  C   C468      1.0  0.91579  0.88037  0.38555  1.0000
  C   C469      1.0  0.86532  0.8492  0.34331  1.0000
  C   C470      1.0  0.98952  0.8872799999999997  0.5315  1.0000
  C   C471      1.0  0.0031699999999999853  0.90365  0.56818  1.0000
  C   C472      1.0  0.9866200000000003  0.94855  0.57785  1.0000
  C   C473      1.0  0.9580300000000004  0.9774300000000001  0.5489899999999999  1.0000
  C   C474      1.0  0.9393500000000005  0.89666  0.46928999999999993  1.0000
  C   C475      1.0  0.9098100000000002  0.9929199999999998  0.48518  1.0000
  C   C476      1.0  0.010260000000000031  0.84076  0.51852  1.0000
  C   C477      1.0  0.9996800000000002  0.9665100000000001  0.61778  1.0000
  C   C478      1.0  0.03890000000000001  0.87521  0.59479  1.0000
  C   C479      1.0  0.9419700000000001  0.96081  0.51385  1.0000
  C   C480      1.0  0.16784000000000002  0.8178499999999999  0.63893  1.0000
  C   C481      1.0  0.12453999999999997  0.83568  0.62582  1.0000
  C   C482      1.0  0.15955000000000003  0.8958799999999998  0.57438  1.0000
  C   C483      1.0  0.17317  0.77279  0.6675  1.0000
  C   C484      1.0  0.9450000000000002  0.026980000000000004  0.55493  1.0000
  C   C485      1.0  0.8826500000000003  0.07579  0.59123  1.0000
  C   C486      1.0  0.84067  0.08053999999999999  0.6201  1.0000
  C   C487      1.0  0.81903  0.12418999999999997  0.62815  1.0000
  C   C488      1.0  0.8388900000000002  0.16337  0.60714  1.0000
  C   C489      1.0  0.8801500000000001  0.15828  0.57812  1.0000
  C   C490      1.0  0.90256  0.11476999999999994  0.57032  1.0000
  C   C491      1.0  0.77368  0.12957  0.65762  1.0000
  C   C492      1.0  0.8032200000000003  0.71255  0.01141  1.0000
  C   C493      1.0  0.8494900000000002  0.7262  0.01044  1.0000
  C   C494      1.0  0.8649300000000002  0.72833  0.05204  1.0000
  C   C495      1.0  0.9091  0.7387399999999997  0.05148  1.0000
  C   C496      1.0  0.9365900000000001  0.74962  0.00948  1.0000
  C   C497      1.0  0.9205800000000003  0.74829  0.9685  1.0000
  C   C498      1.0  0.8774600000000004  0.73558  0.96866  1.0000
  C   C499      1.0  0.12053  0.87504  0.59368  1.0000
  C   C500      1.0  0.9066800000000003  0.71763  0.13306  1.0000
  C   C501      1.0  0.9393  0.7082399999999999  0.16806  1.0000
  C   C502      1.0  0.93342  0.73592  0.20329  1.0000
  C   C503      1.0  0.8997900000000002  0.77962  0.20079  1.0000
  C   C504      1.0  0.9586500000000003  0.72189  0.24042  1.0000
  C   C505      1.0  0.9916399999999999  0.6824000000000001  0.24074  1.0000
  C   C506      1.0  0.018100000000000022  0.6665199999999998  0.28062  1.0000
  C   C507      1.0  0.9737600000000001  0.66999  0.16686  1.0000
  C   C508      1.0  0.98365  0.64328  0.12667  1.0000
  C   C509      1.0  0.04895000000000002  0.54159  0.24692  1.0000
  C   C510      1.0  0.03409  0.50966  0.2841  1.0000
  C   C511      1.0  0.06340000000000001  0.4702299999999999  0.29756  1.0000
  C   C512      1.0  0.10748999999999999  0.46137  0.27377  1.0000
  C   C513      1.0  0.12233000000000001  0.49375  0.23735  1.0000
  C   C514      1.0  0.09348  0.53415  0.22418  1.0000
  C   C515      1.0  0.9459400000000003  0.7438999999999998  0.2834  1.0000
  C   C516      1.0  0.98166  0.76815  0.33967  1.0000
  C   C517      1.0  0.9443400000000005  0.7599699999999998  0.37332  1.0000
  C   C518      1.0  0.9853800000000001  0.7758999999999998  0.43185  1.0000
  C   C519      1.0  0.021990000000000003  0.78537  0.39786  1.0000
  C   C520      1.0  0.9462600000000004  0.76391  0.41921  1.0000
  C   C521      1.0  0.020290000000000013  0.78183  0.35222  1.0000
  C   C522      1.0  7.00000000000218e-05  0.6576999999999998  0.20322  1.0000
  C   C523      1.0  0.9050300000000001  0.75611  0.4529  1.0000
  C   C524      1.0  0.036510000000000015  0.61671  0.20375  1.0000
  C   C525      1.0  0.9568300000000003  0.91514  0.50612  1.0000
  C   C526      1.0  0.20649000000000003  0.8392  0.62064  1.0000
  C   C527      1.0  0.2019800000000001  0.87816  0.58797  1.0000
  C   C528      1.0  0.1684600000000001  0.48730999999999997  0.21083  1.0000
  C   C529      1.0  0.8741  0.3432  0.90469  1.0000
  C   C530      1.0  0.88976  0.30208999999999997  0.93078  1.0000
  C   C531      1.0  0.9114900000000005  0.30363  0.9684899999999997  1.0000
  C   C532      1.0  0.9177400000000003  0.3453699999999999  0.9799699999999999  1.0000
  C   C533      1.0  0.90236  0.38659  0.95336  1.0000
  C   C534      1.0  0.88037  0.38555  0.91579  1.0000
  C   C535      1.0  0.8492000000000001  0.3433199999999999  0.86532  1.0000
  C   C536      1.0  0.8872799999999998  0.5314999999999998  0.98952  1.0000
  C   C537      1.0  0.9036600000000002  0.56818  0.00317  1.0000
  C   C538      1.0  0.94856  0.57785  0.98662  1.0000
  C   C539      1.0  0.9774300000000004  0.54899  0.95803  1.0000
  C   C540      1.0  0.8966599999999999  0.46929999999999994  0.93935  1.0000
  C   C541      1.0  0.9929200000000004  0.48519000000000007  0.90981  1.0000
  C   C542      1.0  0.84076  0.51852  0.01026  1.0000
  C   C543      1.0  0.9665200000000002  0.6177799999999999  0.9996799999999999  1.0000
  C   C544      1.0  0.8752100000000003  0.59479  0.03889  1.0000
  C   C545      1.0  0.9608100000000005  0.5138600000000002  0.94197  1.0000
  C   C546      1.0  0.81785  0.6389399999999998  0.16784  1.0000
  C   C547      1.0  0.8356800000000002  0.62583  0.12453  1.0000
  C   C548      1.0  0.8958800000000002  0.57438  0.15955  1.0000
  C   C549      1.0  0.7727900000000002  0.66751  0.17317  1.0000
  C   C550      1.0  0.02699000000000001  0.55493  0.945  1.0000
  C   C551      1.0  0.07579000000000001  0.59123  0.88265  1.0000
  C   C552      1.0  0.08054  0.62011  0.84067  1.0000
  C   C553      1.0  0.12418  0.62816  0.81902  1.0000
  C   C554      1.0  0.16337  0.60715  0.83888  1.0000
  C   C555      1.0  0.15827999999999998  0.5781200000000001  0.88014  1.0000
  C   C556      1.0  0.11478000000000003  0.57033  0.90256  1.0000
  C   C557      1.0  0.12956000000000006  0.6576299999999999  0.77368  1.0000
  C   C558      1.0  0.71255  0.01142  0.80322  1.0000
  C   C559      1.0  0.7262  0.010440000000000003  0.84949  1.0000
  C   C560      1.0  0.72832  0.052030000000000014  0.86495  1.0000
  C   C561      1.0  0.7387400000000001  0.05146  0.90912  1.0000
  C   C562      1.0  0.74961  0.009450000000000012  0.9366  1.0000
  C   C563      1.0  0.7482900000000001  0.9684700000000002  0.92057  1.0000
  C   C564      1.0  0.73558  0.9686499999999999  0.87745  1.0000
  C   C565      1.0  0.8750400000000003  0.59368  0.12053  1.0000
  C   C566      1.0  0.7176499999999999  0.13305  0.9067  1.0000
  C   C567      1.0  0.70826  0.16804000000000002  0.93932  1.0000
  C   C568      1.0  0.7359300000000002  0.20329  0.93344  1.0000
  C   C569      1.0  0.77963  0.20079000000000002  0.8997999999999998  1.0000
  C   C570      1.0  0.7218900000000001  0.24041999999999997  0.95866  1.0000
  C   C571      1.0  0.68239  0.24074  0.99164  1.0000
  C   C572      1.0  0.66652  0.28062999999999994  0.0181  1.0000
  C   C573      1.0  0.6700000000000003  0.16686000000000004  0.97377  1.0000
  C   C574      1.0  0.6432900000000001  0.12666  0.98367  1.0000
  C   C575      1.0  0.54159  0.24692  0.04896  1.0000
  C   C576      1.0  0.50966  0.2841  0.0341  1.0000
  C   C577      1.0  0.47022000000000014  0.29756  0.0634  1.0000
  C   C578      1.0  0.4613700000000002  0.27377  0.10749  1.0000
  C   C579      1.0  0.49375000000000024  0.23734  0.12233  1.0000
  C   C580      1.0  0.53415  0.22418  0.09348  1.0000
  C   C581      1.0  0.7438900000000004  0.2834  0.94594  1.0000
  C   C582      1.0  0.7681500000000002  0.33968  0.98166  1.0000
  C   C583      1.0  0.7599600000000003  0.37332  0.94434  1.0000
  C   C584      1.0  0.7759  0.43185  0.98537  1.0000
  C   C585      1.0  0.7853800000000002  0.39786  0.02199  1.0000
  C   C586      1.0  0.76391  0.4192199999999999  0.94625  1.0000
  C   C587      1.0  0.78183  0.35222  0.02029  1.0000
  C   C588      1.0  0.6577000000000002  0.20322  7e-05  1.0000
  C   C589      1.0  0.7561100000000002  0.45291  0.9050199999999999  1.0000
  C   C590      1.0  0.61671  0.20374999999999996  0.03651  1.0000
  C   C591      1.0  0.91514  0.50612  0.9568299999999998  1.0000
  C   C592      1.0  0.8392  0.62064  0.20648  1.0000
  C   C593      1.0  0.8781600000000003  0.58797  0.20198  1.0000
  C   C594      1.0  0.4873100000000002  0.21084  0.16847  1.0000
  C   C595      1.0  0.5953100000000002  0.15679999999999997  0.62589  1.0000
  C   C596      1.0  0.5692100000000002  0.19791  0.61024  1.0000
  C   C597      1.0  0.53151  0.19637999999999997  0.58851  1.0000
  C   C598      1.0  0.52003  0.15464  0.58225  1.0000
  C   C599      1.0  0.5466300000000002  0.11342000000000002  0.59763  1.0000
  C   C600      1.0  0.5842  0.11445  0.61963  1.0000
  C   C601      1.0  0.6346800000000001  0.15669  0.65079  1.0000
  C   C602      1.0  0.51048  0.9685  0.61272  1.0000
  C   C603      1.0  0.49683000000000005  0.93182  0.59634  1.0000
  C   C604      1.0  0.51337  0.92215  0.55145  1.0000
  C   C605      1.0  0.54197  0.95101  0.52257  1.0000
  C   C606      1.0  0.5606500000000002  0.030709999999999998  0.60334  1.0000
  C   C607      1.0  0.5901800000000003  0.014820000000000002  0.50708  1.0000
  C   C608      1.0  0.48974000000000023  0.98148  0.65924  1.0000
  C   C609      1.0  0.5003200000000002  0.88222  0.53349  1.0000
  C   C610      1.0  0.46110000000000034  0.90521  0.62479  1.0000
  C   C611      1.0  0.5580300000000002  0.98614  0.53919  1.0000
  C   C612      1.0  0.33216000000000023  0.86107  0.68215  1.0000
  C   C613      1.0  0.37546000000000007  0.8741799999999998  0.66432  1.0000
  C   C614      1.0  0.3404499999999999  0.92562  0.60412  1.0000
  C   C615      1.0  0.32683000000000006  0.8325  0.72721  1.0000
  C   C616      1.0  0.5550000000000003  0.94506  0.47302  1.0000
  C   C617      1.0  0.6173500000000002  0.90877  0.42421  1.0000
  C   C618      1.0  0.6593300000000004  0.8799  0.41945999999999994  1.0000
  C   C619      1.0  0.6809700000000002  0.87184  0.37581  1.0000
  C   C620      1.0  0.66111  0.89286  0.33663  1.0000
  C   C621      1.0  0.61985  0.9218800000000001  0.34172  1.0000
  C   C622      1.0  0.5974400000000002  0.9296799999999998  0.38523  1.0000
  C   C623      1.0  0.7263200000000002  0.8423799999999999  0.37043  1.0000
  C   C624      1.0  0.6967800000000002  0.48859  0.78744  1.0000
  C   C625      1.0  0.65051  0.48956  0.7738  1.0000
  C   C626      1.0  0.6350700000000002  0.44796  0.7716699999999999  1.0000
  C   C627      1.0  0.5909000000000003  0.44852  0.7612499999999999  1.0000
  C   C628      1.0  0.5634000000000002  0.49051999999999996  0.75038  1.0000
  C   C629      1.0  0.5794199999999999  0.5315  0.75171  1.0000
  C   C630      1.0  0.6225300000000004  0.5313399999999999  0.76443  1.0000
  C   C631      1.0  0.37947  0.90632  0.62496  1.0000
  C   C632      1.0  0.5933099999999999  0.3669399999999999  0.78237  1.0000
  C   C633      1.0  0.5606900000000002  0.33195  0.79176  1.0000
  C   C634      1.0  0.56658  0.29671  0.76408  1.0000
  C   C635      1.0  0.60021  0.2992099999999999  0.72038  1.0000
  C   C636      1.0  0.54134  0.25959  0.77811  1.0000
  C   C637      1.0  0.50836  0.25925999999999993  0.8176  1.0000
  C   C638      1.0  0.48190000000000016  0.21937999999999996  0.83347  1.0000
  C   C639      1.0  0.5262400000000003  0.33314  0.83001  1.0000
  C   C640      1.0  0.51634  0.37334  0.85671  1.0000
  C   C641      1.0  0.4510500000000002  0.25309  0.95841  1.0000
  C   C642      1.0  0.46591000000000005  0.21589999999999998  0.99034  1.0000
  C   C643      1.0  0.4366000000000001  0.20243999999999995  0.02977  1.0000
  C   C644      1.0  0.39251000000000025  0.22623  0.03863  1.0000
  C   C645      1.0  0.3776700000000001  0.26265  0.00625  1.0000
  C   C646      1.0  0.40652000000000005  0.27583  0.96585  1.0000
  C   C647      1.0  0.5540600000000002  0.2166  0.7561  1.0000
  C   C648      1.0  0.51834  0.16033000000000003  0.7318499999999999  1.0000
  C   C649      1.0  0.5556500000000002  0.12668999999999994  0.74003  1.0000
  C   C650      1.0  0.51462  0.06815000000000002  0.7241  1.0000
  C   C651      1.0  0.47801000000000016  0.10213999999999998  0.71462  1.0000
  C   C652      1.0  0.5537400000000002  0.08078999999999999  0.73609  1.0000
  C   C653      1.0  0.4797100000000001  0.14778  0.71817  1.0000
  C   C654      1.0  0.4999300000000002  0.29677999999999993  0.84229  1.0000
  C   C655      1.0  0.59497  0.04709999999999999  0.74389  1.0000
  C   C656      1.0  0.46349  0.29626  0.88328  1.0000
  C   C657      1.0  0.54317  0.99388  0.58486  1.0000
  C   C658      1.0  0.2935100000000001  0.8793599999999998  0.6608  1.0000
  C   C659      1.0  0.29802000000000006  0.9120299999999998  0.62184  1.0000
  C   C660      1.0  0.33154000000000006  0.28916  0.01269  1.0000
  C   C661      1.0  0.6258900000000001  0.59531  0.1568  1.0000
  C   C662      1.0  0.6102400000000002  0.56922  0.19791  1.0000
  C   C663      1.0  0.5885100000000002  0.5315099999999998  0.19637  1.0000
  C   C664      1.0  0.5822500000000002  0.52003  0.15462999999999996  1.0000
  C   C665      1.0  0.59763  0.54663  0.11342  1.0000
  C   C666      1.0  0.6196299999999999  0.5842  0.11445  1.0000
  C   C667      1.0  0.65079  0.6346799999999999  0.15668  1.0000
  C   C668      1.0  0.6127200000000003  0.51048  0.9685  1.0000
  C   C669      1.0  0.5963400000000002  0.49683000000000005  0.93182  1.0000
  C   C670      1.0  0.5514399999999999  0.51338  0.92215  1.0000
  C   C671      1.0  0.52256  0.54197  0.95101  1.0000
  C   C672      1.0  0.6033400000000002  0.56065  0.03071  1.0000
  C   C673      1.0  0.5070800000000002  0.5901899999999998  0.01481  1.0000
  C   C674      1.0  0.6592400000000003  0.48975  0.98148  1.0000
  C   C675      1.0  0.53348  0.50032  0.88222  1.0000
  C   C676      1.0  0.62478  0.46110999999999996  0.90521  1.0000
  C   C677      1.0  0.5391900000000002  0.5580299999999999  0.98614  1.0000
  C   C678      1.0  0.6821500000000001  0.33216  0.86106  1.0000
  C   C679      1.0  0.6643200000000002  0.37547  0.87417  1.0000
  C   C680      1.0  0.60412  0.34045  0.92562  1.0000
  C   C681      1.0  0.7272100000000004  0.3268299999999999  0.83249  1.0000
  C   C682      1.0  0.4730099999999998  0.555  0.94507  1.0000
  C   C683      1.0  0.4242099999999999  0.61735  0.90877  1.0000
  C   C684      1.0  0.4194700000000001  0.65933  0.8798899999999998  1.0000
  C   C685      1.0  0.3758200000000002  0.68098  0.87184  1.0000
  C   C686      1.0  0.33663000000000015  0.66112  0.89285  1.0000
  C   C687      1.0  0.34171999999999997  0.61986  0.92188  1.0000
  C   C688      1.0  0.3852200000000003  0.5974399999999997  0.92967  1.0000
  C   C689      1.0  0.37044  0.72632  0.84237  1.0000
  C   C690      1.0  0.7874500000000002  0.69678  0.48857999999999996  1.0000
  C   C691      1.0  0.7738000000000002  0.65051  0.48956  1.0000
  C   C692      1.0  0.7716800000000003  0.6350499999999999  0.44797  1.0000
  C   C693      1.0  0.7612600000000003  0.5908800000000002  0.4485399999999999  1.0000
  C   C694      1.0  0.7503800000000003  0.56339  0.49055  1.0000
  C   C695      1.0  0.7517100000000002  0.5794299999999999  0.53153  1.0000
  C   C696      1.0  0.7644200000000002  0.6225500000000002  0.53135  1.0000
  C   C697      1.0  0.62496  0.37948000000000004  0.90631  1.0000
  C   C698      1.0  0.7823500000000002  0.5933  0.36695  1.0000
  C   C699      1.0  0.7917400000000002  0.56068  0.33196  1.0000
  C   C700      1.0  0.76407  0.56656  0.29671  1.0000
  C   C701      1.0  0.7203700000000002  0.6002  0.29921  1.0000
  C   C702      1.0  0.7781100000000002  0.54134  0.25958  1.0000
  C   C703      1.0  0.8176  0.50836  0.25926  1.0000
  C   C704      1.0  0.8334800000000002  0.4819  0.21937  1.0000
  C   C705      1.0  0.8300000000000002  0.52622  0.33315  1.0000
  C   C706      1.0  0.85671  0.51633  0.37334  1.0000
  C   C707      1.0  0.9584100000000002  0.45104  0.25308  1.0000
  C   C708      1.0  0.9903400000000004  0.4659  0.2159  1.0000
  C   C709      1.0  0.029770000000000005  0.4366  0.20244  1.0000
  C   C710      1.0  0.03863000000000003  0.39250999999999986  0.22623  1.0000
  C   C711      1.0  0.006250000000000015  0.3776699999999999  0.26265  1.0000
  C   C712      1.0  0.96584  0.40652  0.27582  1.0000
  C   C713      1.0  0.7561  0.55406  0.2166  1.0000
  C   C714      1.0  0.7318500000000002  0.51834  0.16032  1.0000
  C   C715      1.0  0.7400300000000002  0.5556499999999998  0.12668  1.0000
  C   C716      1.0  0.7241000000000002  0.51462  0.06815  1.0000
  C   C717      1.0  0.71462  0.47801  0.10214  1.0000
  C   C718      1.0  0.7360900000000002  0.55374  0.08078  1.0000
  C   C719      1.0  0.7181700000000002  0.47971  0.14778  1.0000
  C   C720      1.0  0.84229  0.49993  0.29678  1.0000
  C   C721      1.0  0.7438900000000003  0.59497  0.04708999999999999  1.0000
  C   C722      1.0  0.8832900000000002  0.46349  0.29625  1.0000
  C   C723      1.0  0.5848600000000004  0.5431700000000002  0.99388  1.0000
  C   C724      1.0  0.6608  0.29352  0.87935  1.0000
  C   C725      1.0  0.62184  0.29802  0.91202  1.0000
  C   C726      1.0  0.012689999999999993  0.33153  0.28916  1.0000
  C   C727      1.0  0.15679999999999997  0.6259  0.59531  1.0000
  C   C728      1.0  0.1979100000000001  0.61024  0.5692099999999999  1.0000
  C   C729      1.0  0.19637000000000004  0.58851  0.53151  1.0000
  C   C730      1.0  0.15462999999999996  0.58226  0.52003  1.0000
  C   C731      1.0  0.11342000000000009  0.59764  0.54663  1.0000
  C   C732      1.0  0.1144500000000001  0.61963  0.5842  1.0000
  C   C733      1.0  0.15669  0.6508  0.63468  1.0000
  C   C734      1.0  0.9684900000000003  0.61273  0.51048  1.0000
  C   C735      1.0  0.9318100000000001  0.59635  0.49683  1.0000
  C   C736      1.0  0.9221400000000001  0.55145  0.51337  1.0000
  C   C737      1.0  0.9510100000000004  0.52257  0.54197  1.0000
  C   C738      1.0  0.030710000000000015  0.60334  0.56065  1.0000
  C   C739      1.0  0.014810000000000007  0.50709  0.5901799999999999  1.0000
  C   C740      1.0  0.98147  0.65924  0.48974  1.0000
  C   C741      1.0  0.88221  0.53349  0.50032  1.0000
  C   C742      1.0  0.9052  0.62479  0.4611  1.0000
  C   C743      1.0  0.9861400000000001  0.5392000000000002  0.55803  1.0000
  C   C744      1.0  0.8610600000000003  0.6821499999999998  0.33216  1.0000
  C   C745      1.0  0.8741700000000002  0.66432  0.37546  1.0000
  C   C746      1.0  0.9256200000000003  0.60412  0.34045  1.0000
  C   C747      1.0  0.8324900000000002  0.72721  0.32683  1.0000
  C   C748      1.0  0.94506  0.4730199999999998  0.555  1.0000
  C   C749      1.0  0.9087700000000001  0.4242099999999999  0.61735  1.0000
  C   C750      1.0  0.87989  0.41947  0.65932  1.0000
  C   C751      1.0  0.8718400000000002  0.37582  0.6809699999999999  1.0000
  C   C752      1.0  0.8928600000000002  0.33663  0.66111  1.0000
  C   C753      1.0  0.9218800000000005  0.34172  0.61986  1.0000
  C   C754      1.0  0.9296800000000001  0.38522999999999996  0.59744  1.0000
  C   C755      1.0  0.84238  0.37044  0.7263199999999999  1.0000
  C   C756      1.0  0.4885800000000001  0.78745  0.69678  1.0000
  C   C757      1.0  0.48955000000000004  0.7737999999999998  0.65051  1.0000
  C   C758      1.0  0.44795000000000024  0.77167  0.63507  1.0000
  C   C759      1.0  0.44850999999999996  0.76126  0.5909  1.0000
  C   C760      1.0  0.4905100000000002  0.75038  0.56341  1.0000
  C   C761      1.0  0.53149  0.75171  0.57942  1.0000
  C   C762      1.0  0.5313400000000001  0.76443  0.62253  1.0000
  C   C763      1.0  0.90631  0.6249599999999998  0.37947  1.0000
  C   C764      1.0  0.36693  0.78238  0.59331  1.0000
  C   C765      1.0  0.33194  0.79177  0.5607  1.0000
  C   C766      1.0  0.2967000000000001  0.7640899999999999  0.56658  1.0000
  C   C767      1.0  0.2992100000000001  0.72038  0.60021  1.0000
  C   C768      1.0  0.25958  0.77812  0.54134  1.0000
  C   C769      1.0  0.25926  0.8176  0.50835  1.0000
  C   C770      1.0  0.2193800000000001  0.8334699999999999  0.48189  1.0000
  C   C771      1.0  0.33313000000000015  0.8300199999999998  0.52623  1.0000
  C   C772      1.0  0.3733300000000001  0.8567199999999999  0.51634  1.0000
  C   C773      1.0  0.2530800000000001  0.9584099999999999  0.45104  1.0000
  C   C774      1.0  0.2159000000000001  0.99034  0.4659  1.0000
  C   C775      1.0  0.20244000000000012  0.029779999999999997  0.4366  1.0000
  C   C776      1.0  0.22623  0.03862999999999999  0.39251  1.0000
  C   C777      1.0  0.26265  0.006250000000000001  0.37766  1.0000
  C   C778      1.0  0.27582  0.96585  0.40652  1.0000
  C   C779      1.0  0.2166  0.75611  0.55406  1.0000
  C   C780      1.0  0.16033  0.73185  0.51834  1.0000
  C   C781      1.0  0.12668  0.74003  0.55565  1.0000
  C   C782      1.0  0.06815000000000002  0.7241  0.51462  1.0000
  C   C783      1.0  0.10214000000000006  0.71462  0.478  1.0000
  C   C784      1.0  0.08079  0.73609  0.55374  1.0000
  C   C785      1.0  0.14778000000000008  0.71817  0.4797  1.0000
  C   C786      1.0  0.2967800000000001  0.8423  0.49992  1.0000
  C   C787      1.0  0.04709  0.74389  0.59497  1.0000
  C   C788      1.0  0.29625  0.88329  0.46349  1.0000
  C   C789      1.0  0.9938700000000001  0.58486  0.54317  1.0000
  C   C790      1.0  0.8793499999999999  0.6607999999999999  0.29351  1.0000
  C   C791      1.0  0.9120200000000002  0.62184  0.29802  1.0000
  C   C792      1.0  0.2891600000000001  0.01269  0.33153  1.0000
  O   O1        1.0  0.5607800000000002  0.12969  0.2545  1.0000
  O   O2        1.0  0.50426  0.0956  0.24046  1.0000
  O   O3        1.0  0.7054800000000002  0.016240000000000004  0.23645  1.0000
  O   O4        1.0  0.7654000000000004  0.9822299999999998  0.42125  1.0000
  O   O5        1.0  0.81222  0.81532  0.47643  1.0000
  O   O6        1.0  0.6186700000000003  0.15831  0.163  1.0000
  O   O7        1.0  0.6959300000000003  0.14277  0.1586  1.0000
  O   O8        1.0  0.9102400000000003  0.07115999999999999  0.26094  1.0000
  O   O9        1.0  0.9554100000000002  0.22752000000000003  0.27855  1.0000
  O   O10       1.0  0.02232000000000001  0.20114999999999994  0.30806  1.0000
  O   O11       1.0  0.57407  0.03318  0.08923  1.0000
  O   O12       1.0  0.42216000000000004  0.91925  0.10449  1.0000
  O   O13       1.0  0.41500000000000004  0.09847999999999998  0.96813  1.0000
  O   O14       1.0  0.34137  0.24534000000000003  0.82826  1.0000
  O   O15       1.0  0.32138  0.2430899999999999  0.9057  1.0000
  O   O16       1.0  0.3187100000000001  0.8617199999999998  0.24876999999999996  1.0000
  O   O17       1.0  0.32371000000000016  0.7873299999999998  0.24767999999999998  1.0000
  O   O18       1.0  0.7926000000000001  0.80761  0.55151  1.0000
  O   O19       1.0  0.12969000000000008  0.2545  0.56079  1.0000
  O   O20       1.0  0.0956  0.24046  0.50427  1.0000
  O   O21       1.0  0.01624000000000002  0.23645000000000002  0.7054799999999999  1.0000
  O   O22       1.0  0.9822300000000004  0.42126  0.7654  1.0000
  O   O23       1.0  0.81533  0.4764299999999999  0.81222  1.0000
  O   O24       1.0  0.15830999999999998  0.163  0.61867  1.0000
  O   O25       1.0  0.14276999999999998  0.15860000000000002  0.69593  1.0000
  O   O26       1.0  0.07115000000000006  0.2609399999999999  0.91025  1.0000
  O   O27       1.0  0.22752000000000003  0.27855  0.95541  1.0000
  O   O28       1.0  0.20115  0.30806  0.02232  1.0000
  O   O29       1.0  0.033180000000000015  0.08922999999999995  0.57407  1.0000
  O   O30       1.0  0.9192500000000002  0.10449  0.42216  1.0000
  O   O31       1.0  0.09848000000000003  0.96813  0.415  1.0000
  O   O32       1.0  0.24533999999999997  0.82826  0.34137  1.0000
  O   O33       1.0  0.24308000000000007  0.9057  0.32137  1.0000
  O   O34       1.0  0.86172  0.24878  0.31871  1.0000
  O   O35       1.0  0.78733  0.24768999999999994  0.32371  1.0000
  O   O36       1.0  0.8076100000000002  0.55151  0.7926  1.0000
  O   O37       1.0  0.2545000000000001  0.56079  0.12969  1.0000
  O   O38       1.0  0.24045999999999998  0.50426  0.0956  1.0000
  O   O39       1.0  0.23646000000000003  0.70548  0.01624  1.0000
  O   O40       1.0  0.4212600000000002  0.76541  0.98223  1.0000
  O   O41       1.0  0.47642000000000007  0.81222  0.81533  1.0000
  O   O42       1.0  0.16300000000000003  0.61867  0.15831  1.0000
  O   O43       1.0  0.15860000000000016  0.69593  0.14277  1.0000
  O   O44       1.0  0.26094  0.91028  0.07114  1.0000
  O   O45       1.0  0.27854999999999996  0.95541  0.22752  1.0000
  O   O46       1.0  0.30806  0.02232  0.20115  1.0000
  O   O47       1.0  0.08923000000000002  0.57407  0.03317  1.0000
  O   O48       1.0  0.10448999999999997  0.42216000000000004  0.91925  1.0000
  O   O49       1.0  0.9681300000000003  0.415  0.09847  1.0000
  O   O50       1.0  0.8282600000000001  0.34137000000000006  0.24534  1.0000
  O   O51       1.0  0.9057000000000002  0.32137  0.24308  1.0000
  O   O52       1.0  0.2487700000000001  0.31871  0.86172  1.0000
  O   O53       1.0  0.24769  0.32371  0.78733  1.0000
  O   O54       1.0  0.5515000000000002  0.79261  0.8076  1.0000
  O   O55       1.0  0.37031  0.93921  0.2455  1.0000
  O   O56       1.0  0.4043999999999999  0.99573  0.25954  1.0000
  O   O57       1.0  0.48376  0.7945199999999999  0.26355  1.0000
  O   O58       1.0  0.5177700000000002  0.73459  0.07874999999999999  1.0000
  O   O59       1.0  0.6846700000000002  0.68778  0.02358  1.0000
  O   O60       1.0  0.34168999999999994  0.88132  0.33699999999999997  1.0000
  O   O61       1.0  0.3572300000000002  0.80407  0.3414  1.0000
  O   O62       1.0  0.42885  0.5897499999999999  0.23906  1.0000
  O   O63       1.0  0.2724800000000001  0.5445899999999999  0.22145  1.0000
  O   O64       1.0  0.2988500000000001  0.47768000000000005  0.19194  1.0000
  O   O65       1.0  0.4668200000000002  0.92593  0.41077  1.0000
  O   O66       1.0  0.5807500000000002  0.07783999999999999  0.39551  1.0000
  O   O67       1.0  0.4015200000000001  0.08500000000000002  0.53187  1.0000
  O   O68       1.0  0.25466000000000005  0.15862999999999994  0.67174  1.0000
  O   O69       1.0  0.25692000000000004  0.17862999999999996  0.5943  1.0000
  O   O70       1.0  0.6382800000000002  0.18129  0.25122  1.0000
  O   O71       1.0  0.7126600000000002  0.17629  0.25231  1.0000
  O   O72       1.0  0.69239  0.7074  0.9484899999999999  1.0000
  O   O73       1.0  0.2454999999999999  0.37031  0.93921  1.0000
  O   O74       1.0  0.2595400000000002  0.40440000000000004  0.99573  1.0000
  O   O75       1.0  0.2635400000000001  0.4837600000000001  0.79452  1.0000
  O   O76       1.0  0.07874000000000005  0.51777  0.73459  1.0000
  O   O77       1.0  0.023579999999999997  0.68467  0.68778  1.0000
  O   O78       1.0  0.337  0.34169  0.88133  1.0000
  O   O79       1.0  0.3414  0.35723  0.80407  1.0000
  O   O80       1.0  0.23906000000000002  0.42887  0.58972  1.0000
  O   O81       1.0  0.22145  0.27249  0.54458  1.0000
  O   O82       1.0  0.19194000000000003  0.29885  0.47768  1.0000
  O   O83       1.0  0.4107700000000002  0.46683  0.92593  1.0000
  O   O84       1.0  0.3955100000000001  0.58075  0.07784  1.0000
  O   O85       1.0  0.53187  0.40153  0.085  1.0000
  O   O86       1.0  0.6717300000000004  0.2546599999999999  0.15863  1.0000
  O   O87       1.0  0.5943  0.25692  0.17862  1.0000
  O   O88       1.0  0.25124  0.6382699999999999  0.18129  1.0000
  O   O89       1.0  0.25231  0.71266  0.17629  1.0000
  O   O90       1.0  0.9484900000000002  0.6923899999999998  0.70739  1.0000
  O   O91       1.0  0.93921  0.2455  0.37031  1.0000
  O   O92       1.0  0.9957300000000003  0.25954  0.4044  1.0000
  O   O93       1.0  0.7945200000000002  0.26355  0.48376  1.0000
  O   O94       1.0  0.73459  0.07875000000000001  0.51777  1.0000
  O   O95       1.0  0.6877800000000002  0.02358  0.68468  1.0000
  O   O96       1.0  0.8813200000000001  0.3369999999999999  0.34169000000000005  1.0000
  O   O97       1.0  0.8040700000000002  0.3414  0.35723  1.0000
  O   O98       1.0  0.58975  0.23906  0.42883999999999994  1.0000
  O   O99       1.0  0.5445900000000002  0.22144999999999998  0.27248  1.0000
  O   O100      1.0  0.47768000000000005  0.19194  0.29885  1.0000
  O   O101      1.0  0.9259300000000003  0.41077  0.46682  1.0000
  O   O102      1.0  0.07784000000000003  0.39551  0.58074  1.0000
  O   O103      1.0  0.08500000000000002  0.53187  0.40152  1.0000
  O   O104      1.0  0.15862999999999997  0.67174  0.25466  1.0000
  O   O105      1.0  0.17863  0.5943  0.25692  1.0000
  O   O106      1.0  0.18129  0.25123  0.63828  1.0000
  O   O107      1.0  0.17629  0.2523199999999999  0.71266  1.0000
  O   O108      1.0  0.7073900000000002  0.94849  0.69239  1.0000
  O   O109      1.0  0.43922000000000005  0.8703199999999998  0.7455  1.0000
  O   O110      1.0  0.4957400000000002  0.9044  0.75954  1.0000
  O   O111      1.0  0.2945200000000002  0.98376  0.76354  1.0000
  O   O112      1.0  0.2346  0.01777  0.57874  1.0000
  O   O113      1.0  0.1877800000000001  0.18467999999999998  0.52357  1.0000
  O   O114      1.0  0.3813300000000001  0.8416899999999998  0.837  1.0000
  O   O115      1.0  0.30406999999999995  0.85723  0.8414  1.0000
  O   O116      1.0  0.08976000000000002  0.9288500000000001  0.7390599999999999  1.0000
  O   O117      1.0  0.04458999999999996  0.7724900000000001  0.72144  1.0000
  O   O118      1.0  0.9776800000000003  0.79886  0.69194  1.0000
  O   O119      1.0  0.42593000000000014  0.9668299999999995  0.91077  1.0000
  O   O120      1.0  0.5778399999999999  0.08075  0.89551  1.0000
  O   O121      1.0  0.5850000000000001  0.90152  0.03187  1.0000
  O   O122      1.0  0.65863  0.7546599999999998  0.17174  1.0000
  O   O123      1.0  0.6786200000000001  0.7569200000000001  0.0943  1.0000
  O   O124      1.0  0.6812900000000002  0.13828  0.75122  1.0000
  O   O125      1.0  0.6762900000000002  0.21267  0.75231  1.0000
  O   O126      1.0  0.20739  0.19239  0.44849  1.0000
  O   O127      1.0  0.8703100000000003  0.7455  0.43921  1.0000
  O   O128      1.0  0.9044  0.75954  0.49573  1.0000
  O   O129      1.0  0.9837600000000003  0.76355  0.29452  1.0000
  O   O130      1.0  0.017770000000000015  0.5787499999999998  0.23459  1.0000
  O   O131      1.0  0.18467000000000006  0.5235799999999998  0.18778  1.0000
  O   O132      1.0  0.8416900000000003  0.837  0.38132  1.0000
  O   O133      1.0  0.8572300000000003  0.8414  0.30407  1.0000
  O   O134      1.0  0.92884  0.73906  0.08975  1.0000
  O   O135      1.0  0.7724800000000003  0.72145  0.04459  1.0000
  O   O136      1.0  0.7988500000000003  0.6919399999999998  0.97768  1.0000
  O   O137      1.0  0.9668200000000001  0.9107699999999999  0.42593  1.0000
  O   O138      1.0  0.08074999999999999  0.8955099999999998  0.57784  1.0000
  O   O139      1.0  0.90152  0.03187  0.585  1.0000
  O   O140      1.0  0.7546600000000002  0.17174000000000003  0.65862  1.0000
  O   O141      1.0  0.7569200000000003  0.0943  0.67863  1.0000
  O   O142      1.0  0.13828000000000001  0.7512199999999998  0.6812799999999999  1.0000
  O   O143      1.0  0.2126700000000001  0.75232  0.67629  1.0000
  O   O144      1.0  0.1923900000000001  0.44849  0.20739  1.0000
  O   O145      1.0  0.7455  0.43922  0.8703099999999999  1.0000
  O   O146      1.0  0.75954  0.49574000000000007  0.90439  1.0000
  O   O147      1.0  0.76354  0.29451999999999995  0.98376  1.0000
  O   O148      1.0  0.57874  0.23459  0.01777  1.0000
  O   O149      1.0  0.5235800000000003  0.18778  0.18467  1.0000
  O   O150      1.0  0.8370000000000003  0.3813299999999999  0.84169  1.0000
  O   O151      1.0  0.8414000000000004  0.30408  0.85723  1.0000
  O   O152      1.0  0.73906  0.08973  0.92886  1.0000
  O   O153      1.0  0.7214500000000003  0.044589999999999984  0.77248  1.0000
  O   O154      1.0  0.69194  0.97768  0.79885  1.0000
  O   O155      1.0  0.9107699999999999  0.42593000000000003  0.96682  1.0000
  O   O156      1.0  0.8955100000000003  0.57784  0.08075  1.0000
  O   O157      1.0  0.03186999999999999  0.585  0.90152  1.0000
  O   O158      1.0  0.17174  0.65863  0.75466  1.0000
  O   O159      1.0  0.09430000000000005  0.6786300000000001  0.75691  1.0000
  O   O160      1.0  0.75123  0.68129  0.13827  1.0000
  O   O161      1.0  0.75231  0.67629  0.21266  1.0000
  O   O162      1.0  0.4484900000000001  0.2074  0.19239  1.0000
  O   O163      1.0  0.62969  0.06079000000000001  0.7545  1.0000
  O   O164      1.0  0.5956  0.004269999999999997  0.74046  1.0000
  O   O165      1.0  0.5162400000000004  0.20548999999999998  0.7364499999999999  1.0000
  O   O166      1.0  0.4822300000000002  0.26541  0.92125  1.0000
  O   O167      1.0  0.3153300000000001  0.31222  0.97642  1.0000
  O   O168      1.0  0.65831  0.11868000000000001  0.663  1.0000
  O   O169      1.0  0.6427700000000004  0.19593000000000002  0.6586  1.0000
  O   O170      1.0  0.5711500000000003  0.41026  0.76093  1.0000
  O   O171      1.0  0.72752  0.4554199999999998  0.7785499999999999  1.0000
  O   O172      1.0  0.7011500000000003  0.52232  0.8080599999999999  1.0000
  O   O173      1.0  0.53317  0.07408  0.5892299999999999  1.0000
  O   O174      1.0  0.41925  0.92216  0.60449  1.0000
  O   O175      1.0  0.5984800000000001  0.915  0.46813  1.0000
  O   O176      1.0  0.7453400000000006  0.84137  0.32826  1.0000
  O   O177      1.0  0.7430800000000002  0.82137  0.40569999999999995  1.0000
  O   O178      1.0  0.36172000000000015  0.81872  0.74878  1.0000
  O   O179      1.0  0.28733000000000003  0.82371  0.74768  1.0000
  O   O180      1.0  0.30761  0.29261  0.05151  1.0000
  O   O181      1.0  0.7545000000000002  0.62969  0.06079  1.0000
  O   O182      1.0  0.7404600000000002  0.5956  0.00427  1.0000
  O   O183      1.0  0.7364500000000003  0.5162399999999999  0.20548  1.0000
  O   O184      1.0  0.9212600000000002  0.48223  0.26541  1.0000
  O   O185      1.0  0.97642  0.31533  0.31222  1.0000
  O   O186      1.0  0.663  0.65831  0.11867  1.0000
  O   O187      1.0  0.6586000000000002  0.64277  0.19593  1.0000
  O   O188      1.0  0.7609400000000004  0.57114  0.4102799999999999  1.0000
  O   O189      1.0  0.77855  0.7275199999999997  0.45541  1.0000
  O   O190      1.0  0.8080600000000003  0.70115  0.52232  1.0000
  O   O191      1.0  0.5892300000000003  0.53317  0.07407  1.0000
  O   O192      1.0  0.60449  0.41926  0.92216  1.0000
  O   O193      1.0  0.4681299999999999  0.59848  0.915  1.0000
  O   O194      1.0  0.32825999999999994  0.7453399999999999  0.84137  1.0000
  O   O195      1.0  0.4057000000000001  0.74309  0.82137  1.0000
  O   O196      1.0  0.7487700000000003  0.36173  0.81871  1.0000
  O   O197      1.0  0.7476800000000002  0.28734  0.82371  1.0000
  O   O198      1.0  0.05149999999999999  0.30761  0.2926  1.0000
  O   O199      1.0  0.06078000000000002  0.7545  0.62968  1.0000
  O   O200      1.0  0.00426  0.7404600000000001  0.5955999999999999  1.0000
  O   O201      1.0  0.20548000000000002  0.73646  0.51624  1.0000
  O   O202      1.0  0.26541  0.92126  0.48223  1.0000
  O   O203      1.0  0.3122200000000001  0.97643  0.31532  1.0000
  O   O204      1.0  0.11867000000000003  0.663  0.65831  1.0000
  O   O205      1.0  0.19593000000000005  0.6585999999999999  0.64277  1.0000
  O   O206      1.0  0.4102500000000003  0.7609399999999997  0.57115  1.0000
  O   O207      1.0  0.4554099999999999  0.77856  0.72751  1.0000
  O   O208      1.0  0.5223200000000002  0.8080599999999999  0.70114  1.0000
  O   O209      1.0  0.07407000000000001  0.58923  0.53317  1.0000
  O   O210      1.0  0.9221500000000005  0.60449  0.41924999999999996  1.0000
  O   O211      1.0  0.915  0.46812999999999994  0.59847  1.0000
  O   O212      1.0  0.8413700000000001  0.32827  0.74534  1.0000
  O   O213      1.0  0.8213699999999999  0.4057  0.74308  1.0000
  O   O214      1.0  0.81871  0.74877  0.36172  1.0000
  O   O215      1.0  0.8237000000000002  0.74768  0.28733  1.0000
  O   O216      1.0  0.2926  0.05151  0.30761  1.0000
