# generated using pymatgen
data_H13C20
_symmetry_space_group_name_H-M   'P 1'
_cell_length_a   32.86760000
_cell_length_b   56.36330000
_cell_length_c   56.36330000
_cell_angle_alpha   90.00000000
_cell_angle_beta   90.00000000
_cell_angle_gamma   90.00000000
_symmetry_Int_Tables_number   1
_chemical_formula_structural   H13C20
_chemical_formula_sum   'H832 C1280'
_cell_volume   104414.50118927
_cell_formula_units_Z   64
loop_
 _symmetry_equiv_pos_site_id
 _symmetry_equiv_pos_as_xyz
  1  'x, y, z'
loop_
 _atom_site_type_symbol
 _atom_site_label
 _atom_site_symmetry_multiplicity
 _atom_site_fract_x
 _atom_site_fract_y
 _atom_site_fract_z
 _atom_site_occupancy
  H  7  1  0.81774200  0.15724000  0.37461100  1
  H  8  1  0.91772800  0.12646600  0.40988700  1
  H  9  1  0.85640900  0.18404700  0.44043200  1
  H  16  1  0.85826200  0.14561900  0.34239700  1
  H  17  1  0.87767000  0.07536300  0.32055100  1
  H  18  1  0.88577000  0.09261600  0.39279700  1
  H  25  1  0.31772300  0.33758300  0.60595300  1
  H  26  1  0.41769700  0.36835500  0.57065900  1
  H  27  1  0.35640000  0.31075200  0.54014300  1
  H  34  1  0.35824100  0.34922000  0.63815700  1
  H  35  1  0.37766700  0.41947900  0.65998700  1
  H  36  1  0.38575700  0.40220900  0.58774300  1
  H  43  1  0.06809100  0.86312200  0.90145200  1
  H  44  1  0.17085300  0.83028400  0.87107800  1
  H  45  1  0.10887900  0.79730800  0.92707400  1
  H  52  1  0.10560300  0.89636700  0.89003200  1
  H  53  1  0.12095700  0.91848100  0.81962400  1
  H  54  1  0.14000400  0.84708400  0.83750600  1
  H  61  1  0.56810100  0.63168100  0.07911200  1
  H  62  1  0.67084000  0.66452900  0.10950300  1
  H  63  1  0.60887700  0.69750000  0.05350100  1
  H  70  1  0.60561800  0.59843600  0.09053500  1
  H  71  1  0.62098900  0.57631700  0.16094000  1
  H  72  1  0.63999500  0.64772000  0.14306700  1
  H  79  1  0.66839400  0.32743500  0.37011700  1
  H  80  1  0.56872200  0.36324200  0.40061900  1
  H  81  1  0.60478700  0.29658500  0.42663200  1
  H  88  1  0.63790800  0.34498200  0.33627900  1
  H  89  1  0.63256900  0.41738900  0.31943500  1
  H  90  1  0.60988100  0.39527300  0.38928400  1
  H  97  1  0.16838300  0.16737100  0.61046000  1
  H  98  1  0.06871400  0.13156800  0.57995000  1
  H  99  1  0.10479900  0.19822100  0.55393700  1
  H  106  1  0.13789800  0.14982000  0.64429700  1
  H  107  1  0.13255500  0.07741000  0.66113100  1
  H  108  1  0.10987200  0.09953800  0.59128400  1
  H  115  1  0.41752400  0.62699700  0.91106800  1
  H  116  1  0.31752900  0.65684300  0.87493100  1
  H  117  1  0.35422400  0.68405700  0.94094800  1
  H  124  1  0.38944500  0.59300100  0.89378600  1
  H  125  1  0.38586000  0.57531100  0.82168000  1
  H  126  1  0.35621100  0.64446200  0.84311600  1
  H  133  1  0.91748200  0.86782900  0.06946600  1
  H  134  1  0.81752000  0.83798400  0.10563300  1
  H  135  1  0.85418500  0.81075100  0.03962000  1
  H  142  1  0.88941400  0.90182500  0.08675300  1
  H  143  1  0.88588800  0.91952100  0.15885800  1
  H  144  1  0.85622700  0.85036600  0.13743800  1
  H  151  1  0.17648500  0.83648600  0.60582000  1
  H  152  1  0.07457300  0.86720500  0.57243700  1
  H  153  1  0.13668900  0.81113100  0.53967200  1
  H  160  1  0.13759900  0.84776300  0.63888200  1
  H  161  1  0.12307300  0.91822900  0.66102600  1
  H  162  1  0.10641300  0.90075500  0.58933600  1
  H  169  1  0.67650200  0.65832200  0.37473900  1
  H  170  1  0.57460900  0.62760200  0.40814200  1
  H  171  1  0.63670600  0.68369900  0.44087900  1
  H  178  1  0.63761600  0.64703500  0.34168500  1
  H  179  1  0.62306700  0.57656900  0.31954900  1
  H  180  1  0.60642400  0.59405200  0.39124100  1
  H  187  1  0.92841600  0.13257300  0.08051100  1
  H  188  1  0.82567400  0.16599400  0.11035600  1
  H  189  1  0.88793300  0.19809700  0.05405900  1
  H  196  1  0.89240500  0.09969500  0.09260300  1
  H  197  1  0.86894100  0.07756800  0.16221500  1
  H  198  1  0.85427300  0.14908100  0.14404900  1
  H  205  1  0.42841000  0.36225500  0.90004400  1
  H  206  1  0.32568000  0.32884000  0.87017800  1
  H  207  1  0.38791400  0.29672700  0.92647900  1
  H  214  1  0.39242000  0.39513900  0.88794700  1
  H  215  1  0.36894700  0.41727500  0.81834000  1
  H  216  1  0.35427000  0.34576200  0.83649500  1
  H  223  1  0.32703700  0.66861800  0.61093500  1
  H  224  1  0.42625600  0.63174300  0.58112300  1
  H  225  1  0.39013800  0.69764600  0.55334400  1
  H  232  1  0.35600700  0.65157300  0.64507300  1
  H  233  1  0.35802800  0.57956500  0.66323500  1
  H  234  1  0.38646300  0.60021200  0.59368300  1
  H  241  1  0.82704600  0.82621400  0.36961100  1
  H  242  1  0.92625600  0.86308500  0.39943400  1
  H  243  1  0.89010800  0.79718900  0.42721600  1
  H  250  1  0.85601400  0.84325800  0.33547600  1
  H  251  1  0.85805200  0.91526400  0.31731500  1
  H  252  1  0.88647500  0.89461600  0.38686900  1
  H  259  1  0.57391200  0.36629900  0.07169600  1
  H  260  1  0.67646900  0.33712700  0.10590200  1
  H  261  1  0.63822500  0.31063700  0.03993000  1
  H  268  1  0.60110300  0.40013800  0.08863200  1
  H  269  1  0.61469400  0.41897900  0.16002300  1
  H  270  1  0.64008400  0.34940500  0.13852800  1
  H  277  1  0.07397300  0.12849700  0.90889000  1
  H  278  1  0.17649800  0.15767000  0.87465300  1
  H  279  1  0.13827500  0.18418400  0.94062000  1
  H  286  1  0.10112800  0.09466000  0.89194800  1
  H  287  1  0.11466700  0.07581300  0.82055400  1
  H  288  1  0.14010200  0.14538300  0.84203900  1
  H  295  1  0.70683300  0.30537600  0.42217900  1
  H  302  1  0.70689700  0.20296700  0.39069400  1
  H  303  1  0.75403500  0.17139100  0.39401400  1
  H  304  1  0.84506100  0.21942700  0.41570000  1
  H  305  1  0.63307100  0.26888100  0.37311500  1
  H  308  1  0.80981000  0.26885900  0.39968600  1
  H  309  1  0.82680600  0.25898200  0.42779100  1
  H  310  1  0.77440700  0.29078900  0.43120300  1
  H  311  1  0.75871700  0.26413800  0.44505600  1
  H  312  1  0.67838600  0.23596200  0.37399700  1
  H  319  1  0.20684100  0.18942800  0.55840800  1
  H  326  1  0.20689100  0.29183700  0.58988200  1
  H  327  1  0.25401700  0.32341600  0.58655400  1
  H  328  1  0.34506000  0.27538300  0.56488900  1
  H  329  1  0.13306100  0.22592700  0.60746100  1
  H  332  1  0.30981300  0.22595000  0.58091700  1
  H  333  1  0.32682100  0.23582000  0.55281200  1
  H  334  1  0.27442600  0.20401200  0.54940000  1
  H  335  1  0.25873900  0.23065900  0.53553800  1
  H  336  1  0.17837800  0.25884600  0.60658300  1
  H  343  1  0.95527900  0.81499700  0.04827100  1
  H  350  1  0.95698300  0.84537100  0.94543500  1
  H  351  1  0.00510600  0.84265000  0.91431000  1
  H  352  1  0.09504800  0.82093200  0.96303500  1
  H  353  1  0.88283000  0.86414400  0.01099700  1
  H  356  1  0.05898900  0.83613100  0.01202100  1
  H  357  1  0.07528200  0.80786300  0.00219000  1
  H  358  1  0.02246100  0.80497300  0.03384200  1
  H  359  1  0.00683700  0.79119300  0.00714500  1
  H  360  1  0.92821600  0.86242000  0.97815500  1
  H  367  1  0.45533900  0.67980600  0.93227900  1
  H  374  1  0.45701300  0.64941900  0.03511100  1
  H  375  1  0.50511500  0.65214800  0.06624400  1
  H  376  1  0.59507600  0.67387300  0.01753500  1
  H  377  1  0.38287000  0.63066200  0.96954500  1
  H  380  1  0.55904300  0.65866300  0.96854200  1
  H  381  1  0.57533300  0.68693300  0.97837300  1
  H  382  1  0.52252400  0.68981800  0.94671200  1
  H  383  1  0.50688900  0.70360200  0.97340500  1
  H  384  1  0.42825200  0.63237500  0.00238700  1
  H  391  1  0.28977600  0.68982000  0.55722800  1
  H  398  1  0.28774900  0.79235500  0.58858900  1
  H  399  1  0.23978900  0.82356100  0.58577300  1
  H  400  1  0.15012600  0.77510900  0.56307900  1
  H  401  1  0.36122500  0.72646400  0.60733300  1
  H  404  1  0.18583800  0.72593400  0.57810200  1
  H  405  1  0.16999700  0.73604100  0.54984400  1
  H  406  1  0.22284200  0.70441400  0.54691100  1
  H  407  1  0.23874000  0.73124900  0.53350900  1
  H  408  1  0.31603800  0.75940400  0.60557700  1
  H  415  1  0.78976000  0.80501000  0.42331600  1
  H  422  1  0.78775200  0.70247900  0.39195400  1
  H  423  1  0.73980500  0.67126700  0.39477700  1
  H  424  1  0.65012400  0.71971200  0.41746000  1
  H  425  1  0.86122300  0.76837300  0.37321300  1
  H  428  1  0.68582800  0.76889300  0.40242700  1
  H  429  1  0.66997900  0.75878500  0.43068300  1
  H  430  1  0.72281900  0.79041500  0.43362100  1
  H  431  1  0.73871600  0.76358400  0.44702700  1
  H  432  1  0.81603500  0.73543100  0.37496200  1
  H  439  1  0.03488400  0.17939700  0.93125700  1
  H  446  1  0.03823200  0.14974000  0.03431100  1
  H  447  1  0.99157600  0.15279600  0.06618300  1
  H  448  1  0.89905000  0.17319500  0.01856200  1
  H  449  1  0.11094300  0.13182200  0.96811600  1
  H  452  1  0.93328400  0.15707000  0.96920000  1
  H  453  1  0.91627100  0.18526600  0.97881100  1
  H  454  1  0.96760400  0.18833900  0.94637500  1
  H  455  1  0.98386000  0.20274700  0.97261400  1
  H  456  1  0.06649300  0.13295100  0.00139500  1
  H  463  1  0.53481000  0.31542000  0.04931000  1
  H  470  1  0.53819600  0.34508800  0.94626000  1
  H  471  1  0.49155700  0.34203300  0.91438100  1
  H  472  1  0.39901000  0.32162400  0.96198500  1
  H  473  1  0.61088800  0.36299300  0.01246100  1
  H  476  1  0.43321700  0.33775000  0.01135100  1
  H  477  1  0.41621600  0.30955300  0.00173800  1
  H  478  1  0.46753100  0.30648500  0.03418400  1
  H  479  1  0.48380200  0.29207500  0.00795000  1
  H  480  1  0.56644300  0.36187200  0.97918000  1
  H  487  1  0.21165100  0.80681800  0.92215200  1
  H  494  1  0.20768200  0.70475000  0.88984200  1
  H  495  1  0.25319300  0.67237900  0.89358500  1
  H  496  1  0.34630800  0.71905000  0.91521500  1
  H  497  1  0.13583900  0.77147800  0.87330300  1
  H  500  1  0.31331200  0.76904900  0.89860300  1
  H  501  1  0.33034700  0.75901200  0.92663700  1
  H  502  1  0.27934100  0.79155600  0.93021000  1
  H  503  1  0.26272500  0.76518600  0.94424600  1
  H  504  1  0.18031800  0.73817900  0.87343400  1
  H  511  1  0.71164700  0.68799200  0.05843600  1
  H  518  1  0.70767300  0.79006200  0.09074200  1
  H  519  1  0.75317700  0.82243300  0.08699000  1
  H  520  1  0.84629900  0.77576200  0.06537100  1
  H  521  1  0.63581800  0.72333600  0.10727400  1
  H  524  1  0.81330000  0.72576300  0.08199700  1
  H  525  1  0.83034700  0.73579500  0.05396400  1
  H  526  1  0.77934200  0.70325200  0.05038800  1
  H  527  1  0.76273300  0.72962100  0.03634600  1
  H  528  1  0.68030000  0.75663300  0.10714900  1
  H  535  1  0.45651100  0.31475500  0.54827900  1
  H  542  1  0.45748700  0.34822500  0.44655300  1
  H  543  1  0.50421400  0.34466900  0.41477200  1
  H  544  1  0.59461000  0.32090600  0.46222800  1
  H  545  1  0.38502100  0.36580700  0.51298800  1
  H  548  1  0.56037600  0.33660200  0.51202100  1
  H  549  1  0.57616400  0.30844900  0.50161900  1
  H  550  1  0.52380500  0.30521100  0.53347000  1
  H  551  1  0.50739700  0.29204700  0.50661500  1
  H  552  1  0.43013200  0.36489200  0.47997000  1
  H  559  1  0.95655700  0.18003700  0.43227300  1
  H  566  1  0.95749100  0.14659600  0.53400700  1
  H  567  1  0.00420800  0.15015300  0.56579400  1
  H  568  1  0.09462900  0.17389400  0.51834300  1
  H  569  1  0.88502400  0.12901500  0.46757600  1
  H  572  1  0.06040700  0.15818700  0.46855000  1
  H  573  1  0.07620000  0.18634100  0.47894500  1
  H  574  1  0.02385700  0.18957400  0.44708500  1
  H  575  1  0.00744300  0.20275100  0.47393300  1
  H  576  1  0.93013200  0.12992800  0.50059600  1
  H  583  1  0.78595700  0.18852000  0.05863800  1
  H  590  1  0.78717700  0.29112000  0.08973000  1
  H  591  1  0.74034000  0.32289100  0.08644500  1
  H  592  1  0.64888300  0.27515800  0.06471800  1
  H  593  1  0.86012700  0.22497300  0.10752200  1
  H  596  1  0.68323300  0.22571400  0.08070600  1
  H  597  1  0.66676600  0.23558600  0.05249100  1
  H  598  1  0.71858000  0.20341300  0.04944800  1
  H  599  1  0.73487600  0.22989100  0.03549700  1
  H  600  1  0.81525000  0.25806900  0.10647100  1
  H  607  1  0.28593100  0.30630900  0.92187700  1
  H  614  1  0.28719600  0.20370500  0.89080200  1
  H  615  1  0.24037600  0.17192900  0.89410000  1
  H  616  1  0.14888900  0.21965500  0.91580200  1
  H  617  1  0.36014200  0.26985300  0.87301500  1
  H  620  1  0.18322500  0.26910100  0.89978600  1
  H  621  1  0.16674100  0.25923800  0.92800000  1
  H  622  1  0.21854500  0.29141700  0.93104600  1
  H  623  1  0.23483800  0.26494600  0.94500900  1
  H  624  1  0.31526800  0.23675700  0.87405900  1
  H  631  1  0.53397300  0.67872700  0.43136200  1
  H  638  1  0.53673600  0.64639600  0.53345900  1
  H  639  1  0.49082100  0.65018600  0.56562500  1
  H  640  1  0.39828000  0.67172600  0.51853300  1
  H  641  1  0.60954300  0.62997100  0.46699200  1
  H  644  1  0.43204600  0.65505100  0.46865300  1
  H  645  1  0.41468500  0.68304200  0.47862000  1
  H  646  1  0.46616100  0.68677500  0.44636200  1
  H  647  1  0.48233500  0.70077900  0.47284000  1
  H  648  1  0.56469300  0.63007200  0.50013100  1
  H  655  1  0.03391700  0.81610900  0.54920900  1
  H  662  1  0.03672600  0.84841400  0.44710300  1
  H  663  1  0.99081500  0.84462600  0.41493700  1
  H  664  1  0.89825000  0.82311600  0.46202600  1
  H  665  1  0.10953600  0.86483400  0.51356800  1
  H  668  1  0.93201300  0.83979700  0.51190300  1
  H  669  1  0.91464000  0.81180700  0.50194200  1
  H  670  1  0.96610100  0.80807600  0.53420800  1
  H  671  1  0.98227800  0.79406000  0.50773700  1
  H  672  1  0.06468900  0.86473900  0.48042800  1
  H  679  1  0.88360000  0.14975300  0.18382000  1
  H  686  1  0.78662900  0.10266200  0.26365000  1
  H  687  1  0.80223700  0.09602700  0.30410400  1
  H  688  1  0.90446000  0.14074700  0.29871200  1
  H  689  1  0.80802700  0.08939100  0.18485600  1
  H  692  1  0.92571200  0.14242100  0.24877400  1
  H  693  1  0.90728900  0.16804000  0.26346600  1
  H  694  1  0.90109500  0.17045600  0.21904700  1
  H  695  1  0.85480900  0.17461400  0.23438700  1
  H  696  1  0.79959000  0.09335800  0.22602000  1
  H  703  1  0.38359100  0.34509400  0.79672800  1
  H  710  1  0.28662500  0.39219300  0.71689900  1
  H  711  1  0.30222900  0.39882400  0.67644400  1
  H  712  1  0.40444400  0.35409600  0.68183400  1
  H  713  1  0.30802400  0.40545900  0.79569500  1
  H  716  1  0.42570200  0.35242500  0.73177300  1
  H  717  1  0.40727700  0.32680700  0.71708000  1
  H  718  1  0.40108200  0.32439000  0.76149900  1
  H  719  1  0.35479300  0.32023500  0.74616100  1
  H  720  1  0.29958800  0.40149400  0.75453000  1
  H  727  1  0.12830100  0.05479700  0.89327100  1
  H  734  1  0.03113200  0.97497700  0.84618600  1
  H  735  1  0.04699600  0.93450900  0.83979200  1
  H  736  1  0.14778600  0.94007300  0.88557700  1
  H  737  1  0.05386500  0.05358200  0.83243200  1
  H  740  1  0.16913700  0.98967600  0.88736500  1
  H  741  1  0.14957800  0.97535300  0.91290800  1
  H  742  1  0.14407400  0.01983300  0.91477300  1
  H  743  1  0.09741900  0.00478900  0.91858800  1
  H  744  1  0.04440100  0.01255200  0.83687300  1
  H  751  1  0.62832700  0.43999400  0.08731100  1
  H  758  1  0.53115900  0.51982400  0.13437800  1
  H  759  1  0.54701600  0.56029400  0.14076500  1
  H  760  1  0.64782700  0.55472300  0.09499800  1
  H  761  1  0.55388600  0.44122400  0.14814700  1
  H  764  1  0.66918200  0.50511800  0.09322500  1
  H  765  1  0.64964000  0.51943900  0.06767500  1
  H  766  1  0.64413000  0.47495800  0.06581500  1
  H  767  1  0.59747900  0.49000500  0.06199100  1
  H  768  1  0.54443600  0.48225400  0.14370400  1
  H  775  1  0.60855400  0.34627900  0.17961700  1
  H  782  1  0.71130300  0.39264900  0.25754700  1
  H  783  1  0.70017300  0.39757500  0.29875700  1
  H  784  1  0.59936900  0.35154600  0.29549600  1
  H  785  1  0.67968500  0.40843800  0.18038500  1
  H  788  1  0.57275600  0.35101900  0.24663900  1
  H  789  1  0.59405700  0.32525300  0.25965300  1
  H  790  1  0.59518200  0.32446300  0.21501800  1
  H  791  1  0.64332700  0.32058500  0.22836900  1
  H  792  1  0.69273100  0.40330700  0.22101100  1
  H  799  1  0.10855900  0.14851600  0.80095800  1
  H  806  1  0.21128200  0.10213300  0.72302200  1
  H  807  1  0.20014900  0.09721200  0.68181300  1
  H  808  1  0.09936700  0.14325900  0.68507900  1
  H  809  1  0.17965800  0.08634400  0.80018200  1
  H  812  1  0.07275500  0.14378700  0.73393400  1
  H  813  1  0.09407200  0.16955200  0.72092300  1
  H  814  1  0.09519700  0.17033600  0.76555900  1
  H  815  1  0.14334600  0.17420700  0.75220800  1
  H  816  1  0.19270700  0.09147500  0.75955800  1
  H  823  1  0.36216200  0.43609600  0.89151300  1
  H  830  1  0.46526100  0.51452800  0.84617900  1
  H  831  1  0.45356200  0.55571700  0.84145600  1
  H  832  1  0.35302600  0.55176400  0.88762600  1
  H  833  1  0.43328400  0.43760800  0.82936300  1
  H  836  1  0.32690900  0.50312600  0.88803600  1
  H  837  1  0.34859000  0.51575400  0.91388900  1
  H  838  1  0.34946600  0.47109800  0.91403500  1
  H  839  1  0.39770200  0.48432600  0.91796300  1
  H  840  1  0.44674100  0.47809500  0.83514300  1
  H  847  1  0.86212600  0.05873800  0.08904400  1
  H  854  1  0.96524900  0.98030700  0.13436000  1
  H  855  1  0.95357200  0.93911700  0.13907600  1
  H  856  1  0.85300800  0.94306500  0.09292300  1
  H  857  1  0.93326900  0.05722500  0.15118600  1
  H  860  1  0.82687600  0.99170300  0.09252800  1
  H  861  1  0.84854400  0.97907900  0.06666900  1
  H  862  1  0.84941500  0.02373500  0.06652700  1
  H  863  1  0.89764700  0.01051000  0.06259000  1
  H  864  1  0.94672000  0.01673800  0.14540500  1
  H  871  1  0.10944300  0.84596900  0.79789900  1
  H  878  1  0.20924800  0.89197800  0.71865600  1
  H  879  1  0.19568600  0.89770000  0.67780700  1
  H  880  1  0.09390000  0.85253200  0.68234000  1
  H  881  1  0.18268200  0.90730000  0.79654200  1
  H  884  1  0.07010200  0.85163800  0.73169800  1
  H  885  1  0.08997200  0.82577900  0.71810600  1
  H  886  1  0.09346100  0.82463800  0.76269700  1
  H  887  1  0.14074400  0.82039400  0.74844300  1
  H  888  1  0.19296700  0.90256100  0.75557900  1
  H  895  1  0.60943300  0.64882300  0.18267000  1
  H  902  1  0.70925500  0.60282700  0.26191500  1
  H  903  1  0.69569800  0.59710300  0.30276500  1
  H  904  1  0.59389200  0.64225500  0.29823300  1
  H  905  1  0.68270900  0.58750700  0.18402800  1
  H  908  1  0.57009100  0.64314400  0.24887300  1
  H  909  1  0.58994600  0.66900500  0.26246500  1
  H  910  1  0.59343600  0.67014700  0.21787400  1
  H  911  1  0.64071600  0.67440000  0.23213000  1
  H  912  1  0.69298700  0.59224600  0.22499000  1
  H  919  1  0.38974600  0.64821600  0.80230300  1
  H  926  1  0.28317100  0.60382800  0.72505400  1
  H  927  1  0.29212000  0.59968800  0.68357300  1
  H  928  1  0.39345200  0.64539900  0.68599600  1
  H  929  1  0.31998700  0.58553400  0.80086400  1
  H  932  1  0.42248900  0.64511300  0.73412300  1
  H  933  1  0.40026400  0.67120800  0.72234100  1
  H  934  1  0.40203400  0.67064200  0.76701000  1
  H  935  1  0.35306800  0.67489900  0.75482300  1
  H  936  1  0.30510600  0.59163000  0.76056400  1
  H  943  1  0.88977600  0.84661500  0.17824600  1
  H  950  1  0.78319700  0.89100900  0.25549100  1
  H  951  1  0.79214200  0.89514900  0.29697200  1
  H  952  1  0.89346100  0.84943100  0.29455400  1
  H  953  1  0.82002700  0.90930000  0.17968300  1
  H  956  1  0.92251100  0.84971500  0.24642800  1
  H  957  1  0.90027900  0.82362100  0.25820900  1
  H  958  1  0.90205600  0.82418700  0.21354000  1
  H  959  1  0.85309000  0.81993300  0.22572500  1
  H  960  1  0.80514000  0.90320500  0.21998000  1
  H  967  1  0.63873300  0.55472100  0.39161500  1
  H  974  1  0.54081000  0.47434100  0.34625900  1
  H  975  1  0.55549900  0.43366400  0.34026200  1
  H  976  1  0.65901100  0.43925400  0.38394900  1
  H  977  1  0.56263300  0.55277300  0.33149800  1
  H  980  1  0.68108100  0.48919300  0.38448600  1
  H  981  1  0.66320700  0.47504300  0.41053900  1
  H  982  1  0.65762100  0.51953900  0.41219900  1
  H  983  1  0.61126800  0.50447400  0.41708500  1
  H  984  1  0.55473200  0.51160400  0.33587300  1
  H  991  1  0.13875100  0.94008000  0.58896300  1
  H  998  1  0.04079900  0.02046100  0.63430100  1
  H  999  1  0.05547700  0.06113900  0.64029600  1
  H  1000  1  0.15901000  0.05555100  0.59662600  1
  H  1001  1  0.06262900  0.94203000  0.64907300  1
  H  1004  1  0.18108800  0.00561200  0.59609600  1
  H  1005  1  0.16322600  0.01975800  0.57004100  1
  H  1006  1  0.15764400  0.97526300  0.56838300  1
  H  1007  1  0.11129100  0.99032600  0.56348900  1
  H  1008  1  0.05472000  0.98319900  0.64469300  1
  H  1015  1  0.85167800  0.93532200  0.38993100  1
  H  1022  1  0.95597500  0.01322100  0.34484500  1
  H  1023  1  0.94617900  0.05459700  0.34043100  1
  H  1024  1  0.84469300  0.05179100  0.38598900  1
  H  1025  1  0.92293100  0.93666300  0.32782200  1
  H  1028  1  0.81653100  0.00317100  0.38562500  1
  H  1029  1  0.83786200  0.01551300  0.41171100  1
  H  1030  1  0.83753400  0.97083100  0.41168100  1
  H  1031  1  0.88600100  0.98360900  0.41611900  1
  H  1032  1  0.93596500  0.97723200  0.33329700  1
  H  1039  1  0.35167200  0.55951000  0.59061000  1
  H  1046  1  0.45596000  0.48161200  0.63570700  1
  H  1047  1  0.44616300  0.44023500  0.64011500  1
  H  1048  1  0.34470400  0.44304200  0.59453800  1
  H  1049  1  0.42289700  0.55816700  0.65273000  1
  H  1052  1  0.31654000  0.49165900  0.59490000  1
  H  1053  1  0.33788600  0.47932100  0.56881700  1
  H  1054  1  0.33754800  0.52400300  0.56885100  1
  H  1055  1  0.38602500  0.51122800  0.56442100  1
  H  1056  1  0.43594300  0.51759900  0.64725300  1
  H  1063  1  0.15241800  0.15724000  0.37461100  1
  H  1064  1  0.25240400  0.12646600  0.40988700  1
  H  1065  1  0.19108500  0.18404700  0.44043200  1
  H  1072  1  0.19293800  0.14561900  0.34239700  1
  H  1073  1  0.21234600  0.07536300  0.32055100  1
  H  1074  1  0.22044600  0.09261600  0.39279700  1
  H  1081  1  0.65239900  0.33758300  0.60595300  1
  H  1082  1  0.75237300  0.36835500  0.57065900  1
  H  1083  1  0.69107600  0.31075200  0.54014300  1
  H  1090  1  0.69291700  0.34922000  0.63815700  1
  H  1091  1  0.71234300  0.41947900  0.65998700  1
  H  1092  1  0.72043300  0.40220900  0.58774300  1
  H  1099  1  0.40276700  0.86312200  0.90145200  1
  H  1100  1  0.50552900  0.83028400  0.87107800  1
  H  1101  1  0.44355500  0.79730800  0.92707400  1
  H  1108  1  0.44027900  0.89636700  0.89003200  1
  H  1109  1  0.45563300  0.91848100  0.81962400  1
  H  1110  1  0.47468000  0.84708400  0.83750600  1
  H  1117  1  0.90277700  0.63168100  0.07911200  1
  H  1118  1  0.00551609  0.66452900  0.10950300  1
  H  1119  1  0.94355300  0.69750000  0.05350100  1
  H  1126  1  0.94029400  0.59843600  0.09053500  1
  H  1127  1  0.95566500  0.57631700  0.16094000  1
  H  1128  1  0.97467100  0.64772000  0.14306700  1
  H  1135  1  0.00307009  0.32743500  0.37011700  1
  H  1136  1  0.90339800  0.36324200  0.40061900  1
  H  1137  1  0.93946300  0.29658500  0.42663200  1
  H  1144  1  0.97258400  0.34498200  0.33627900  1
  H  1145  1  0.96724500  0.41738900  0.31943500  1
  H  1146  1  0.94455700  0.39527300  0.38928400  1
  H  1153  1  0.50305900  0.16737100  0.61046000  1
  H  1154  1  0.40339000  0.13156800  0.57995000  1
  H  1155  1  0.43947500  0.19822100  0.55393700  1
  H  1162  1  0.47257400  0.14982000  0.64429700  1
  H  1163  1  0.46723100  0.07741000  0.66113100  1
  H  1164  1  0.44454800  0.09953800  0.59128400  1
  H  1171  1  0.75220000  0.62699700  0.91106800  1
  H  1172  1  0.65220500  0.65684300  0.87493100  1
  H  1173  1  0.68890000  0.68405700  0.94094800  1
  H  1180  1  0.72412100  0.59300100  0.89378600  1
  H  1181  1  0.72053600  0.57531100  0.82168000  1
  H  1182  1  0.69088700  0.64446200  0.84311600  1
  H  1189  1  0.25215800  0.86782900  0.06946600  1
  H  1190  1  0.15219600  0.83798400  0.10563300  1
  H  1191  1  0.18886100  0.81075100  0.03962000  1
  H  1198  1  0.22409000  0.90182500  0.08675300  1
  H  1199  1  0.22056400  0.91952100  0.15885800  1
  H  1200  1  0.19090300  0.85036600  0.13743800  1
  H  1207  1  0.51116100  0.83648600  0.60582000  1
  H  1208  1  0.40924900  0.86720500  0.57243700  1
  H  1209  1  0.47136500  0.81113100  0.53967200  1
  H  1216  1  0.47227500  0.84776300  0.63888200  1
  H  1217  1  0.45774900  0.91822900  0.66102600  1
  H  1218  1  0.44108900  0.90075500  0.58933600  1
  H  1225  1  0.01117810  0.65832200  0.37473900  1
  H  1226  1  0.90928500  0.62760200  0.40814200  1
  H  1227  1  0.97138200  0.68369900  0.44087900  1
  H  1234  1  0.97229200  0.64703500  0.34168500  1
  H  1235  1  0.95774300  0.57656900  0.31954900  1
  H  1236  1  0.94110000  0.59405200  0.39124100  1
  H  1243  1  0.26309200  0.13257300  0.08051100  1
  H  1244  1  0.16035000  0.16599400  0.11035600  1
  H  1245  1  0.22260900  0.19809700  0.05405900  1
  H  1252  1  0.22708100  0.09969500  0.09260300  1
  H  1253  1  0.20361700  0.07756800  0.16221500  1
  H  1254  1  0.18894900  0.14908100  0.14404900  1
  H  1261  1  0.76308600  0.36225500  0.90004400  1
  H  1262  1  0.66035600  0.32884000  0.87017800  1
  H  1263  1  0.72259000  0.29672700  0.92647900  1
  H  1270  1  0.72709600  0.39513900  0.88794700  1
  H  1271  1  0.70362300  0.41727500  0.81834000  1
  H  1272  1  0.68894600  0.34576200  0.83649500  1
  H  1279  1  0.66171300  0.66861800  0.61093500  1
  H  1280  1  0.76093200  0.63174300  0.58112300  1
  H  1281  1  0.72481400  0.69764600  0.55334400  1
  H  1288  1  0.69068300  0.65157300  0.64507300  1
  H  1289  1  0.69270400  0.57956500  0.66323500  1
  H  1290  1  0.72113900  0.60021200  0.59368300  1
  H  1297  1  0.16172200  0.82621400  0.36961100  1
  H  1298  1  0.26093200  0.86308500  0.39943400  1
  H  1299  1  0.22478400  0.79718900  0.42721600  1
  H  1306  1  0.19069000  0.84325800  0.33547600  1
  H  1307  1  0.19272800  0.91526400  0.31731500  1
  H  1308  1  0.22115100  0.89461600  0.38686900  1
  H  1315  1  0.90858800  0.36629900  0.07169600  1
  H  1316  1  0.01114510  0.33712700  0.10590200  1
  H  1317  1  0.97290100  0.31063700  0.03993000  1
  H  1324  1  0.93577900  0.40013800  0.08863200  1
  H  1325  1  0.94937000  0.41897900  0.16002300  1
  H  1326  1  0.97476000  0.34940500  0.13852800  1
  H  1333  1  0.40864900  0.12849700  0.90889000  1
  H  1334  1  0.51117400  0.15767000  0.87465300  1
  H  1335  1  0.47295100  0.18418400  0.94062000  1
  H  1342  1  0.43580400  0.09466000  0.89194800  1
  H  1343  1  0.44934300  0.07581300  0.82055400  1
  H  1344  1  0.47477800  0.14538300  0.84203900  1
  H  1351  1  0.04150910  0.30537600  0.42217900  1
  H  1358  1  0.04157310  0.20296700  0.39069400  1
  H  1359  1  0.08871110  0.17139100  0.39401400  1
  H  1360  1  0.17973700  0.21942700  0.41570000  1
  H  1361  1  0.96774700  0.26888100  0.37311500  1
  H  1364  1  0.14448600  0.26885900  0.39968600  1
  H  1365  1  0.16148200  0.25898200  0.42779100  1
  H  1366  1  0.10908300  0.29078900  0.43120300  1
  H  1367  1  0.09339310  0.26413800  0.44505600  1
  H  1368  1  0.01306210  0.23596200  0.37399700  1
  H  1375  1  0.54151700  0.18942800  0.55840800  1
  H  1382  1  0.54156700  0.29183700  0.58988200  1
  H  1383  1  0.58869300  0.32341600  0.58655400  1
  H  1384  1  0.67973600  0.27538300  0.56488900  1
  H  1385  1  0.46773700  0.22592700  0.60746100  1
  H  1388  1  0.64448900  0.22595000  0.58091700  1
  H  1389  1  0.66149700  0.23582000  0.55281200  1
  H  1390  1  0.60910200  0.20401200  0.54940000  1
  H  1391  1  0.59341500  0.23065900  0.53553800  1
  H  1392  1  0.51305400  0.25884600  0.60658300  1
  H  1399  1  0.28995500  0.81499700  0.04827100  1
  H  1406  1  0.29165900  0.84537100  0.94543500  1
  H  1407  1  0.33978200  0.84265000  0.91431000  1
  H  1408  1  0.42972400  0.82093200  0.96303500  1
  H  1409  1  0.21750600  0.86414400  0.01099700  1
  H  1412  1  0.39366500  0.83613100  0.01202100  1
  H  1413  1  0.40995800  0.80786300  0.00219000  1
  H  1414  1  0.35713700  0.80497300  0.03384200  1
  H  1415  1  0.34151300  0.79119300  0.00714500  1
  H  1416  1  0.26289200  0.86242000  0.97815500  1
  H  1423  1  0.79001500  0.67980600  0.93227900  1
  H  1430  1  0.79168900  0.64941900  0.03511100  1
  H  1431  1  0.83979100  0.65214800  0.06624400  1
  H  1432  1  0.92975200  0.67387300  0.01753500  1
  H  1433  1  0.71754600  0.63066200  0.96954500  1
  H  1436  1  0.89371900  0.65866300  0.96854200  1
  H  1437  1  0.91000900  0.68693300  0.97837300  1
  H  1438  1  0.85720000  0.68981800  0.94671200  1
  H  1439  1  0.84156500  0.70360200  0.97340500  1
  H  1440  1  0.76292800  0.63237500  0.00238700  1
  H  1447  1  0.62445200  0.68982000  0.55722800  1
  H  1454  1  0.62242500  0.79235500  0.58858900  1
  H  1455  1  0.57446500  0.82356100  0.58577300  1
  H  1456  1  0.48480200  0.77510900  0.56307900  1
  H  1457  1  0.69590100  0.72646400  0.60733300  1
  H  1460  1  0.52051400  0.72593400  0.57810200  1
  H  1461  1  0.50467300  0.73604100  0.54984400  1
  H  1462  1  0.55751800  0.70441400  0.54691100  1
  H  1463  1  0.57341600  0.73124900  0.53350900  1
  H  1464  1  0.65071400  0.75940400  0.60557700  1
  H  1471  1  0.12443600  0.80501000  0.42331600  1
  H  1478  1  0.12242800  0.70247900  0.39195400  1
  H  1479  1  0.07448110  0.67126700  0.39477700  1
  H  1480  1  0.98480000  0.71971200  0.41746000  1
  H  1481  1  0.19589900  0.76837300  0.37321300  1
  H  1484  1  0.02050410  0.76889300  0.40242700  1
  H  1485  1  0.00465509  0.75878500  0.43068300  1
  H  1486  1  0.05749510  0.79041500  0.43362100  1
  H  1487  1  0.07339210  0.76358400  0.44702700  1
  H  1488  1  0.15071100  0.73543100  0.37496200  1
  H  1495  1  0.36956000  0.17939700  0.93125700  1
  H  1502  1  0.37290800  0.14974000  0.03431100  1
  H  1503  1  0.32625200  0.15279600  0.06618300  1
  H  1504  1  0.23372600  0.17319500  0.01856200  1
  H  1505  1  0.44561900  0.13182200  0.96811600  1
  H  1508  1  0.26796000  0.15707000  0.96920000  1
  H  1509  1  0.25094700  0.18526600  0.97881100  1
  H  1510  1  0.30228000  0.18833900  0.94637500  1
  H  1511  1  0.31853600  0.20274700  0.97261400  1
  H  1512  1  0.40116900  0.13295100  0.00139500  1
  H  1519  1  0.86948600  0.31542000  0.04931000  1
  H  1526  1  0.87287200  0.34508800  0.94626000  1
  H  1527  1  0.82623300  0.34203300  0.91438100  1
  H  1528  1  0.73368600  0.32162400  0.96198500  1
  H  1529  1  0.94556400  0.36299300  0.01246100  1
  H  1532  1  0.76789300  0.33775000  0.01135100  1
  H  1533  1  0.75089200  0.30955300  0.00173800  1
  H  1534  1  0.80220700  0.30648500  0.03418400  1
  H  1535  1  0.81847800  0.29207500  0.00795000  1
  H  1536  1  0.90111900  0.36187200  0.97918000  1
  H  1543  1  0.54632700  0.80681800  0.92215200  1
  H  1550  1  0.54235800  0.70475000  0.88984200  1
  H  1551  1  0.58786900  0.67237900  0.89358500  1
  H  1552  1  0.68098400  0.71905000  0.91521500  1
  H  1553  1  0.47051500  0.77147800  0.87330300  1
  H  1556  1  0.64798800  0.76904900  0.89860300  1
  H  1557  1  0.66502300  0.75901200  0.92663700  1
  H  1558  1  0.61401700  0.79155600  0.93021000  1
  H  1559  1  0.59740100  0.76518600  0.94424600  1
  H  1560  1  0.51499400  0.73817900  0.87343400  1
  H  1567  1  0.04632310  0.68799200  0.05843600  1
  H  1574  1  0.04234910  0.79006200  0.09074200  1
  H  1575  1  0.08785310  0.82243300  0.08699000  1
  H  1576  1  0.18097500  0.77576200  0.06537100  1
  H  1577  1  0.97049400  0.72333600  0.10727400  1
  H  1580  1  0.14797600  0.72576300  0.08199700  1
  H  1581  1  0.16502300  0.73579500  0.05396400  1
  H  1582  1  0.11401800  0.70325200  0.05038800  1
  H  1583  1  0.09740910  0.72962100  0.03634600  1
  H  1584  1  0.01497610  0.75663300  0.10714900  1
  H  1591  1  0.79118700  0.31475500  0.54827900  1
  H  1598  1  0.79216300  0.34822500  0.44655300  1
  H  1599  1  0.83889000  0.34466900  0.41477200  1
  H  1600  1  0.92928600  0.32090600  0.46222800  1
  H  1601  1  0.71969700  0.36580700  0.51298800  1
  H  1604  1  0.89505200  0.33660200  0.51202100  1
  H  1605  1  0.91084000  0.30844900  0.50161900  1
  H  1606  1  0.85848100  0.30521100  0.53347000  1
  H  1607  1  0.84207300  0.29204700  0.50661500  1
  H  1608  1  0.76480800  0.36489200  0.47997000  1
  H  1615  1  0.29123300  0.18003700  0.43227300  1
  H  1622  1  0.29216700  0.14659600  0.53400700  1
  H  1623  1  0.33888400  0.15015300  0.56579400  1
  H  1624  1  0.42930500  0.17389400  0.51834300  1
  H  1625  1  0.21970000  0.12901500  0.46757600  1
  H  1628  1  0.39508300  0.15818700  0.46855000  1
  H  1629  1  0.41087600  0.18634100  0.47894500  1
  H  1630  1  0.35853300  0.18957400  0.44708500  1
  H  1631  1  0.34211900  0.20275100  0.47393300  1
  H  1632  1  0.26480800  0.12992800  0.50059600  1
  H  1639  1  0.12063300  0.18852000  0.05863800  1
  H  1646  1  0.12185300  0.29112000  0.08973000  1
  H  1647  1  0.07501610  0.32289100  0.08644500  1
  H  1648  1  0.98355900  0.27515800  0.06471800  1
  H  1649  1  0.19480300  0.22497300  0.10752200  1
  H  1652  1  0.01790910  0.22571400  0.08070600  1
  H  1653  1  0.00144209  0.23558600  0.05249100  1
  H  1654  1  0.05325610  0.20341300  0.04944800  1
  H  1655  1  0.06955210  0.22989100  0.03549700  1
  H  1656  1  0.14992600  0.25806900  0.10647100  1
  H  1663  1  0.62060700  0.30630900  0.92187700  1
  H  1670  1  0.62187200  0.20370500  0.89080200  1
  H  1671  1  0.57505200  0.17192900  0.89410000  1
  H  1672  1  0.48356500  0.21965500  0.91580200  1
  H  1673  1  0.69481800  0.26985300  0.87301500  1
  H  1676  1  0.51790100  0.26910100  0.89978600  1
  H  1677  1  0.50141700  0.25923800  0.92800000  1
  H  1678  1  0.55322100  0.29141700  0.93104600  1
  H  1679  1  0.56951400  0.26494600  0.94500900  1
  H  1680  1  0.64994400  0.23675700  0.87405900  1
  H  1687  1  0.86864900  0.67872700  0.43136200  1
  H  1694  1  0.87141200  0.64639600  0.53345900  1
  H  1695  1  0.82549700  0.65018600  0.56562500  1
  H  1696  1  0.73295600  0.67172600  0.51853300  1
  H  1697  1  0.94421900  0.62997100  0.46699200  1
  H  1700  1  0.76672200  0.65505100  0.46865300  1
  H  1701  1  0.74936100  0.68304200  0.47862000  1
  H  1702  1  0.80083700  0.68677500  0.44636200  1
  H  1703  1  0.81701100  0.70077900  0.47284000  1
  H  1704  1  0.89936900  0.63007200  0.50013100  1
  H  1711  1  0.36859300  0.81610900  0.54920900  1
  H  1718  1  0.37140200  0.84841400  0.44710300  1
  H  1719  1  0.32549100  0.84462600  0.41493700  1
  H  1720  1  0.23292600  0.82311600  0.46202600  1
  H  1721  1  0.44421200  0.86483400  0.51356800  1
  H  1724  1  0.26668900  0.83979700  0.51190300  1
  H  1725  1  0.24931600  0.81180700  0.50194200  1
  H  1726  1  0.30077700  0.80807600  0.53420800  1
  H  1727  1  0.31695400  0.79406000  0.50773700  1
  H  1728  1  0.39936500  0.86473900  0.48042800  1
  H  1735  1  0.21827600  0.14975300  0.18382000  1
  H  1742  1  0.12130500  0.10266200  0.26365000  1
  H  1743  1  0.13691300  0.09602700  0.30410400  1
  H  1744  1  0.23913600  0.14074700  0.29871200  1
  H  1745  1  0.14270300  0.08939100  0.18485600  1
  H  1748  1  0.26038800  0.14242100  0.24877400  1
  H  1749  1  0.24196500  0.16804000  0.26346600  1
  H  1750  1  0.23577100  0.17045600  0.21904700  1
  H  1751  1  0.18948500  0.17461400  0.23438700  1
  H  1752  1  0.13426600  0.09335800  0.22602000  1
  H  1759  1  0.71826700  0.34509400  0.79672800  1
  H  1766  1  0.62130100  0.39219300  0.71689900  1
  H  1767  1  0.63690500  0.39882400  0.67644400  1
  H  1768  1  0.73912000  0.35409600  0.68183400  1
  H  1769  1  0.64270000  0.40545900  0.79569500  1
  H  1772  1  0.76037800  0.35242500  0.73177300  1
  H  1773  1  0.74195300  0.32680700  0.71708000  1
  H  1774  1  0.73575800  0.32439000  0.76149900  1
  H  1775  1  0.68946900  0.32023500  0.74616100  1
  H  1776  1  0.63426400  0.40149400  0.75453000  1
  H  1783  1  0.46297700  0.05479700  0.89327100  1
  H  1790  1  0.36580800  0.97497700  0.84618600  1
  H  1791  1  0.38167200  0.93450900  0.83979200  1
  H  1792  1  0.48246200  0.94007300  0.88557700  1
  H  1793  1  0.38854100  0.05358200  0.83243200  1
  H  1796  1  0.50381300  0.98967600  0.88736500  1
  H  1797  1  0.48425400  0.97535300  0.91290800  1
  H  1798  1  0.47875000  0.01983300  0.91477300  1
  H  1799  1  0.43209500  0.00478900  0.91858800  1
  H  1800  1  0.37907700  0.01255200  0.83687300  1
  H  1807  1  0.96300300  0.43999400  0.08731100  1
  H  1814  1  0.86583500  0.51982400  0.13437800  1
  H  1815  1  0.88169200  0.56029400  0.14076500  1
  H  1816  1  0.98250300  0.55472300  0.09499800  1
  H  1817  1  0.88856200  0.44122400  0.14814700  1
  H  1820  1  0.00385809  0.50511800  0.09322500  1
  H  1821  1  0.98431600  0.51943900  0.06767500  1
  H  1822  1  0.97880600  0.47495800  0.06581500  1
  H  1823  1  0.93215500  0.49000500  0.06199100  1
  H  1824  1  0.87911200  0.48225400  0.14370400  1
  H  1831  1  0.94323000  0.34627900  0.17961700  1
  H  1838  1  0.04597910  0.39264900  0.25754700  1
  H  1839  1  0.03484910  0.39757500  0.29875700  1
  H  1840  1  0.93404500  0.35154600  0.29549600  1
  H  1841  1  0.01436110  0.40843800  0.18038500  1
  H  1844  1  0.90743200  0.35101900  0.24663900  1
  H  1845  1  0.92873300  0.32525300  0.25965300  1
  H  1846  1  0.92985800  0.32446300  0.21501800  1
  H  1847  1  0.97800300  0.32058500  0.22836900  1
  H  1848  1  0.02740710  0.40330700  0.22101100  1
  H  1855  1  0.44323500  0.14851600  0.80095800  1
  H  1862  1  0.54595800  0.10213300  0.72302200  1
  H  1863  1  0.53482500  0.09721200  0.68181300  1
  H  1864  1  0.43404300  0.14325900  0.68507900  1
  H  1865  1  0.51433400  0.08634400  0.80018200  1
  H  1868  1  0.40743100  0.14378700  0.73393400  1
  H  1869  1  0.42874800  0.16955200  0.72092300  1
  H  1870  1  0.42987300  0.17033600  0.76555900  1
  H  1871  1  0.47802200  0.17420700  0.75220800  1
  H  1872  1  0.52738300  0.09147500  0.75955800  1
  H  1879  1  0.69683800  0.43609600  0.89151300  1
  H  1886  1  0.79993700  0.51452800  0.84617900  1
  H  1887  1  0.78823800  0.55571700  0.84145600  1
  H  1888  1  0.68770200  0.55176400  0.88762600  1
  H  1889  1  0.76796000  0.43760800  0.82936300  1
  H  1892  1  0.66158500  0.50312600  0.88803600  1
  H  1893  1  0.68326600  0.51575400  0.91388900  1
  H  1894  1  0.68414200  0.47109800  0.91403500  1
  H  1895  1  0.73237800  0.48432600  0.91796300  1
  H  1896  1  0.78141700  0.47809500  0.83514300  1
  H  1903  1  0.19680200  0.05873800  0.08904400  1
  H  1910  1  0.29992500  0.98030700  0.13436000  1
  H  1911  1  0.28824800  0.93911700  0.13907600  1
  H  1912  1  0.18768400  0.94306500  0.09292300  1
  H  1913  1  0.26794500  0.05722500  0.15118600  1
  H  1916  1  0.16155200  0.99170300  0.09252800  1
  H  1917  1  0.18322000  0.97907900  0.06666900  1
  H  1918  1  0.18409100  0.02373500  0.06652700  1
  H  1919  1  0.23232300  0.01051000  0.06259000  1
  H  1920  1  0.28139600  0.01673800  0.14540500  1
  H  1927  1  0.44411900  0.84596900  0.79789900  1
  H  1934  1  0.54392400  0.89197800  0.71865600  1
  H  1935  1  0.53036200  0.89770000  0.67780700  1
  H  1936  1  0.42857600  0.85253200  0.68234000  1
  H  1937  1  0.51735800  0.90730000  0.79654200  1
  H  1940  1  0.40477800  0.85163800  0.73169800  1
  H  1941  1  0.42464800  0.82577900  0.71810600  1
  H  1942  1  0.42813700  0.82463800  0.76269700  1
  H  1943  1  0.47542000  0.82039400  0.74844300  1
  H  1944  1  0.52764300  0.90256100  0.75557900  1
  H  1951  1  0.94410900  0.64882300  0.18267000  1
  H  1958  1  0.04393110  0.60282700  0.26191500  1
  H  1959  1  0.03037410  0.59710300  0.30276500  1
  H  1960  1  0.92856800  0.64225500  0.29823300  1
  H  1961  1  0.01738510  0.58750700  0.18402800  1
  H  1964  1  0.90476700  0.64314400  0.24887300  1
  H  1965  1  0.92462200  0.66900500  0.26246500  1
  H  1966  1  0.92811200  0.67014700  0.21787400  1
  H  1967  1  0.97539200  0.67440000  0.23213000  1
  H  1968  1  0.02766310  0.59224600  0.22499000  1
  H  1975  1  0.72442200  0.64821600  0.80230300  1
  H  1982  1  0.61784700  0.60382800  0.72505400  1
  H  1983  1  0.62679600  0.59968800  0.68357300  1
  H  1984  1  0.72812800  0.64539900  0.68599600  1
  H  1985  1  0.65466300  0.58553400  0.80086400  1
  H  1988  1  0.75716500  0.64511300  0.73412300  1
  H  1989  1  0.73494000  0.67120800  0.72234100  1
  H  1990  1  0.73671000  0.67064200  0.76701000  1
  H  1991  1  0.68774400  0.67489900  0.75482300  1
  H  1992  1  0.63978200  0.59163000  0.76056400  1
  H  1999  1  0.22445200  0.84661500  0.17824600  1
  H  2006  1  0.11787300  0.89100900  0.25549100  1
  H  2007  1  0.12681800  0.89514900  0.29697200  1
  H  2008  1  0.22813700  0.84943100  0.29455400  1
  H  2009  1  0.15470300  0.90930000  0.17968300  1
  H  2012  1  0.25718700  0.84971500  0.24642800  1
  H  2013  1  0.23495500  0.82362100  0.25820900  1
  H  2014  1  0.23673200  0.82418700  0.21354000  1
  H  2015  1  0.18776600  0.81993300  0.22572500  1
  H  2016  1  0.13981600  0.90320500  0.21998000  1
  H  2023  1  0.97340900  0.55472100  0.39161500  1
  H  2030  1  0.87548600  0.47434100  0.34625900  1
  H  2031  1  0.89017500  0.43366400  0.34026200  1
  H  2032  1  0.99368700  0.43925400  0.38394900  1
  H  2033  1  0.89730900  0.55277300  0.33149800  1
  H  2036  1  0.01575710  0.48919300  0.38448600  1
  H  2037  1  0.99788300  0.47504300  0.41053900  1
  H  2038  1  0.99229700  0.51953900  0.41219900  1
  H  2039  1  0.94594400  0.50447400  0.41708500  1
  H  2040  1  0.88940800  0.51160400  0.33587300  1
  H  2047  1  0.47342700  0.94008000  0.58896300  1
  H  2054  1  0.37547500  0.02046100  0.63430100  1
  H  2055  1  0.39015300  0.06113900  0.64029600  1
  H  2056  1  0.49368600  0.05555100  0.59662600  1
  H  2057  1  0.39730500  0.94203000  0.64907300  1
  H  2060  1  0.51576400  0.00561200  0.59609600  1
  H  2061  1  0.49790200  0.01975800  0.57004100  1
  H  2062  1  0.49232000  0.97526300  0.56838300  1
  H  2063  1  0.44596700  0.99032600  0.56348900  1
  H  2064  1  0.38939600  0.98319900  0.64469300  1
  H  2071  1  0.18635400  0.93532200  0.38993100  1
  H  2078  1  0.29065100  0.01322100  0.34484500  1
  H  2079  1  0.28085500  0.05459700  0.34043100  1
  H  2080  1  0.17936900  0.05179100  0.38598900  1
  H  2081  1  0.25760700  0.93666300  0.32782200  1
  H  2084  1  0.15120700  0.00317100  0.38562500  1
  H  2085  1  0.17253800  0.01551300  0.41171100  1
  H  2086  1  0.17221000  0.97083100  0.41168100  1
  H  2087  1  0.22067700  0.98360900  0.41611900  1
  H  2088  1  0.27064100  0.97723200  0.33329700  1
  H  2095  1  0.68634800  0.55951000  0.59061000  1
  H  2102  1  0.79063600  0.48161200  0.63570700  1
  H  2103  1  0.78083900  0.44023500  0.64011500  1
  H  2104  1  0.67938000  0.44304200  0.59453800  1
  H  2105  1  0.75757300  0.55816700  0.65273000  1
  H  2108  1  0.65121600  0.49165900  0.59490000  1
  H  2109  1  0.67256200  0.47932100  0.56881700  1
  H  2110  1  0.67222400  0.52400300  0.56885100  1
  H  2111  1  0.72070100  0.51122800  0.56442100  1
  H  2112  1  0.77061900  0.51759900  0.64725300  1
  C  1  1  0.86782200  0.13884700  0.38939900  1
  C  2  1  0.83711700  0.15649400  0.38879400  1
  C  3  1  0.83287200  0.17353100  0.40704200  1
  C  4  1  0.85920800  0.17213100  0.42678700  1
  C  5  1  0.88969400  0.15466200  0.42798400  1
  C  6  1  0.89427300  0.13841400  0.40921300  1
  C  10  1  0.87203300  0.12196600  0.37061500  1
  C  11  1  0.86526000  0.12843500  0.34663900  1
  C  12  1  0.86641900  0.11143000  0.32831700  1
  C  13  1  0.87694300  0.08781100  0.33381500  1
  C  14  1  0.88523100  0.08093500  0.35739100  1
  C  15  1  0.88165600  0.09797000  0.37560500  1
  C  19  1  0.36779400  0.35597800  0.59115400  1
  C  20  1  0.33708600  0.33833200  0.59176300  1
  C  21  1  0.33285400  0.32128200  0.57352600  1
  C  22  1  0.35919300  0.32267500  0.55378100  1
  C  23  1  0.38966700  0.34015100  0.55257300  1
  C  24  1  0.39424300  0.35640600  0.57133700  1
  C  28  1  0.37200200  0.37286700  0.60993100  1
  C  29  1  0.36523800  0.36640200  0.63390900  1
  C  30  1  0.36640100  0.38341100  0.65222800  1
  C  31  1  0.37691900  0.40703100  0.64672300  1
  C  32  1  0.38522200  0.41389700  0.62314500  1
  C  33  1  0.38163400  0.39686000  0.60493700  1
  C  37  1  0.11964600  0.84972400  0.88337300  1
  C  38  1  0.08835000  0.84937100  0.90067900  1
  C  39  1  0.08438500  0.83065600  0.91722500  1
  C  40  1  0.11163100  0.81136000  0.91563700  1
  C  41  1  0.14281100  0.81112900  0.89854800  1
  C  42  1  0.14716100  0.83040200  0.88287600  1
  C  46  1  0.12247700  0.86864500  0.86650800  1
  C  47  1  0.11278600  0.89230300  0.87283100  1
  C  48  1  0.11136000  0.91049700  0.85571200  1
  C  49  1  0.12208700  0.90523800  0.83206800  1
  C  50  1  0.13396100  0.88213100  0.82523400  1
  C  51  1  0.13311900  0.86404000  0.84258100  1
  C  55  1  0.61964100  0.64508300  0.09719900  1
  C  56  1  0.58835800  0.64543300  0.07988700  1
  C  57  1  0.58439300  0.66414700  0.06334200  1
  C  58  1  0.61163000  0.68344700  0.06493700  1
  C  59  1  0.64280100  0.68368300  0.08203000  1
  C  60  1  0.64715100  0.66440600  0.09770100  1
  C  64  1  0.62247700  0.62616000  0.11406400  1
  C  65  1  0.61278900  0.60250200  0.10773700  1
  C  66  1  0.61138400  0.58430400  0.12485300  1
  C  67  1  0.62211200  0.58956100  0.14849700  1
  C  68  1  0.63398300  0.61266800  0.15533300  1
  C  69  1  0.63312200  0.63076400  0.13799100  1
  C  73  1  0.61861900  0.34816600  0.38228400  1
  C  74  1  0.64459600  0.32813700  0.38183000  1
  C  75  1  0.63899700  0.30912200  0.39767000  1
  C  76  1  0.60813100  0.31034400  0.41489800  1
  C  77  1  0.58251000  0.33039600  0.41650400  1
  C  78  1  0.58759400  0.34883900  0.39974400  1
  C  82  1  0.62378200  0.36707400  0.36561900  1
  C  83  1  0.63412000  0.36217700  0.34170300  1
  C  84  1  0.63885800  0.38044300  0.32481800  1
  C  85  1  0.63108100  0.40405200  0.33178000  1
  C  86  1  0.61984200  0.40947800  0.35530600  1
  C  87  1  0.61739600  0.39106500  0.37216600  1
  C  91  1  0.11860300  0.14664300  0.59829200  1
  C  92  1  0.14457100  0.16667600  0.59875300  1
  C  93  1  0.13899400  0.18568700  0.58290600  1
  C  94  1  0.10813500  0.18446400  0.56567500  1
  C  95  1  0.08251100  0.16441300  0.56406800  1
  C  96  1  0.08758600  0.14597100  0.58082700  1
  C  100  1  0.12376300  0.12773200  0.61495400  1
  C  101  1  0.13410300  0.13262600  0.63887200  1
  C  102  1  0.13883900  0.11435700  0.65575500  1
  C  103  1  0.13104600  0.09075100  0.64879100  1
  C  104  1  0.11982400  0.08532800  0.62526200  1
  C  105  1  0.11737500  0.10374300  0.60840300  1
  C  109  1  0.36746200  0.63862000  0.89020000  1
  C  110  1  0.39354600  0.63856800  0.91021700  1
  C  111  1  0.38805100  0.65471500  0.92897900  1
  C  112  1  0.35734000  0.67199100  0.92745500  1
  C  113  1  0.33181000  0.67333200  0.90735900  1
  C  114  1  0.33651100  0.65614000  0.88928500  1
  C  118  1  0.37297500  0.62173800  0.87144700  1
  C  119  1  0.38519100  0.59817300  0.87655300  1
  C  120  1  0.39132800  0.58126000  0.85847900  1
  C  121  1  0.38294300  0.58776800  0.83482000  1
  C  122  1  0.36895600  0.61074900  0.82902200  1
  C  123  1  0.36543300  0.62767100  0.84739800  1
  C  127  1  0.86744400  0.85620300  0.09035100  1
  C  128  1  0.89352200  0.85624700  0.07033300  1
  C  129  1  0.88800900  0.84010400  0.05157000  1
  C  130  1  0.85732200  0.82281600  0.05311200  1
  C  131  1  0.83179200  0.82148400  0.07320900  1
  C  132  1  0.83649600  0.83868100  0.09127600  1
  C  136  1  0.87296400  0.87309000  0.10909900  1
  C  137  1  0.88517600  0.89665300  0.10398700  1
  C  138  1  0.89134600  0.91356700  0.12205800  1
  C  139  1  0.88296700  0.90706200  0.14571900  1
  C  140  1  0.86899000  0.88407900  0.15152500  1
  C  141  1  0.86545200  0.86715700  0.13315200  1
  C  145  1  0.12536800  0.85473000  0.59210900  1
  C  146  1  0.15653400  0.83734800  0.59191900  1
  C  147  1  0.16075400  0.82086100  0.57316800  1
  C  148  1  0.13382600  0.82256000  0.55372100  1
  C  149  1  0.10274100  0.83971000  0.55335100  1
  C  150  1  0.09819800  0.85535700  0.57263200  1
  C  154  1  0.12225300  0.87153200  0.61105600  1
  C  155  1  0.13088900  0.86502800  0.63480700  1
  C  156  1  0.13200900  0.88207800  0.65307400  1
  C  157  1  0.12207600  0.90582600  0.64774100  1
  C  158  1  0.11136000  0.91285700  0.62450600  1
  C  159  1  0.11244500  0.89556500  0.60637000  1
  C  163  1  0.62539400  0.64007600  0.38846000  1
  C  164  1  0.65655900  0.65746000  0.38864500  1
  C  165  1  0.66077600  0.67395700  0.40738800  1
  C  166  1  0.63384600  0.67226200  0.42683600  1
  C  167  1  0.60277300  0.65510600  0.42721600  1
  C  168  1  0.59823100  0.63945200  0.40793900  1
  C  172  1  0.62228200  0.62326900  0.36951900  1
  C  173  1  0.63090700  0.62977400  0.34576400  1
  C  174  1  0.63201500  0.61272000  0.32749900  1
  C  175  1  0.62208100  0.58897400  0.33283600  1
  C  176  1  0.61136200  0.58194600  0.35607200  1
  C  177  1  0.61245800  0.59923800  0.37420600  1
  C  181  1  0.87702200  0.14631400  0.09855700  1
  C  182  1  0.90830800  0.14639400  0.08121800  1
  C  183  1  0.91217500  0.16482200  0.06434300  1
  C  184  1  0.88526700  0.18428100  0.06579000  1
  C  185  1  0.85418800  0.18484700  0.08291000  1
  C  186  1  0.84962800  0.16572700  0.09874400  1
  C  190  1  0.87337100  0.12740700  0.11546000  1
  C  191  1  0.88350900  0.10369200  0.10952500  1
  C  192  1  0.88293100  0.08530900  0.12654000  1
  C  193  1  0.86960800  0.09076800  0.14973300  1
  C  194  1  0.85812800  0.11399500  0.15634700  1
  C  195  1  0.86097000  0.13207100  0.13908600  1
  C  199  1  0.37701900  0.34852000  0.88198700  1
  C  200  1  0.40829300  0.34844000  0.89933600  1
  C  201  1  0.41215400  0.33000700  0.91620700  1
  C  202  1  0.38524600  0.31054800  0.91475400  1
  C  203  1  0.35418200  0.30998200  0.89762500  1
  C  204  1  0.34962700  0.32910600  0.88179400  1
  C  208  1  0.37337700  0.36742900  0.86508600  1
  C  209  1  0.38352700  0.39114100  0.87102500  1
  C  210  1  0.38294900  0.40952700  0.85401200  1
  C  211  1  0.36961300  0.40407300  0.83081900  1
  C  212  1  0.35811300  0.38084900  0.82420300  1
  C  213  1  0.36097000  0.36277200  0.84146100  1
  C  217  1  0.37665400  0.64741300  0.59930200  1
  C  218  1  0.35084100  0.66754300  0.59925700  1
  C  219  1  0.35637500  0.68610500  0.58288100  1
  C  220  1  0.38692500  0.68427200  0.56553300  1
  C  221  1  0.41229400  0.66408800  0.56435700  1
  C  222  1  0.40746500  0.64619000  0.58171900  1
  C  226  1  0.37103700  0.62884900  0.61636200  1
  C  227  1  0.35960100  0.63426100  0.63999500  1
  C  228  1  0.35340600  0.61636900  0.65709100  1
  C  229  1  0.36089700  0.59258800  0.65065100  1
  C  230  1  0.37413500  0.58647900  0.62760200  1
  C  231  1  0.37774900  0.60469200  0.61051800  1
  C  235  1  0.87666300  0.84741400  0.38124700  1
  C  236  1  0.85086000  0.82728000  0.38128000  1
  C  237  1  0.85637000  0.80872700  0.39766900  1
  C  238  1  0.88690700  0.81056000  0.41502400  1
  C  239  1  0.91228200  0.83074100  0.41620000  1
  C  240  1  0.90746600  0.84863800  0.39883200  1
  C  244  1  0.87105600  0.86598100  0.36418600  1
  C  245  1  0.85961600  0.86056900  0.34055300  1
  C  246  1  0.85342800  0.87846200  0.32345500  1
  C  247  1  0.86094300  0.90224000  0.32989600  1
  C  248  1  0.87416500  0.90835000  0.35294600  1
  C  249  1  0.87777100  0.89013800  0.37003000  1
  C  253  1  0.62511400  0.35490700  0.09174800  1
  C  254  1  0.59813700  0.35488900  0.07213500  1
  C  255  1  0.60355200  0.33918400  0.05299000  1
  C  256  1  0.63499400  0.32230700  0.05375800  1
  C  257  1  0.66132900  0.32092200  0.07348900  1
  C  258  1  0.65669600  0.33774100  0.09191500  1
  C  262  1  0.62077000  0.37188000  0.11055500  1
  C  263  1  0.60777500  0.39536400  0.10569400  1
  C  264  1  0.60426700  0.41275300  0.12361400  1
  C  265  1  0.61575000  0.40641000  0.14691500  1
  C  266  1  0.62959300  0.38337400  0.15258400  1
  C  267  1  0.63080700  0.36621400  0.13435100  1
  C  271  1  0.12515700  0.13989100  0.88882200  1
  C  272  1  0.09818900  0.13991300  0.90843900  1
  C  273  1  0.10361500  0.15562100  0.92758100  1
  C  274  1  0.13503400  0.17251100  0.92679500  1
  C  275  1  0.16136800  0.17388800  0.90706200  1
  C  276  1  0.15673300  0.15706000  0.88864300  1
  C  280  1  0.12080400  0.12291200  0.87001900  1
  C  281  1  0.10779600  0.09943100  0.87488400  1
  C  282  1  0.10426500  0.08204400  0.85696600  1
  C  283  1  0.11573700  0.08838100  0.83366200  1
  C  284  1  0.12958600  0.11141600  0.82798800  1
  C  285  1  0.13081700  0.12857800  0.84622000  1
  C  289  1  0.66609100  0.28983400  0.39772000  1
  C  290  1  0.65814100  0.26958000  0.38387800  1
  C  291  1  0.68463800  0.25005600  0.38478100  1
  C  292  1  0.71951400  0.25022300  0.39959200  1
  C  293  1  0.72795400  0.27113800  0.41295200  1
  C  294  1  0.70101300  0.29059000  0.41215700  1
  C  296  1  0.74759400  0.23070000  0.40065500  1
  C  297  1  0.73607800  0.20705500  0.39538900  1
  C  298  1  0.76387700  0.18825600  0.39753900  1
  C  299  1  0.80422100  0.19238100  0.40509200  1
  C  300  1  0.81579500  0.21590300  0.41056900  1
  C  301  1  0.78796800  0.23485200  0.40881900  1
  C  306  1  0.80078300  0.25924500  0.41570000  1
  C  307  1  0.76520100  0.27243300  0.42792200  1
  C  313  1  0.16609000  0.20497400  0.58285800  1
  C  314  1  0.15813600  0.22522600  0.59670100  1
  C  315  1  0.18463400  0.24475000  0.59580300  1
  C  316  1  0.21951900  0.24458100  0.58099700  1
  C  317  1  0.22796200  0.22366700  0.56763900  1
  C  318  1  0.20101800  0.20421500  0.56842900  1
  C  320  1  0.24759500  0.26410500  0.57993400  1
  C  321  1  0.23607300  0.28775100  0.58519100  1
  C  322  1  0.26386700  0.30655200  0.58303700  1
  C  323  1  0.30421400  0.30242700  0.57548600  1
  C  324  1  0.31579100  0.27890700  0.57001800  1
  C  325  1  0.28797300  0.25995500  0.57177300  1
  C  330  1  0.30079100  0.23556100  0.56490000  1
  C  331  1  0.26521500  0.22236800  0.55267400  1
  C  337  1  0.91523900  0.83961200  0.03235600  1
  C  338  1  0.90763600  0.85318700  0.01187900  1
  C  339  1  0.93413600  0.85176200  0.99239300  1
  C  340  1  0.96866000  0.83667100  0.99281100  1
  C  341  1  0.97668900  0.82352900  0.01391400  1
  C  342  1  0.94975400  0.82485500  0.03333700  1
  C  344  1  0.99703700  0.83535300  0.97346000  1
  C  345  1  0.98607800  0.84069300  0.94974600  1
  C  346  1  0.01446700  0.83890300  0.93121800  1
  C  347  1  0.05488300  0.83167600  0.93569800  1
  C  348  1  0.06577200  0.82585900  0.95924700  1
  C  349  1  0.03732400  0.82719300  0.97791700  1
  C  354  1  0.04960800  0.82020800  0.00237300  1
  C  355  1  0.01358300  0.80829200  0.01543800  1
  C  361  1  0.41529400  0.65519300  0.94818800  1
  C  362  1  0.40768100  0.64161500  0.96866300  1
  C  363  1  0.43418200  0.64303400  0.98815100  1
  C  364  1  0.46870800  0.65812200  0.98773500  1
  C  365  1  0.47674600  0.67126500  0.96663500  1
  C  366  1  0.44980800  0.66994500  0.94721100  1
  C  368  1  0.49707600  0.65944200  0.00709100  1
  C  369  1  0.48610500  0.65410100  0.03080400  1
  C  370  1  0.51448300  0.65589500  0.04933700  1
  C  371  1  0.55489900  0.66312900  0.04486600  1
  C  372  1  0.56579800  0.66894400  0.02131800  1
  C  373  1  0.53736200  0.66760500  0.00264300  1
  C  378  1  0.54965700  0.67458800  0.97818700  1
  C  379  1  0.51364000  0.68650200  0.96511600  1
  C  385  1  0.32934600  0.70542200  0.58229600  1
  C  386  1  0.33669300  0.72574000  0.59616000  1
  C  387  1  0.31031800  0.74528700  0.59472100  1
  C  388  1  0.27612600  0.74507000  0.57937400  1
  C  389  1  0.26831600  0.72411900  0.56594800  1
  C  390  1  0.29517200  0.70465400  0.56725900  1
  C  392  1  0.24781400  0.76446100  0.57806600  1
  C  393  1  0.25873200  0.78811600  0.58368300  1
  C  394  1  0.23043700  0.80669200  0.58184200  1
  C  395  1  0.19015200  0.80232700  0.57429800  1
  C  396  1  0.17931000  0.77883000  0.56823500  1
  C  397  1  0.20767200  0.76011700  0.56961200  1
  C  402  1  0.19547600  0.73573300  0.56232400  1
  C  403  1  0.23168800  0.72277700  0.55047700  1
  C  409  1  0.82933700  0.78940900  0.39825000  1
  C  410  1  0.83668500  0.76909500  0.38438500  1
  C  411  1  0.81030900  0.74954700  0.38581900  1
  C  412  1  0.77611400  0.74976100  0.40116400  1
  C  413  1  0.76830100  0.77071300  0.41458900  1
  C  414  1  0.79515700  0.79017800  0.41328300  1
  C  416  1  0.74780700  0.73037100  0.40247000  1
  C  417  1  0.75873600  0.70671600  0.39685600  1
  C  418  1  0.73044600  0.68813400  0.39870300  1
  C  419  1  0.69016000  0.69249700  0.40624700  1
  C  420  1  0.67930800  0.71599500  0.41230400  1
  C  421  1  0.70766400  0.73471100  0.41092200  1
  C  426  1  0.69546000  0.75909400  0.41820700  1
  C  427  1  0.73166600  0.77205200  0.43005500  1
  C  433  1  0.07656700  0.15555300  0.94689000  1
  C  434  1  0.08549600  0.14228000  0.96738900  1
  C  435  1  0.05951700  0.14335200  0.98713000  1
  C  436  1  0.02427800  0.15786500  0.98699700  1
  C  437  1  0.01491700  0.17069200  0.96587700  1
  C  438  1  0.04127600  0.16967500  0.94616000  1
  C  440  1  0.99671500  0.15907100  0.00676400  1
  C  441  1  0.00886300  0.15415900  0.03038600  1
  C  442  1  0.98136800  0.15615800  0.04935900  1
  C  443  1  0.94073600  0.16324700  0.04542400  1
  C  444  1  0.92855900  0.16844400  0.02194300  1
  C  445  1  0.95605200  0.16683800  0.00282400  1
  C  450  1  0.94242400  0.17327000  0.97845800  1
  C  451  1  0.97740700  0.18543500  0.96469000  1
  C  457  1  0.57650100  0.33926300  0.03368200  1
  C  458  1  0.58543700  0.35253800  0.01318700  1
  C  459  1  0.55946000  0.35147200  0.99344300  1
  C  460  1  0.52422200  0.33695900  0.99357100  1
  C  461  1  0.51485100  0.32413100  0.01468900  1
  C  462  1  0.54120500  0.32514400  0.03440800  1
  C  464  1  0.49666900  0.33575200  0.97379900  1
  C  465  1  0.50882700  0.34066700  0.95017900  1
  C  466  1  0.48134400  0.33866700  0.93120200  1
  C  467  1  0.44070800  0.33157400  0.93513000  1
  C  468  1  0.42852000  0.32637600  0.95860800  1
  C  469  1  0.45600300  0.32798300  0.97773200  1
  C  474  1  0.44236600  0.32155000  0.00209500  1
  C  475  1  0.47734000  0.30938800  0.01587100  1
  C  481  1  0.17005100  0.79192900  0.89778900  1
  C  482  1  0.16129200  0.77190200  0.88377200  1
  C  483  1  0.18729000  0.75214400  0.88423500  1
  C  484  1  0.22244000  0.75181800  0.89881200  1
  C  485  1  0.23180200  0.77254900  0.91226800  1
  C  486  1  0.20533700  0.79224300  0.91192500  1
  C  488  1  0.24963400  0.73186500  0.89975600  1
  C  489  1  0.23702100  0.70838000  0.89456800  1
  C  490  1  0.26381900  0.68910800  0.89697800  1
  C  491  1  0.30417800  0.69260700  0.90478400  1
  C  492  1  0.31694500  0.71598600  0.90996800  1
  C  493  1  0.29016300  0.73539900  0.90793200  1
  C  498  1  0.30414200  0.75960500  0.91469000  1
  C  499  1  0.26930700  0.77332600  0.92705200  1
  C  505  1  0.67003700  0.70288300  0.08279400  1
  C  506  1  0.66127500  0.72291200  0.09680800  1
  C  507  1  0.68727600  0.74266800  0.09634700  1
  C  508  1  0.72243200  0.74299300  0.08177600  1
  C  509  1  0.73179700  0.72226100  0.06832300  1
  C  510  1  0.70533000  0.70256900  0.06866100  1
  C  512  1  0.74962600  0.76294500  0.08083400  1
  C  513  1  0.73701200  0.78643200  0.08601700  1
  C  514  1  0.76380700  0.80570400  0.08360400  1
  C  515  1  0.80416600  0.80220700  0.07579600  1
  C  516  1  0.81693600  0.77882500  0.07061700  1
  C  517  1  0.79015900  0.75941300  0.07266000  1
  C  522  1  0.80413900  0.73520400  0.06590700  1
  C  523  1  0.76930800  0.72148200  0.05354300  1
  C  529  1  0.41691500  0.34021800  0.53335300  1
  C  530  1  0.40961300  0.35466400  0.51343500  1
  C  531  1  0.43594600  0.35373600  0.49383900  1
  C  532  1  0.47008900  0.33835900  0.49362300  1
  C  533  1  0.47801200  0.32444900  0.51424800  1
  C  534  1  0.45113100  0.32520300  0.53373400  1
  C  536  1  0.49795000  0.33721600  0.47400200  1
  C  537  1  0.48648200  0.34302300  0.45047200  1
  C  538  1  0.51402000  0.34073600  0.43155100  1
  C  539  1  0.55404100  0.33249700  0.43544000  1
  C  540  1  0.56554800  0.32651400  0.45885200  1
  C  541  1  0.53797100  0.32837700  0.47790700  1
  C  546  1  0.55064300  0.32089000  0.50214600  1
  C  547  1  0.51463500  0.30893500  0.51519200  1
  C  553  1  0.91694600  0.15458700  0.44720300  1
  C  554  1  0.90962900  0.14015100  0.46712500  1
  C  555  1  0.93595900  0.14107800  0.48672300  1
  C  556  1  0.97011100  0.15644900  0.48693800  1
  C  557  1  0.97804600  0.17035000  0.46630900  1
  C  558  1  0.95117100  0.16959500  0.44682100  1
  C  560  1  0.99796600  0.15759300  0.50656200  1
  C  561  1  0.98648900  0.15179300  0.53009200  1
  C  562  1  0.01402300  0.15408200  0.54901500  1
  C  563  1  0.05404600  0.16231500  0.54513000  1
  C  564  1  0.06556500  0.16829100  0.52171700  1
  C  565  1  0.03799100  0.16642700  0.50265900  1
  C  570  1  0.05067400  0.17390300  0.47841800  1
  C  571  1  0.01467600  0.18585700  0.46536300  1
  C  577  1  0.82672300  0.20395700  0.08314200  1
  C  578  1  0.83495300  0.22427500  0.09683900  1
  C  579  1  0.80874800  0.24391900  0.09581000  1
  C  580  1  0.77393600  0.24385200  0.08095300  1
  C  581  1  0.76520700  0.22288300  0.06773400  1
  C  582  1  0.79185000  0.20329000  0.06866700  1
  C  584  1  0.74620300  0.26353700  0.07972800  1
  C  585  1  0.75797800  0.28715200  0.08498500  1
  C  586  1  0.73037900  0.30606500  0.08285600  1
  C  587  1  0.69001100  0.30207600  0.07529300  1
  C  588  1  0.67820600  0.27859500  0.06980500  1
  C  589  1  0.70581100  0.25954300  0.07152400  1
  C  594  1  0.69263700  0.23520300  0.06469200  1
  C  595  1  0.72808500  0.22173100  0.05265500  1
  C  601  1  0.32671700  0.29087200  0.89738600  1
  C  602  1  0.33496200  0.27055200  0.88369300  1
  C  603  1  0.30875400  0.25090800  0.88471400  1
  C  604  1  0.27393100  0.25097500  0.89956300  1
  C  605  1  0.26519000  0.27194700  0.91277700  1
  C  606  1  0.29183100  0.29153900  0.91185100  1
  C  608  1  0.24620600  0.23128700  0.90078900  1
  C  609  1  0.25799100  0.20767200  0.89554200  1
  C  610  1  0.23040500  0.18875400  0.89768000  1
  C  611  1  0.19003400  0.19273900  0.90524000  1
  C  612  1  0.17821400  0.21622200  0.91071500  1
  C  613  1  0.20580900  0.23527700  0.90898700  1
  C  618  1  0.19262100  0.25961900  0.91580700  1
  C  619  1  0.22805800  0.27310000  0.92784700  1
  C  625  1  0.57551200  0.65443200  0.44641700  1
  C  626  1  0.58409200  0.64043700  0.46648500  1
  C  627  1  0.55786300  0.64087700  0.48614500  1
  C  628  1  0.52263700  0.65539500  0.48632700  1
  C  629  1  0.51350000  0.66885800  0.46556700  1
  C  630  1  0.54018600  0.66853500  0.44597500  1
  C  632  1  0.49513800  0.65627100  0.50614900  1
  C  633  1  0.50743300  0.65109400  0.52969400  1
  C  634  1  0.48038200  0.65352100  0.54884300  1
  C  635  1  0.44006600  0.66133100  0.54516900  1
  C  636  1  0.42759500  0.66646200  0.52172300  1
  C  637  1  0.45462700  0.66440100  0.50243000  1
  C  642  1  0.44097300  0.67115000  0.47815700  1
  C  643  1  0.47594600  0.68359100  0.46463200  1
  C  649  1  0.07548000  0.84039100  0.53415100  1
  C  650  1  0.08407500  0.85437700  0.51407800  1
  C  651  1  0.05784800  0.85394100  0.49441800  1
  C  652  1  0.02260800  0.83943100  0.49423900  1
  C  653  1  0.01345800  0.82597800  0.51500000  1
  C  654  1  0.04014000  0.82629900  0.53459500  1
  C  656  1  0.99511400  0.83855300  0.47441400  1
  C  657  1  0.00741900  0.84372300  0.45086800  1
  C  658  1  0.98037000  0.84129600  0.43171700  1
  C  659  1  0.94005100  0.83349700  0.43539200  1
  C  660  1  0.92756800  0.82837300  0.45883600  1
  C  661  1  0.95459700  0.83043300  0.47813100  1
  C  666  1  0.94093000  0.82369400  0.50240300  1
  C  667  1  0.97589500  0.81125200  0.51593700  1
  C  673  1  0.84698700  0.11909500  0.18028400  1
  C  674  1  0.82118900  0.10366600  0.19305700  1
  C  675  1  0.81542400  0.10642300  0.21756900  1
  C  676  1  0.83464600  0.12499300  0.23033800  1
  C  677  1  0.85813700  0.14162900  0.21715600  1
  C  678  1  0.86427400  0.13850500  0.19254700  1
  C  680  1  0.83747900  0.12492300  0.25588800  1
  C  681  1  0.81162700  0.11098500  0.27043000  1
  C  682  1  0.82056500  0.10711500  0.29445900  1
  C  683  1  0.85522600  0.11750900  0.30487600  1
  C  684  1  0.87918900  0.13313900  0.29126800  1
  C  685  1  0.87032000  0.13718400  0.26706600  1
  C  690  1  0.89827700  0.15253900  0.25303500  1
  C  691  1  0.87816600  0.16153100  0.22990900  1
  C  697  1  0.34698600  0.37575700  0.80026200  1
  C  698  1  0.32118600  0.39118400  0.78749300  1
  C  699  1  0.31542000  0.38842800  0.76298100  1
  C  700  1  0.33464000  0.36986000  0.75021200  1
  C  701  1  0.35813100  0.35322100  0.76339300  1
  C  702  1  0.36426800  0.35634400  0.78800300  1
  C  704  1  0.33747200  0.36992900  0.72466200  1
  C  705  1  0.31162000  0.38386900  0.71012000  1
  C  706  1  0.32055600  0.38773500  0.68608900  1
  C  707  1  0.35521000  0.37733800  0.67567200  1
  C  708  1  0.37917300  0.36170700  0.68928000  1
  C  709  1  0.37030700  0.35766600  0.71348200  1
  C  714  1  0.39826500  0.34230800  0.72751300  1
  C  715  1  0.37815400  0.33333333  0.75064000  1
  C  721  1  0.09244700  0.05824800  0.86229400  1
  C  722  1  0.06659100  0.04547300  0.84689200  1
  C  723  1  0.06018000  0.02104600  0.84993100  1
  C  724  1  0.07872600  0.00836600  0.86879300  1
  C  725  1  0.10208800  0.02160700  0.88544500  1
  C  726  1  0.10896900  0.04610300  0.88200300  1
  C  728  1  0.08122200  0.98279600  0.86900400  1
  C  729  1  0.05578200  0.96820300  0.85485600  1
  C  730  1  0.06485500  0.94415700  0.85113100  1
  C  731  1  0.09918500  0.93376400  0.86191600  1
  C  732  1  0.12261200  0.94743400  0.87777400  1
  C  733  1  0.11362600  0.97163500  0.88166800  1
  C  738  1  0.14128500  0.98567400  0.89719800  1
  C  739  1  0.12126600  0.00899500  0.90571400  1
  C  745  1  0.59246500  0.43655000  0.11828600  1
  C  746  1  0.56661600  0.44932800  0.13368700  1
  C  747  1  0.56021500  0.47375700  0.13064700  1
  C  748  1  0.57876500  0.48643400  0.11178500  1
  C  749  1  0.60212800  0.47318900  0.09513400  1
  C  750  1  0.60899800  0.44869300  0.09857700  1
  C  752  1  0.58126000  0.51200400  0.11156900  1
  C  753  1  0.55581200  0.52659800  0.12570900  1
  C  754  1  0.56488200  0.55064400  0.12943000  1
  C  755  1  0.59921400  0.56103700  0.11864900  1
  C  756  1  0.62265000  0.54736400  0.10279800  1
  C  757  1  0.61366900  0.52316200  0.09890800  1
  C  762  1  0.64133400  0.50912100  0.08338600  1
  C  763  1  0.62131700  0.48579900  0.07486800  1
  C  769  1  0.64239000  0.37796100  0.17612900  1
  C  770  1  0.66827600  0.39363000  0.18853900  1
  C  771  1  0.67685200  0.39018800  0.21266900  1
  C  772  1  0.66037700  0.37072400  0.22538400  1
  C  773  1  0.63642700  0.35405900  0.21248800  1
  C  774  1  0.62767600  0.35775800  0.18820600  1
  C  776  1  0.66070900  0.36982400  0.25096500  1
  C  777  1  0.68756500  0.38365900  0.26499000  1
  C  778  1  0.68127300  0.38652500  0.28945600  1
  C  779  1  0.64835000  0.37523200  0.30083400  1
  C  780  1  0.62360800  0.35972200  0.28750500  1
  C  781  1  0.62988200  0.35659900  0.26291200  1
  C  786  1  0.60109400  0.34124900  0.24945300  1
  C  787  1  0.61889600  0.33339800  0.22528100  1
  C  793  1  0.14237300  0.11682300  0.80444100  1
  C  794  1  0.16825400  0.10115300  0.79203000  1
  C  795  1  0.17683400  0.10459500  0.76790300  1
  C  796  1  0.16036600  0.12406400  0.75518900  1
  C  797  1  0.13642400  0.14073200  0.76808700  1
  C  798  1  0.12767400  0.13703400  0.79236700  1
  C  800  1  0.16069900  0.12496600  0.72960600  1
  C  801  1  0.18754800  0.11112800  0.71558100  1
  C  802  1  0.18125500  0.10826500  0.69111500  1
  C  803  1  0.14833700  0.11956400  0.67973700  1
  C  804  1  0.12360200  0.13507800  0.69306800  1
  C  805  1  0.12988000  0.13819700  0.71766100  1
  C  810  1  0.10109900  0.15355300  0.73112200  1
  C  811  1  0.11890600  0.16139700  0.75529500  1
  C  817  1  0.39588600  0.43298200  0.85974600  1
  C  818  1  0.42192300  0.44556000  0.84429100  1
  C  819  1  0.43077700  0.46959800  0.84812700  1
  C  820  1  0.41446900  0.48205700  0.86780400  1
  C  821  1  0.39044200  0.46896000  0.88427400  1
  C  822  1  0.38136700  0.44479000  0.88016000  1
  C  824  1  0.41488300  0.50762800  0.86907000  1
  C  825  1  0.44156900  0.52184300  0.85531400  1
  C  826  1  0.43496700  0.54630300  0.85258500  1
  C  827  1  0.40192200  0.55748200  0.86395800  1
  C  828  1  0.37746000  0.54396400  0.87946100  1
  C  829  1  0.38405300  0.51939100  0.88245600  1
  C  834  1  0.35537800  0.50576000  0.89772800  1
  C  835  1  0.37314300  0.48145900  0.90517800  1
  C  841  1  0.89586200  0.06185200  0.12080700  1
  C  842  1  0.92189900  0.04927300  0.13626000  1
  C  843  1  0.93075000  0.02523500  0.13242400  1
  C  844  1  0.91443600  0.01277700  0.11274600  1
  C  845  1  0.89040300  0.02587400  0.09627900  1
  C  846  1  0.88133400  0.05004500  0.10039500  1
  C  848  1  0.91485600  0.98720500  0.11147900  1
  C  849  1  0.94155400  0.97299200  0.12522700  1
  C  850  1  0.93496400  0.94853100  0.12795300  1
  C  851  1  0.90191300  0.93735000  0.11658500  1
  C  852  1  0.87744200  0.95086700  0.10108700  1
  C  853  1  0.88402600  0.97544200  0.09809600  1
  C  858  1  0.85533800  0.98907100  0.08283000  1
  C  859  1  0.87309700  0.01337600  0.07537900  1
  C  865  1  0.14470300  0.87717800  0.80122200  1
  C  866  1  0.17020500  0.89276000  0.78844100  1
  C  867  1  0.17716000  0.88952400  0.76409700  1
  C  868  1  0.15942500  0.87034300  0.75150700  1
  C  869  1  0.13569000  0.85381100  0.76467500  1
  C  870  1  0.12847900  0.85735400  0.78913300  1
  C  872  1  0.15833500  0.86960900  0.72593200  1
  C  873  1  0.18487300  0.88328600  0.71156800  1
  C  874  1  0.17719900  0.88657600  0.68730200  1
  C  875  1  0.14321700  0.87581700  0.67649200  1
  C  876  1  0.11884500  0.86029600  0.68999700  1
  C  877  1  0.12647700  0.85680300  0.71442300  1
  C  882  1  0.09799700  0.84162400  0.72829200  1
  C  883  1  0.11686600  0.83342200  0.75206800  1
  C  889  1  0.64470800  0.61762000  0.17934700  1
  C  890  1  0.67022300  0.60204300  0.19212700  1
  C  891  1  0.67717200  0.60527700  0.21647300  1
  C  892  1  0.65942200  0.62445500  0.22906400  1
  C  893  1  0.63568100  0.64098300  0.21589600  1
  C  894  1  0.62847600  0.63744000  0.19143800  1
  C  896  1  0.65833300  0.62518700  0.25463900  1
  C  897  1  0.68487500  0.61151300  0.26900300  1
  C  898  1  0.67720500  0.60822400  0.29326900  1
  C  899  1  0.64322000  0.61897800  0.30407900  1
  C  900  1  0.61883800  0.63449500  0.29057600  1
  C  901  1  0.62646800  0.63798800  0.26614800  1
  C  906  1  0.59797800  0.65316300  0.25228000  1
  C  907  1  0.61684500  0.66136900  0.22850500  1
  C  913  1  0.35680400  0.61617800  0.80538400  1
  C  914  1  0.33095800  0.60055600  0.79289600  1
  C  915  1  0.32120100  0.60459200  0.76901700  1
  C  916  1  0.33646500  0.62459600  0.75663600  1
  C  917  1  0.36098800  0.64096900  0.76954200  1
  C  918  1  0.37075700  0.63673900  0.79360900  1
  C  920  1  0.33431100  0.62636400  0.73114300  1
  C  921  1  0.30643600  0.61301100  0.71733800  1
  C  922  1  0.31137700  0.61066400  0.69271400  1
  C  923  1  0.34391600  0.62200400  0.68099800  1
  C  924  1  0.36936100  0.63726800  0.69418300  1
  C  925  1  0.36437700  0.63992000  0.71893100  1
  C  930  1  0.39395400  0.65491100  0.73222000  1
  C  931  1  0.37768200  0.66201400  0.75699500  1
  C  937  1  0.85684400  0.87865600  0.17516400  1
  C  938  1  0.83099500  0.89427900  0.18765200  1
  C  939  1  0.82123500  0.89024300  0.21153000  1
  C  940  1  0.83649600  0.87023700  0.22391200  1
  C  941  1  0.86101600  0.85386300  0.21100600  1
  C  942  1  0.87078800  0.85809200  0.18693900  1
  C  944  1  0.83433300  0.86847000  0.24940400  1
  C  945  1  0.80645700  0.88182400  0.26320900  1
  C  946  1  0.81139500  0.88417200  0.28783300  1
  C  947  1  0.84392900  0.87282700  0.29954800  1
  C  948  1  0.86937600  0.85756200  0.28636600  1
  C  949  1  0.86439600  0.85491100  0.26161900  1
  C  954  1  0.89397200  0.83991900  0.24833200  1
  C  955  1  0.87770400  0.83281500  0.22355500  1
  C  961  1  0.60179100  0.55777500  0.36105100  1
  C  962  1  0.57618800  0.54473400  0.34574100  1
  C  963  1  0.57070200  0.52024000  0.34876100  1
  C  964  1  0.59005900  0.50774200  0.36746300  1
  C  965  1  0.61386900  0.52113000  0.38378200  1
  C  966  1  0.61959200  0.54575300  0.38044800  1
  C  968  1  0.59243500  0.48218800  0.36787400  1
  C  969  1  0.56588000  0.46755100  0.35450200  1
  C  970  1  0.57423200  0.44339000  0.35104600  1
  C  971  1  0.60898000  0.43297200  0.36132600  1
  C  972  1  0.63364600  0.44671100  0.37646000  1
  C  973  1  0.62533000  0.47104600  0.38010700  1
  C  978  1  0.65388400  0.48523400  0.39494000  1
  C  979  1  0.63430300  0.50861700  0.40370100  1
  C  985  1  0.10180500  0.93703000  0.61952900  1
  C  986  1  0.07619000  0.95006900  0.63483200  1
  C  987  1  0.07069900  0.97456400  0.63180900  1
  C  988  1  0.09006400  0.98706100  0.61310800  1
  C  989  1  0.11388200  0.97367300  0.59679500  1
  C  990  1  0.11960800  0.94905100  0.60012800  1
  C  992  1  0.09243600  0.01261300  0.61269500  1
  C  993  1  0.06587000  0.02725200  0.62606000  1
  C  994  1  0.07421600  0.05141300  0.62951500  1
  C  995  1  0.10896500  0.06183500  0.61923800  1
  C  996  1  0.13364200  0.04809300  0.60411100  1
  C  997  1  0.12533500  0.02375600  0.60046600  1
  C  1002  1  0.15389700  0.00956900  0.58563800  1
  C  1003  1  0.13432200  0.98618500  0.57687700  1
  C  1009  1  0.88550800  0.93215800  0.35822100  1
  C  1010  1  0.91127800  0.94472500  0.34261500  1
  C  1011  1  0.91990300  0.96880300  0.34628400  1
  C  1012  1  0.90359600  0.98132300  0.36591700  1
  C  1013  1  0.87927400  0.96835400  0.38234300  1
  C  1014  1  0.87059600  0.94408100  0.37846600  1
  C  1016  1  0.90477000  0.00686400  0.36727500  1
  C  1017  1  0.93236300  0.02079000  0.35384200  1
  C  1018  1  0.92690400  0.04535300  0.35130900  1
  C  1019  1  0.89416100  0.05689900  0.36259800  1
  C  1020  1  0.86880100  0.04364700  0.37783500  1
  C  1021  1  0.87421700  0.01893600  0.38059500  1
  C  1026  1  0.84481100  0.00551100  0.39557700  1
  C  1027  1  0.86173400  0.98100400  0.40309400  1
  C  1033  1  0.38548000  0.56267000  0.62232900  1
  C  1034  1  0.41125000  0.55010500  0.63793500  1
  C  1035  1  0.41988500  0.52602900  0.63426400  1
  C  1036  1  0.40358900  0.51351000  0.61462700  1
  C  1037  1  0.37927300  0.52647800  0.59819800  1
  C  1038  1  0.37058400  0.55075100  0.60207600  1
  C  1040  1  0.40476700  0.48796800  0.61326600  1
  C  1041  1  0.43235300  0.47404300  0.62670400  1
  C  1042  1  0.42689500  0.44948100  0.62923400  1
  C  1043  1  0.39416300  0.43793100  0.61793600  1
  C  1044  1  0.36880700  0.45118600  0.60269900  1
  C  1045  1  0.37422600  0.47589700  0.59994000  1
  C  1050  1  0.34482300  0.48932200  0.58495400  1
  C  1051  1  0.36174600  0.51382900  0.57744200  1
  C  1057  1  0.20249800  0.13884700  0.38939900  1
  C  1058  1  0.17179300  0.15649400  0.38879400  1
  C  1059  1  0.16754800  0.17353100  0.40704200  1
  C  1060  1  0.19388400  0.17213100  0.42678700  1
  C  1061  1  0.22437000  0.15466200  0.42798400  1
  C  1062  1  0.22894900  0.13841400  0.40921300  1
  C  1066  1  0.20670900  0.12196600  0.37061500  1
  C  1067  1  0.19993600  0.12843500  0.34663900  1
  C  1068  1  0.20109500  0.11143000  0.32831700  1
  C  1069  1  0.21161900  0.08781100  0.33381500  1
  C  1070  1  0.21990700  0.08093500  0.35739100  1
  C  1071  1  0.21633200  0.09797000  0.37560500  1
  C  1075  1  0.70247000  0.35597800  0.59115400  1
  C  1076  1  0.67176200  0.33833200  0.59176300  1
  C  1077  1  0.66753000  0.32128200  0.57352600  1
  C  1078  1  0.69386900  0.32267500  0.55378100  1
  C  1079  1  0.72434300  0.34015100  0.55257300  1
  C  1080  1  0.72891900  0.35640600  0.57133700  1
  C  1084  1  0.70667800  0.37286700  0.60993100  1
  C  1085  1  0.69991400  0.36640200  0.63390900  1
  C  1086  1  0.70107700  0.38341100  0.65222800  1
  C  1087  1  0.71159500  0.40703100  0.64672300  1
  C  1088  1  0.71989800  0.41389700  0.62314500  1
  C  1089  1  0.71631000  0.39686000  0.60493700  1
  C  1093  1  0.45432200  0.84972400  0.88337300  1
  C  1094  1  0.42302600  0.84937100  0.90067900  1
  C  1095  1  0.41906100  0.83065600  0.91722500  1
  C  1096  1  0.44630700  0.81136000  0.91563700  1
  C  1097  1  0.47748700  0.81112900  0.89854800  1
  C  1098  1  0.48183700  0.83040200  0.88287600  1
  C  1102  1  0.45715300  0.86864500  0.86650800  1
  C  1103  1  0.44746200  0.89230300  0.87283100  1
  C  1104  1  0.44603600  0.91049700  0.85571200  1
  C  1105  1  0.45676300  0.90523800  0.83206800  1
  C  1106  1  0.46863700  0.88213100  0.82523400  1
  C  1107  1  0.46779500  0.86404000  0.84258100  1
  C  1111  1  0.95431700  0.64508300  0.09719900  1
  C  1112  1  0.92303400  0.64543300  0.07988700  1
  C  1113  1  0.91906900  0.66414700  0.06334200  1
  C  1114  1  0.94630600  0.68344700  0.06493700  1
  C  1115  1  0.97747700  0.68368300  0.08203000  1
  C  1116  1  0.98182700  0.66440600  0.09770100  1
  C  1120  1  0.95715300  0.62616000  0.11406400  1
  C  1121  1  0.94746500  0.60250200  0.10773700  1
  C  1122  1  0.94606000  0.58430400  0.12485300  1
  C  1123  1  0.95678800  0.58956100  0.14849700  1
  C  1124  1  0.96865900  0.61266800  0.15533300  1
  C  1125  1  0.96779800  0.63076400  0.13799100  1
  C  1129  1  0.95329500  0.34816600  0.38228400  1
  C  1130  1  0.97927200  0.32813700  0.38183000  1
  C  1131  1  0.97367300  0.30912200  0.39767000  1
  C  1132  1  0.94280700  0.31034400  0.41489800  1
  C  1133  1  0.91718600  0.33039600  0.41650400  1
  C  1134  1  0.92227000  0.34883900  0.39974400  1
  C  1138  1  0.95845800  0.36707400  0.36561900  1
  C  1139  1  0.96879600  0.36217700  0.34170300  1
  C  1140  1  0.97353400  0.38044300  0.32481800  1
  C  1141  1  0.96575700  0.40405200  0.33178000  1
  C  1142  1  0.95451800  0.40947800  0.35530600  1
  C  1143  1  0.95207200  0.39106500  0.37216600  1
  C  1147  1  0.45327900  0.14664300  0.59829200  1
  C  1148  1  0.47924700  0.16667600  0.59875300  1
  C  1149  1  0.47367000  0.18568700  0.58290600  1
  C  1150  1  0.44281100  0.18446400  0.56567500  1
  C  1151  1  0.41718700  0.16441300  0.56406800  1
  C  1152  1  0.42226200  0.14597100  0.58082700  1
  C  1156  1  0.45843900  0.12773200  0.61495400  1
  C  1157  1  0.46877900  0.13262600  0.63887200  1
  C  1158  1  0.47351500  0.11435700  0.65575500  1
  C  1159  1  0.46572200  0.09075100  0.64879100  1
  C  1160  1  0.45450000  0.08532800  0.62526200  1
  C  1161  1  0.45205100  0.10374300  0.60840300  1
  C  1165  1  0.70213800  0.63862000  0.89020000  1
  C  1166  1  0.72822200  0.63856800  0.91021700  1
  C  1167  1  0.72272700  0.65471500  0.92897900  1
  C  1168  1  0.69201600  0.67199100  0.92745500  1
  C  1169  1  0.66648600  0.67333200  0.90735900  1
  C  1170  1  0.67118700  0.65614000  0.88928500  1
  C  1174  1  0.70765100  0.62173800  0.87144700  1
  C  1175  1  0.71986700  0.59817300  0.87655300  1
  C  1176  1  0.72600400  0.58126000  0.85847900  1
  C  1177  1  0.71761900  0.58776800  0.83482000  1
  C  1178  1  0.70363200  0.61074900  0.82902200  1
  C  1179  1  0.70010900  0.62767100  0.84739800  1
  C  1183  1  0.20212000  0.85620300  0.09035100  1
  C  1184  1  0.22819800  0.85624700  0.07033300  1
  C  1185  1  0.22268500  0.84010400  0.05157000  1
  C  1186  1  0.19199800  0.82281600  0.05311200  1
  C  1187  1  0.16646800  0.82148400  0.07320900  1
  C  1188  1  0.17117200  0.83868100  0.09127600  1
  C  1192  1  0.20764000  0.87309000  0.10909900  1
  C  1193  1  0.21985200  0.89665300  0.10398700  1
  C  1194  1  0.22602200  0.91356700  0.12205800  1
  C  1195  1  0.21764300  0.90706200  0.14571900  1
  C  1196  1  0.20366600  0.88407900  0.15152500  1
  C  1197  1  0.20012800  0.86715700  0.13315200  1
  C  1201  1  0.46004400  0.85473000  0.59210900  1
  C  1202  1  0.49121000  0.83734800  0.59191900  1
  C  1203  1  0.49543000  0.82086100  0.57316800  1
  C  1204  1  0.46850200  0.82256000  0.55372100  1
  C  1205  1  0.43741700  0.83971000  0.55335100  1
  C  1206  1  0.43287400  0.85535700  0.57263200  1
  C  1210  1  0.45692900  0.87153200  0.61105600  1
  C  1211  1  0.46556500  0.86502800  0.63480700  1
  C  1212  1  0.46668500  0.88207800  0.65307400  1
  C  1213  1  0.45675200  0.90582600  0.64774100  1
  C  1214  1  0.44603600  0.91285700  0.62450600  1
  C  1215  1  0.44712100  0.89556500  0.60637000  1
  C  1219  1  0.96007000  0.64007600  0.38846000  1
  C  1220  1  0.99123500  0.65746000  0.38864500  1
  C  1221  1  0.99545200  0.67395700  0.40738800  1
  C  1222  1  0.96852200  0.67226200  0.42683600  1
  C  1223  1  0.93744900  0.65510600  0.42721600  1
  C  1224  1  0.93290700  0.63945200  0.40793900  1
  C  1228  1  0.95695800  0.62326900  0.36951900  1
  C  1229  1  0.96558300  0.62977400  0.34576400  1
  C  1230  1  0.96669100  0.61272000  0.32749900  1
  C  1231  1  0.95675700  0.58897400  0.33283600  1
  C  1232  1  0.94603800  0.58194600  0.35607200  1
  C  1233  1  0.94713400  0.59923800  0.37420600  1
  C  1237  1  0.21169800  0.14631400  0.09855700  1
  C  1238  1  0.24298400  0.14639400  0.08121800  1
  C  1239  1  0.24685100  0.16482200  0.06434300  1
  C  1240  1  0.21994300  0.18428100  0.06579000  1
  C  1241  1  0.18886400  0.18484700  0.08291000  1
  C  1242  1  0.18430400  0.16572700  0.09874400  1
  C  1246  1  0.20804700  0.12740700  0.11546000  1
  C  1247  1  0.21818500  0.10369200  0.10952500  1
  C  1248  1  0.21760700  0.08530900  0.12654000  1
  C  1249  1  0.20428400  0.09076800  0.14973300  1
  C  1250  1  0.19280400  0.11399500  0.15634700  1
  C  1251  1  0.19564600  0.13207100  0.13908600  1
  C  1255  1  0.71169500  0.34852000  0.88198700  1
  C  1256  1  0.74296900  0.34844000  0.89933600  1
  C  1257  1  0.74683000  0.33000700  0.91620700  1
  C  1258  1  0.71992200  0.31054800  0.91475400  1
  C  1259  1  0.68885800  0.30998200  0.89762500  1
  C  1260  1  0.68430300  0.32910600  0.88179400  1
  C  1264  1  0.70805300  0.36742900  0.86508600  1
  C  1265  1  0.71820300  0.39114100  0.87102500  1
  C  1266  1  0.71762500  0.40952700  0.85401200  1
  C  1267  1  0.70428900  0.40407300  0.83081900  1
  C  1268  1  0.69278900  0.38084900  0.82420300  1
  C  1269  1  0.69564600  0.36277200  0.84146100  1
  C  1273  1  0.71133000  0.64741300  0.59930200  1
  C  1274  1  0.68551700  0.66754300  0.59925700  1
  C  1275  1  0.69105100  0.68610500  0.58288100  1
  C  1276  1  0.72160100  0.68427200  0.56553300  1
  C  1277  1  0.74697000  0.66408800  0.56435700  1
  C  1278  1  0.74214100  0.64619000  0.58171900  1
  C  1282  1  0.70571300  0.62884900  0.61636200  1
  C  1283  1  0.69427700  0.63426100  0.63999500  1
  C  1284  1  0.68808200  0.61636900  0.65709100  1
  C  1285  1  0.69557300  0.59258800  0.65065100  1
  C  1286  1  0.70881100  0.58647900  0.62760200  1
  C  1287  1  0.71242500  0.60469200  0.61051800  1
  C  1291  1  0.21133900  0.84741400  0.38124700  1
  C  1292  1  0.18553600  0.82728000  0.38128000  1
  C  1293  1  0.19104600  0.80872700  0.39766900  1
  C  1294  1  0.22158300  0.81056000  0.41502400  1
  C  1295  1  0.24695800  0.83074100  0.41620000  1
  C  1296  1  0.24214200  0.84863800  0.39883200  1
  C  1300  1  0.20573200  0.86598100  0.36418600  1
  C  1301  1  0.19429200  0.86056900  0.34055300  1
  C  1302  1  0.18810400  0.87846200  0.32345500  1
  C  1303  1  0.19561900  0.90224000  0.32989600  1
  C  1304  1  0.20884100  0.90835000  0.35294600  1
  C  1305  1  0.21244700  0.89013800  0.37003000  1
  C  1309  1  0.95979000  0.35490700  0.09174800  1
  C  1310  1  0.93281300  0.35488900  0.07213500  1
  C  1311  1  0.93822800  0.33918400  0.05299000  1
  C  1312  1  0.96967000  0.32230700  0.05375800  1
  C  1313  1  0.99600500  0.32092200  0.07348900  1
  C  1314  1  0.99137200  0.33774100  0.09191500  1
  C  1318  1  0.95544600  0.37188000  0.11055500  1
  C  1319  1  0.94245100  0.39536400  0.10569400  1
  C  1320  1  0.93894300  0.41275300  0.12361400  1
  C  1321  1  0.95042600  0.40641000  0.14691500  1
  C  1322  1  0.96426900  0.38337400  0.15258400  1
  C  1323  1  0.96548300  0.36621400  0.13435100  1
  C  1327  1  0.45983300  0.13989100  0.88882200  1
  C  1328  1  0.43286500  0.13991300  0.90843900  1
  C  1329  1  0.43829100  0.15562100  0.92758100  1
  C  1330  1  0.46971000  0.17251100  0.92679500  1
  C  1331  1  0.49604400  0.17388800  0.90706200  1
  C  1332  1  0.49140900  0.15706000  0.88864300  1
  C  1336  1  0.45548000  0.12291200  0.87001900  1
  C  1337  1  0.44247200  0.09943100  0.87488400  1
  C  1338  1  0.43894100  0.08204400  0.85696600  1
  C  1339  1  0.45041300  0.08838100  0.83366200  1
  C  1340  1  0.46426200  0.11141600  0.82798800  1
  C  1341  1  0.46549300  0.12857800  0.84622000  1
  C  1345  1  0.00076709  0.28983400  0.39772000  1
  C  1346  1  0.99281700  0.26958000  0.38387800  1
  C  1347  1  0.01931410  0.25005600  0.38478100  1
  C  1348  1  0.05419010  0.25022300  0.39959200  1
  C  1349  1  0.06263010  0.27113800  0.41295200  1
  C  1350  1  0.03568910  0.29059000  0.41215700  1
  C  1352  1  0.08227010  0.23070000  0.40065500  1
  C  1353  1  0.07075410  0.20705500  0.39538900  1
  C  1354  1  0.09855310  0.18825600  0.39753900  1
  C  1355  1  0.13889700  0.19238100  0.40509200  1
  C  1356  1  0.15047100  0.21590300  0.41056900  1
  C  1357  1  0.12264400  0.23485200  0.40881900  1
  C  1362  1  0.13545900  0.25924500  0.41570000  1
  C  1363  1  0.09987710  0.27243300  0.42792200  1
  C  1369  1  0.50076600  0.20497400  0.58285800  1
  C  1370  1  0.49281200  0.22522600  0.59670100  1
  C  1371  1  0.51931000  0.24475000  0.59580300  1
  C  1372  1  0.55419500  0.24458100  0.58099700  1
  C  1373  1  0.56263800  0.22366700  0.56763900  1
  C  1374  1  0.53569400  0.20421500  0.56842900  1
  C  1376  1  0.58227100  0.26410500  0.57993400  1
  C  1377  1  0.57074900  0.28775100  0.58519100  1
  C  1378  1  0.59854300  0.30655200  0.58303700  1
  C  1379  1  0.63889000  0.30242700  0.57548600  1
  C  1380  1  0.65046700  0.27890700  0.57001800  1
  C  1381  1  0.62264900  0.25995500  0.57177300  1
  C  1386  1  0.63546700  0.23556100  0.56490000  1
  C  1387  1  0.59989100  0.22236800  0.55267400  1
  C  1393  1  0.24991500  0.83961200  0.03235600  1
  C  1394  1  0.24231200  0.85318700  0.01187900  1
  C  1395  1  0.26881200  0.85176200  0.99239300  1
  C  1396  1  0.30333600  0.83667100  0.99281100  1
  C  1397  1  0.31136500  0.82352900  0.01391400  1
  C  1398  1  0.28443000  0.82485500  0.03333700  1
  C  1400  1  0.33171300  0.83535300  0.97346000  1
  C  1401  1  0.32075400  0.84069300  0.94974600  1
  C  1402  1  0.34914300  0.83890300  0.93121800  1
  C  1403  1  0.38955900  0.83167600  0.93569800  1
  C  1404  1  0.40044800  0.82585900  0.95924700  1
  C  1405  1  0.37200000  0.82719300  0.97791700  1
  C  1410  1  0.38428400  0.82020800  0.00237300  1
  C  1411  1  0.34825900  0.80829200  0.01543800  1
  C  1417  1  0.74997000  0.65519300  0.94818800  1
  C  1418  1  0.74235700  0.64161500  0.96866300  1
  C  1419  1  0.76885800  0.64303400  0.98815100  1
  C  1420  1  0.80338400  0.65812200  0.98773500  1
  C  1421  1  0.81142200  0.67126500  0.96663500  1
  C  1422  1  0.78448400  0.66994500  0.94721100  1
  C  1424  1  0.83175200  0.65944200  0.00709100  1
  C  1425  1  0.82078100  0.65410100  0.03080400  1
  C  1426  1  0.84915900  0.65589500  0.04933700  1
  C  1427  1  0.88957500  0.66312900  0.04486600  1
  C  1428  1  0.90047400  0.66894400  0.02131800  1
  C  1429  1  0.87203800  0.66760500  0.00264300  1
  C  1434  1  0.88433300  0.67458800  0.97818700  1
  C  1435  1  0.84831600  0.68650200  0.96511600  1
  C  1441  1  0.66402200  0.70542200  0.58229600  1
  C  1442  1  0.67136900  0.72574000  0.59616000  1
  C  1443  1  0.64499400  0.74528700  0.59472100  1
  C  1444  1  0.61080200  0.74507000  0.57937400  1
  C  1445  1  0.60299200  0.72411900  0.56594800  1
  C  1446  1  0.62984800  0.70465400  0.56725900  1
  C  1448  1  0.58249000  0.76446100  0.57806600  1
  C  1449  1  0.59340800  0.78811600  0.58368300  1
  C  1450  1  0.56511300  0.80669200  0.58184200  1
  C  1451  1  0.52482800  0.80232700  0.57429800  1
  C  1452  1  0.51398600  0.77883000  0.56823500  1
  C  1453  1  0.54234800  0.76011700  0.56961200  1
  C  1458  1  0.53015200  0.73573300  0.56232400  1
  C  1459  1  0.56636400  0.72277700  0.55047700  1
  C  1465  1  0.16401300  0.78940900  0.39825000  1
  C  1466  1  0.17136100  0.76909500  0.38438500  1
  C  1467  1  0.14498500  0.74954700  0.38581900  1
  C  1468  1  0.11079000  0.74976100  0.40116400  1
  C  1469  1  0.10297700  0.77071300  0.41458900  1
  C  1470  1  0.12983300  0.79017800  0.41328300  1
  C  1472  1  0.08248310  0.73037100  0.40247000  1
  C  1473  1  0.09341210  0.70671600  0.39685600  1
  C  1474  1  0.06512210  0.68813400  0.39870300  1
  C  1475  1  0.02483610  0.69249700  0.40624700  1
  C  1476  1  0.01398410  0.71599500  0.41230400  1
  C  1477  1  0.04234010  0.73471100  0.41092200  1
  C  1482  1  0.03013610  0.75909400  0.41820700  1
  C  1483  1  0.06634210  0.77205200  0.43005500  1
  C  1489  1  0.41124300  0.15555300  0.94689000  1
  C  1490  1  0.42017200  0.14228000  0.96738900  1
  C  1491  1  0.39419300  0.14335200  0.98713000  1
  C  1492  1  0.35895400  0.15786500  0.98699700  1
  C  1493  1  0.34959300  0.17069200  0.96587700  1
  C  1494  1  0.37595200  0.16967500  0.94616000  1
  C  1496  1  0.33139100  0.15907100  0.00676400  1
  C  1497  1  0.34353900  0.15415900  0.03038600  1
  C  1498  1  0.31604400  0.15615800  0.04935900  1
  C  1499  1  0.27541200  0.16324700  0.04542400  1
  C  1500  1  0.26323500  0.16844400  0.02194300  1
  C  1501  1  0.29072800  0.16683800  0.00282400  1
  C  1506  1  0.27710000  0.17327000  0.97845800  1
  C  1507  1  0.31208300  0.18543500  0.96469000  1
  C  1513  1  0.91117700  0.33926300  0.03368200  1
  C  1514  1  0.92011300  0.35253800  0.01318700  1
  C  1515  1  0.89413600  0.35147200  0.99344300  1
  C  1516  1  0.85889800  0.33695900  0.99357100  1
  C  1517  1  0.84952700  0.32413100  0.01468900  1
  C  1518  1  0.87588100  0.32514400  0.03440800  1
  C  1520  1  0.83134500  0.33575200  0.97379900  1
  C  1521  1  0.84350300  0.34066700  0.95017900  1
  C  1522  1  0.81602000  0.33866700  0.93120200  1
  C  1523  1  0.77538400  0.33157400  0.93513000  1
  C  1524  1  0.76319600  0.32637600  0.95860800  1
  C  1525  1  0.79067900  0.32798300  0.97773200  1
  C  1530  1  0.77704200  0.32155000  0.00209500  1
  C  1531  1  0.81201600  0.30938800  0.01587100  1
  C  1537  1  0.50472700  0.79192900  0.89778900  1
  C  1538  1  0.49596800  0.77190200  0.88377200  1
  C  1539  1  0.52196600  0.75214400  0.88423500  1
  C  1540  1  0.55711600  0.75181800  0.89881200  1
  C  1541  1  0.56647800  0.77254900  0.91226800  1
  C  1542  1  0.54001300  0.79224300  0.91192500  1
  C  1544  1  0.58431000  0.73186500  0.89975600  1
  C  1545  1  0.57169700  0.70838000  0.89456800  1
  C  1546  1  0.59849500  0.68910800  0.89697800  1
  C  1547  1  0.63885400  0.69260700  0.90478400  1
  C  1548  1  0.65162100  0.71598600  0.90996800  1
  C  1549  1  0.62483900  0.73539900  0.90793200  1
  C  1554  1  0.63881800  0.75960500  0.91469000  1
  C  1555  1  0.60398300  0.77332600  0.92705200  1
  C  1561  1  0.00471309  0.70288300  0.08279400  1
  C  1562  1  0.99595100  0.72291200  0.09680800  1
  C  1563  1  0.02195210  0.74266800  0.09634700  1
  C  1564  1  0.05710810  0.74299300  0.08177600  1
  C  1565  1  0.06647310  0.72226100  0.06832300  1
  C  1566  1  0.04000610  0.70256900  0.06866100  1
  C  1568  1  0.08430210  0.76294500  0.08083400  1
  C  1569  1  0.07168810  0.78643200  0.08601700  1
  C  1570  1  0.09848310  0.80570400  0.08360400  1
  C  1571  1  0.13884200  0.80220700  0.07579600  1
  C  1572  1  0.15161200  0.77882500  0.07061700  1
  C  1573  1  0.12483500  0.75941300  0.07266000  1
  C  1578  1  0.13881500  0.73520400  0.06590700  1
  C  1579  1  0.10398400  0.72148200  0.05354300  1
  C  1585  1  0.75159100  0.34021800  0.53335300  1
  C  1586  1  0.74428900  0.35466400  0.51343500  1
  C  1587  1  0.77062200  0.35373600  0.49383900  1
  C  1588  1  0.80476500  0.33835900  0.49362300  1
  C  1589  1  0.81268800  0.32444900  0.51424800  1
  C  1590  1  0.78580700  0.32520300  0.53373400  1
  C  1592  1  0.83262600  0.33721600  0.47400200  1
  C  1593  1  0.82115800  0.34302300  0.45047200  1
  C  1594  1  0.84869600  0.34073600  0.43155100  1
  C  1595  1  0.88871700  0.33249700  0.43544000  1
  C  1596  1  0.90022400  0.32651400  0.45885200  1
  C  1597  1  0.87264700  0.32837700  0.47790700  1
  C  1602  1  0.88531900  0.32089000  0.50214600  1
  C  1603  1  0.84931100  0.30893500  0.51519200  1
  C  1609  1  0.25162200  0.15458700  0.44720300  1
  C  1610  1  0.24430500  0.14015100  0.46712500  1
  C  1611  1  0.27063500  0.14107800  0.48672300  1
  C  1612  1  0.30478700  0.15644900  0.48693800  1
  C  1613  1  0.31272200  0.17035000  0.46630900  1
  C  1614  1  0.28584700  0.16959500  0.44682100  1
  C  1616  1  0.33264200  0.15759300  0.50656200  1
  C  1617  1  0.32116500  0.15179300  0.53009200  1
  C  1618  1  0.34869900  0.15408200  0.54901500  1
  C  1619  1  0.38872200  0.16231500  0.54513000  1
  C  1620  1  0.40024100  0.16829100  0.52171700  1
  C  1621  1  0.37266700  0.16642700  0.50265900  1
  C  1626  1  0.38535000  0.17390300  0.47841800  1
  C  1627  1  0.34935200  0.18585700  0.46536300  1
  C  1633  1  0.16139900  0.20395700  0.08314200  1
  C  1634  1  0.16962900  0.22427500  0.09683900  1
  C  1635  1  0.14342400  0.24391900  0.09581000  1
  C  1636  1  0.10861200  0.24385200  0.08095300  1
  C  1637  1  0.09988310  0.22288300  0.06773400  1
  C  1638  1  0.12652600  0.20329000  0.06866700  1
  C  1640  1  0.08087910  0.26353700  0.07972800  1
  C  1641  1  0.09265410  0.28715200  0.08498500  1
  C  1642  1  0.06505510  0.30606500  0.08285600  1
  C  1643  1  0.02468710  0.30207600  0.07529300  1
  C  1644  1  0.01288210  0.27859500  0.06980500  1
  C  1645  1  0.04048710  0.25954300  0.07152400  1
  C  1650  1  0.02731310  0.23520300  0.06469200  1
  C  1651  1  0.06276110  0.22173100  0.05265500  1
  C  1657  1  0.66139300  0.29087200  0.89738600  1
  C  1658  1  0.66963800  0.27055200  0.88369300  1
  C  1659  1  0.64343000  0.25090800  0.88471400  1
  C  1660  1  0.60860700  0.25097500  0.89956300  1
  C  1661  1  0.59986600  0.27194700  0.91277700  1
  C  1662  1  0.62650700  0.29153900  0.91185100  1
  C  1664  1  0.58088200  0.23128700  0.90078900  1
  C  1665  1  0.59266700  0.20767200  0.89554200  1
  C  1666  1  0.56508100  0.18875400  0.89768000  1
  C  1667  1  0.52471000  0.19273900  0.90524000  1
  C  1668  1  0.51289000  0.21622200  0.91071500  1
  C  1669  1  0.54048500  0.23527700  0.90898700  1
  C  1674  1  0.52729700  0.25961900  0.91580700  1
  C  1675  1  0.56273400  0.27310000  0.92784700  1
  C  1681  1  0.91018800  0.65443200  0.44641700  1
  C  1682  1  0.91876800  0.64043700  0.46648500  1
  C  1683  1  0.89253900  0.64087700  0.48614500  1
  C  1684  1  0.85731300  0.65539500  0.48632700  1
  C  1685  1  0.84817600  0.66885800  0.46556700  1
  C  1686  1  0.87486200  0.66853500  0.44597500  1
  C  1688  1  0.82981400  0.65627100  0.50614900  1
  C  1689  1  0.84210900  0.65109400  0.52969400  1
  C  1690  1  0.81505800  0.65352100  0.54884300  1
  C  1691  1  0.77474200  0.66133100  0.54516900  1
  C  1692  1  0.76227100  0.66646200  0.52172300  1
  C  1693  1  0.78930300  0.66440100  0.50243000  1
  C  1698  1  0.77564900  0.67115000  0.47815700  1
  C  1699  1  0.81062200  0.68359100  0.46463200  1
  C  1705  1  0.41015600  0.84039100  0.53415100  1
  C  1706  1  0.41875100  0.85437700  0.51407800  1
  C  1707  1  0.39252400  0.85394100  0.49441800  1
  C  1708  1  0.35728400  0.83943100  0.49423900  1
  C  1709  1  0.34813400  0.82597800  0.51500000  1
  C  1710  1  0.37481600  0.82629900  0.53459500  1
  C  1712  1  0.32979000  0.83855300  0.47441400  1
  C  1713  1  0.34209500  0.84372300  0.45086800  1
  C  1714  1  0.31504600  0.84129600  0.43171700  1
  C  1715  1  0.27472700  0.83349700  0.43539200  1
  C  1716  1  0.26224400  0.82837300  0.45883600  1
  C  1717  1  0.28927300  0.83043300  0.47813100  1
  C  1722  1  0.27560600  0.82369400  0.50240300  1
  C  1723  1  0.31057100  0.81125200  0.51593700  1
  C  1729  1  0.18166300  0.11909500  0.18028400  1
  C  1730  1  0.15586500  0.10366600  0.19305700  1
  C  1731  1  0.15010000  0.10642300  0.21756900  1
  C  1732  1  0.16932200  0.12499300  0.23033800  1
  C  1733  1  0.19281300  0.14162900  0.21715600  1
  C  1734  1  0.19895000  0.13850500  0.19254700  1
  C  1736  1  0.17215500  0.12492300  0.25588800  1
  C  1737  1  0.14630300  0.11098500  0.27043000  1
  C  1738  1  0.15524100  0.10711500  0.29445900  1
  C  1739  1  0.18990200  0.11750900  0.30487600  1
  C  1740  1  0.21386500  0.13313900  0.29126800  1
  C  1741  1  0.20499600  0.13718400  0.26706600  1
  C  1746  1  0.23295300  0.15253900  0.25303500  1
  C  1747  1  0.21284200  0.16153100  0.22990900  1
  C  1753  1  0.68166200  0.37575700  0.80026200  1
  C  1754  1  0.65586200  0.39118400  0.78749300  1
  C  1755  1  0.65009600  0.38842800  0.76298100  1
  C  1756  1  0.66931600  0.36986000  0.75021200  1
  C  1757  1  0.69280700  0.35322100  0.76339300  1
  C  1758  1  0.69894400  0.35634400  0.78800300  1
  C  1760  1  0.67214800  0.36992900  0.72466200  1
  C  1761  1  0.64629600  0.38386900  0.71012000  1
  C  1762  1  0.65523200  0.38773500  0.68608900  1
  C  1763  1  0.68988600  0.37733800  0.67567200  1
  C  1764  1  0.71384900  0.36170700  0.68928000  1
  C  1765  1  0.70498300  0.35766600  0.71348200  1
  C  1770  1  0.73294100  0.34230800  0.72751300  1
  C  1771  1  0.71283000  0.33333333  0.75064000  1
  C  1777  1  0.42712300  0.05824800  0.86229400  1
  C  1778  1  0.40126700  0.04547300  0.84689200  1
  C  1779  1  0.39485600  0.02104600  0.84993100  1
  C  1780  1  0.41340200  0.00836600  0.86879300  1
  C  1781  1  0.43676400  0.02160700  0.88544500  1
  C  1782  1  0.44364500  0.04610300  0.88200300  1
  C  1784  1  0.41589800  0.98279600  0.86900400  1
  C  1785  1  0.39045800  0.96820300  0.85485600  1
  C  1786  1  0.39953100  0.94415700  0.85113100  1
  C  1787  1  0.43386100  0.93376400  0.86191600  1
  C  1788  1  0.45728800  0.94743400  0.87777400  1
  C  1789  1  0.44830200  0.97163500  0.88166800  1
  C  1794  1  0.47596100  0.98567400  0.89719800  1
  C  1795  1  0.45594200  0.00899500  0.90571400  1
  C  1801  1  0.92714100  0.43655000  0.11828600  1
  C  1802  1  0.90129200  0.44932800  0.13368700  1
  C  1803  1  0.89489100  0.47375700  0.13064700  1
  C  1804  1  0.91344100  0.48643400  0.11178500  1
  C  1805  1  0.93680400  0.47318900  0.09513400  1
  C  1806  1  0.94367400  0.44869300  0.09857700  1
  C  1808  1  0.91593600  0.51200400  0.11156900  1
  C  1809  1  0.89048800  0.52659800  0.12570900  1
  C  1810  1  0.89955800  0.55064400  0.12943000  1
  C  1811  1  0.93389000  0.56103700  0.11864900  1
  C  1812  1  0.95732600  0.54736400  0.10279800  1
  C  1813  1  0.94834500  0.52316200  0.09890800  1
  C  1818  1  0.97601000  0.50912100  0.08338600  1
  C  1819  1  0.95599300  0.48579900  0.07486800  1
  C  1825  1  0.97706600  0.37796100  0.17612900  1
  C  1826  1  0.00295209  0.39363000  0.18853900  1
  C  1827  1  0.01152810  0.39018800  0.21266900  1
  C  1828  1  0.99505300  0.37072400  0.22538400  1
  C  1829  1  0.97110300  0.35405900  0.21248800  1
  C  1830  1  0.96235200  0.35775800  0.18820600  1
  C  1832  1  0.99538500  0.36982400  0.25096500  1
  C  1833  1  0.02224110  0.38365900  0.26499000  1
  C  1834  1  0.01594910  0.38652500  0.28945600  1
  C  1835  1  0.98302600  0.37523200  0.30083400  1
  C  1836  1  0.95828400  0.35972200  0.28750500  1
  C  1837  1  0.96455800  0.35659900  0.26291200  1
  C  1842  1  0.93577000  0.34124900  0.24945300  1
  C  1843  1  0.95357200  0.33339800  0.22528100  1
  C  1849  1  0.47704900  0.11682300  0.80444100  1
  C  1850  1  0.50293000  0.10115300  0.79203000  1
  C  1851  1  0.51151000  0.10459500  0.76790300  1
  C  1852  1  0.49504200  0.12406400  0.75518900  1
  C  1853  1  0.47110000  0.14073200  0.76808700  1
  C  1854  1  0.46235000  0.13703400  0.79236700  1
  C  1856  1  0.49537500  0.12496600  0.72960600  1
  C  1857  1  0.52222400  0.11112800  0.71558100  1
  C  1858  1  0.51593100  0.10826500  0.69111500  1
  C  1859  1  0.48301300  0.11956400  0.67973700  1
  C  1860  1  0.45827800  0.13507800  0.69306800  1
  C  1861  1  0.46455600  0.13819700  0.71766100  1
  C  1866  1  0.43577500  0.15355300  0.73112200  1
  C  1867  1  0.45358200  0.16139700  0.75529500  1
  C  1873  1  0.73056200  0.43298200  0.85974600  1
  C  1874  1  0.75659900  0.44556000  0.84429100  1
  C  1875  1  0.76545300  0.46959800  0.84812700  1
  C  1876  1  0.74914500  0.48205700  0.86780400  1
  C  1877  1  0.72511800  0.46896000  0.88427400  1
  C  1878  1  0.71604300  0.44479000  0.88016000  1
  C  1880  1  0.74955900  0.50762800  0.86907000  1
  C  1881  1  0.77624500  0.52184300  0.85531400  1
  C  1882  1  0.76964300  0.54630300  0.85258500  1
  C  1883  1  0.73659800  0.55748200  0.86395800  1
  C  1884  1  0.71213600  0.54396400  0.87946100  1
  C  1885  1  0.71872900  0.51939100  0.88245600  1
  C  1890  1  0.69005400  0.50576000  0.89772800  1
  C  1891  1  0.70781900  0.48145900  0.90517800  1
  C  1897  1  0.23053800  0.06185200  0.12080700  1
  C  1898  1  0.25657500  0.04927300  0.13626000  1
  C  1899  1  0.26542600  0.02523500  0.13242400  1
  C  1900  1  0.24911200  0.01277700  0.11274600  1
  C  1901  1  0.22507900  0.02587400  0.09627900  1
  C  1902  1  0.21601000  0.05004500  0.10039500  1
  C  1904  1  0.24953200  0.98720500  0.11147900  1
  C  1905  1  0.27623000  0.97299200  0.12522700  1
  C  1906  1  0.26964000  0.94853100  0.12795300  1
  C  1907  1  0.23658900  0.93735000  0.11658500  1
  C  1908  1  0.21211800  0.95086700  0.10108700  1
  C  1909  1  0.21870200  0.97544200  0.09809600  1
  C  1914  1  0.19001400  0.98907100  0.08283000  1
  C  1915  1  0.20777300  0.01337600  0.07537900  1
  C  1921  1  0.47937900  0.87717800  0.80122200  1
  C  1922  1  0.50488100  0.89276000  0.78844100  1
  C  1923  1  0.51183600  0.88952400  0.76409700  1
  C  1924  1  0.49410100  0.87034300  0.75150700  1
  C  1925  1  0.47036600  0.85381100  0.76467500  1
  C  1926  1  0.46315500  0.85735400  0.78913300  1
  C  1928  1  0.49301100  0.86960900  0.72593200  1
  C  1929  1  0.51954900  0.88328600  0.71156800  1
  C  1930  1  0.51187500  0.88657600  0.68730200  1
  C  1931  1  0.47789300  0.87581700  0.67649200  1
  C  1932  1  0.45352100  0.86029600  0.68999700  1
  C  1933  1  0.46115300  0.85680300  0.71442300  1
  C  1938  1  0.43267300  0.84162400  0.72829200  1
  C  1939  1  0.45154200  0.83342200  0.75206800  1
  C  1945  1  0.97938400  0.61762000  0.17934700  1
  C  1946  1  0.00489909  0.60204300  0.19212700  1
  C  1947  1  0.01184810  0.60527700  0.21647300  1
  C  1948  1  0.99409800  0.62445500  0.22906400  1
  C  1949  1  0.97035700  0.64098300  0.21589600  1
  C  1950  1  0.96315200  0.63744000  0.19143800  1
  C  1952  1  0.99300900  0.62518700  0.25463900  1
  C  1953  1  0.01955110  0.61151300  0.26900300  1
  C  1954  1  0.01188110  0.60822400  0.29326900  1
  C  1955  1  0.97789600  0.61897800  0.30407900  1
  C  1956  1  0.95351400  0.63449500  0.29057600  1
  C  1957  1  0.96114400  0.63798800  0.26614800  1
  C  1962  1  0.93265400  0.65316300  0.25228000  1
  C  1963  1  0.95152100  0.66136900  0.22850500  1
  C  1969  1  0.69148000  0.61617800  0.80538400  1
  C  1970  1  0.66563400  0.60055600  0.79289600  1
  C  1971  1  0.65587700  0.60459200  0.76901700  1
  C  1972  1  0.67114100  0.62459600  0.75663600  1
  C  1973  1  0.69566400  0.64096900  0.76954200  1
  C  1974  1  0.70543300  0.63673900  0.79360900  1
  C  1976  1  0.66898700  0.62636400  0.73114300  1
  C  1977  1  0.64111200  0.61301100  0.71733800  1
  C  1978  1  0.64605300  0.61066400  0.69271400  1
  C  1979  1  0.67859200  0.62200400  0.68099800  1
  C  1980  1  0.70403700  0.63726800  0.69418300  1
  C  1981  1  0.69905300  0.63992000  0.71893100  1
  C  1986  1  0.72863000  0.65491100  0.73222000  1
  C  1987  1  0.71235800  0.66201400  0.75699500  1
  C  1993  1  0.19152000  0.87865600  0.17516400  1
  C  1994  1  0.16567100  0.89427900  0.18765200  1
  C  1995  1  0.15591100  0.89024300  0.21153000  1
  C  1996  1  0.17117200  0.87023700  0.22391200  1
  C  1997  1  0.19569200  0.85386300  0.21100600  1
  C  1998  1  0.20546400  0.85809200  0.18693900  1
  C  2000  1  0.16900900  0.86847000  0.24940400  1
  C  2001  1  0.14113300  0.88182400  0.26320900  1
  C  2002  1  0.14607100  0.88417200  0.28783300  1
  C  2003  1  0.17860500  0.87282700  0.29954800  1
  C  2004  1  0.20405200  0.85756200  0.28636600  1
  C  2005  1  0.19907200  0.85491100  0.26161900  1
  C  2010  1  0.22864800  0.83991900  0.24833200  1
  C  2011  1  0.21238000  0.83281500  0.22355500  1
  C  2017  1  0.93646700  0.55777500  0.36105100  1
  C  2018  1  0.91086400  0.54473400  0.34574100  1
  C  2019  1  0.90537800  0.52024000  0.34876100  1
  C  2020  1  0.92473500  0.50774200  0.36746300  1
  C  2021  1  0.94854500  0.52113000  0.38378200  1
  C  2022  1  0.95426800  0.54575300  0.38044800  1
  C  2024  1  0.92711100  0.48218800  0.36787400  1
  C  2025  1  0.90055600  0.46755100  0.35450200  1
  C  2026  1  0.90890800  0.44339000  0.35104600  1
  C  2027  1  0.94365600  0.43297200  0.36132600  1
  C  2028  1  0.96832200  0.44671100  0.37646000  1
  C  2029  1  0.96000600  0.47104600  0.38010700  1
  C  2034  1  0.98856000  0.48523400  0.39494000  1
  C  2035  1  0.96897900  0.50861700  0.40370100  1
  C  2041  1  0.43648100  0.93703000  0.61952900  1
  C  2042  1  0.41086600  0.95006900  0.63483200  1
  C  2043  1  0.40537500  0.97456400  0.63180900  1
  C  2044  1  0.42474000  0.98706100  0.61310800  1
  C  2045  1  0.44855800  0.97367300  0.59679500  1
  C  2046  1  0.45428400  0.94905100  0.60012800  1
  C  2048  1  0.42711200  0.01261300  0.61269500  1
  C  2049  1  0.40054600  0.02725200  0.62606000  1
  C  2050  1  0.40889200  0.05141300  0.62951500  1
  C  2051  1  0.44364100  0.06183500  0.61923800  1
  C  2052  1  0.46831800  0.04809300  0.60411100  1
  C  2053  1  0.46001100  0.02375600  0.60046600  1
  C  2058  1  0.48857300  0.00956900  0.58563800  1
  C  2059  1  0.46899800  0.98618500  0.57687700  1
  C  2065  1  0.22018400  0.93215800  0.35822100  1
  C  2066  1  0.24595400  0.94472500  0.34261500  1
  C  2067  1  0.25457900  0.96880300  0.34628400  1
  C  2068  1  0.23827200  0.98132300  0.36591700  1
  C  2069  1  0.21395000  0.96835400  0.38234300  1
  C  2070  1  0.20527200  0.94408100  0.37846600  1
  C  2072  1  0.23944600  0.00686400  0.36727500  1
  C  2073  1  0.26703900  0.02079000  0.35384200  1
  C  2074  1  0.26158000  0.04535300  0.35130900  1
  C  2075  1  0.22883700  0.05689900  0.36259800  1
  C  2076  1  0.20347700  0.04364700  0.37783500  1
  C  2077  1  0.20889300  0.01893600  0.38059500  1
  C  2082  1  0.17948700  0.00551100  0.39557700  1
  C  2083  1  0.19641000  0.98100400  0.40309400  1
  C  2089  1  0.72015600  0.56267000  0.62232900  1
  C  2090  1  0.74592600  0.55010500  0.63793500  1
  C  2091  1  0.75456100  0.52602900  0.63426400  1
  C  2092  1  0.73826500  0.51351000  0.61462700  1
  C  2093  1  0.71394900  0.52647800  0.59819800  1
  C  2094  1  0.70526000  0.55075100  0.60207600  1
  C  2096  1  0.73944300  0.48796800  0.61326600  1
  C  2097  1  0.76702900  0.47404300  0.62670400  1
  C  2098  1  0.76157100  0.44948100  0.62923400  1
  C  2099  1  0.72883900  0.43793100  0.61793600  1
  C  2100  1  0.70348300  0.45118600  0.60269900  1
  C  2101  1  0.70890200  0.47589700  0.59994000  1
  C  2106  1  0.67949900  0.48932200  0.58495400  1
  C  2107  1  0.69642200  0.51382900  0.57744200  1
