# generated using pymatgen
data_H44C53N8
_symmetry_space_group_name_H-M   'P 1'
_cell_length_a   31.74980000
_cell_length_b   86.30480000
_cell_length_c   86.30480000
_cell_angle_alpha   90.00000000
_cell_angle_beta   90.00000000
_cell_angle_gamma   90.00000000
_symmetry_Int_Tables_number   1
_chemical_formula_structural   H44C53N8
_chemical_formula_sum   'H704 C848 N128'
_cell_volume   236488.97276782
_cell_formula_units_Z   16
loop_
 _symmetry_equiv_pos_site_id
 _symmetry_equiv_pos_as_xyz
  1  'x, y, z'
loop_
 _atom_site_type_symbol
 _atom_site_label
 _atom_site_symmetry_multiplicity
 _atom_site_fract_x
 _atom_site_fract_y
 _atom_site_fract_z
 _atom_site_occupancy
  H  25  1  0.26693200  0.11640800  0.94645000  1
  H  26  1  0.21857900  0.09510600  0.94964900  1
  H  27  1  0.17366100  0.07223400  0.95822000  1
  H  28  1  0.13548800  0.05199700  0.97138600  1
  H  29  1  0.19915100  0.06268900  0.01313000  1
  H  30  1  0.30557200  0.11174300  0.99316700  1
  H  31  1  0.30474700  0.06352900  0.98740900  1
  H  32  1  0.36958700  0.05619700  0.02961300  1
  H  33  1  0.32823500  0.07620700  0.04178400  1
  H  34  1  0.18597800  0.10921100  0.00564100  1
  H  35  1  0.27741100  0.09772400  0.04958500  1
  H  36  1  0.22187000  0.11659100  0.05230300  1
  H  39  1  0.14862800  0.03217300  0.99584400  1
  H  40  1  0.14682000  0.04220000  0.01361600  1
  H  42  1  0.33517100  0.13275600  0.97794600  1
  H  43  1  0.29944700  0.13929100  0.96374300  1
  H  45  1  0.35970300  0.04408600  0.98791400  1
  H  46  1  0.35549200  0.03473900  0.00599900  1
  H  48  1  0.14617200  0.12319900  0.04127100  1
  H  49  1  0.14414700  0.12680200  0.02124600  1
  H  74  1  0.76694400  0.38334600  0.05331200  1
  H  75  1  0.71859400  0.40464800  0.05011300  1
  H  76  1  0.67363300  0.42750800  0.04153900  1
  H  77  1  0.63545000  0.44774200  0.02837200  1
  H  78  1  0.69915800  0.43706500  0.98663200  1
  H  79  1  0.80559900  0.38801800  0.00659700  1
  H  80  1  0.80475800  0.43623900  0.01235100  1
  H  81  1  0.86961900  0.44355800  0.97014900  1
  H  82  1  0.82828900  0.42353600  0.95798400  1
  H  83  1  0.68598300  0.39056000  0.99412300  1
  H  84  1  0.77743500  0.40203100  0.95018100  1
  H  85  1  0.72187300  0.38317200  0.94746300  1
  H  88  1  0.64858700  0.46757100  0.00391200  1
  H  89  1  0.64678900  0.45754100  0.98614200  1
  H  91  1  0.83520600  0.36700500  0.02181700  1
  H  92  1  0.79947700  0.36046400  0.03601700  1
  H  94  1  0.85972600  0.45567200  0.01184900  1
  H  95  1  0.85544900  0.46502400  0.99376800  1
  H  97  1  0.64616800  0.37657500  0.95849100  1
  H  98  1  0.64413400  0.37297600  0.97851700  1
  H  123  1  0.51703400  0.30331200  0.86635700  1
  H  124  1  0.46869000  0.30010700  0.84505400  1
  H  125  1  0.42371600  0.29152100  0.82220000  1
  H  126  1  0.38554300  0.27834500  0.80196900  1
  H  127  1  0.44926000  0.23661300  0.81266200  1
  H  128  1  0.55568900  0.25659500  0.86170100  1
  H  129  1  0.55484200  0.26234200  0.81348400  1
  H  130  1  0.61968300  0.22013800  0.80615200  1
  H  131  1  0.57836300  0.20797200  0.82617500  1
  H  132  1  0.43605300  0.24410600  0.85915400  1
  H  133  1  0.52751200  0.20016700  0.84767900  1
  H  134  1  0.47193700  0.19744400  0.86653400  1
  H  137  1  0.39868300  0.25387700  0.78215100  1
  H  138  1  0.39689400  0.23611100  0.79218800  1
  H  140  1  0.58529500  0.27182200  0.88270800  1
  H  141  1  0.54956000  0.28601800  0.88924800  1
  H  143  1  0.60978400  0.26183800  0.79403800  1
  H  144  1  0.60552200  0.24375600  0.78469000  1
  H  146  1  0.39624500  0.20846700  0.87313200  1
  H  147  1  0.39418200  0.22849400  0.87672800  1
  H  172  1  0.01701700  0.19645700  0.13340700  1
  H  173  1  0.96867100  0.19966300  0.15471100  1
  H  174  1  0.92369800  0.20825100  0.17756300  1
  H  175  1  0.88555900  0.22142300  0.19780400  1
  H  176  1  0.94932600  0.26315000  0.18712700  1
  H  177  1  0.05568900  0.24317200  0.13806400  1
  H  178  1  0.05484400  0.23743100  0.18629800  1
  H  179  1  0.11960500  0.27964800  0.19365200  1
  H  180  1  0.07827500  0.29181100  0.17363000  1
  H  181  1  0.93606300  0.25565700  0.14062000  1
  H  182  1  0.02746200  0.29960900  0.15211300  1
  H  183  1  0.97188700  0.30232900  0.13325900  1
  H  186  1  0.89869000  0.24588100  0.21762900  1
  H  187  1  0.89695100  0.26365200  0.20760000  1
  H  189  1  0.08526000  0.22794800  0.11704800  1
  H  190  1  0.04952600  0.21374800  0.11051300  1
  H  192  1  0.10974300  0.23794900  0.20576400  1
  H  193  1  0.10550400  0.25603700  0.21510300  1
  H  195  1  0.89621400  0.29129600  0.12665000  1
  H  196  1  0.89417300  0.27127000  0.12305300  1
  H  221  1  0.74036100  0.88282500  0.05293100  1
  H  222  1  0.78951700  0.90376600  0.04897000  1
  H  223  1  0.83489700  0.92627500  0.03962800  1
  H  224  1  0.86978900  0.94720900  0.02627400  1
  H  225  1  0.79576900  0.93863700  0.98638900  1
  H  226  1  0.69386000  0.88880300  0.00735800  1
  H  227  1  0.69906300  0.93775800  0.01269700  1
  H  228  1  0.62366700  0.94306000  0.97261000  1
  H  229  1  0.66197600  0.92245100  0.96005600  1
  H  230  1  0.81378200  0.89157200  0.99266000  1
  H  231  1  0.71293400  0.90139600  0.95117000  1
  H  232  1  0.76913000  0.88300200  0.94725000  1
  H  235  1  0.85206900  0.96833600  0.00508400  1
  H  236  1  0.84188000  0.96103200  0.98640200  1
  H  238  1  0.66646500  0.86750500  0.02266400  1
  H  239  1  0.70319600  0.86063100  0.03634700  1
  H  241  1  0.65047400  0.95922600  0.01173500  1
  H  242  1  0.64140300  0.96563600  0.99264800  1
  H  244  1  0.84745500  0.87749900  0.95629600  1
  H  245  1  0.85366900  0.87407900  0.97625100  1
  H  270  1  0.24029000  0.61693800  0.94684200  1
  H  271  1  0.28949000  0.59601000  0.95079300  1
  H  272  1  0.33490000  0.57350300  0.96012300  1
  H  273  1  0.36984800  0.55257900  0.97347000  1
  H  274  1  0.29587800  0.56113300  0.01337000  1
  H  275  1  0.19382800  0.61093600  0.99241800  1
  H  276  1  0.19905000  0.56201700  0.98705500  1
  H  277  1  0.12357400  0.55673800  0.02712700  1
  H  278  1  0.16190700  0.57733600  0.03969200  1
  H  279  1  0.31378100  0.60819900  0.00710000  1
  H  280  1  0.21293300  0.59837300  0.04859000  1
  H  281  1  0.26910300  0.61677800  0.05250600  1
  H  284  1  0.35216000  0.53144400  0.99465600  1
  H  285  1  0.34199300  0.53874100  0.01334200  1
  H  287  1  0.16637400  0.63222900  0.97711800  1
  H  288  1  0.20310800  0.63911900  0.96344500  1
  H  290  1  0.15035500  0.54058200  0.98799300  1
  H  291  1  0.14131200  0.53414900  0.00707300  1
  H  293  1  0.34743600  0.62228300  0.04345800  1
  H  294  1  0.35364000  0.62570500  0.02350400  1
  H  319  1  0.48310900  0.69669400  0.13327400  1
  H  320  1  0.53150000  0.69985800  0.15457300  1
  H  321  1  0.57645100  0.70840100  0.17745400  1
  H  322  1  0.61458400  0.72153800  0.19772000  1
  H  323  1  0.55082900  0.76328400  0.18711100  1
  H  324  1  0.44442200  0.74339700  0.13804200  1
  H  325  1  0.44528800  0.73748700  0.18621900  1
  H  326  1  0.38007800  0.77960600  0.19361100  1
  H  327  1  0.42138600  0.79186200  0.17364000  1
  H  328  1  0.56379300  0.75589900  0.14051400  1
  H  329  1  0.47221100  0.79976100  0.15215600  1
  H  330  1  0.52756900  0.80253900  0.13322600  1
  H  333  1  0.60136500  0.74596300  0.21758900  1
  H  334  1  0.60318200  0.76374900  0.20759000  1
  H  336  1  0.41496000  0.72823600  0.11696700  1
  H  337  1  0.45046900  0.71395500  0.11044500  1
  H  339  1  0.39023900  0.73788700  0.20563100  1
  H  340  1  0.39436200  0.75594300  0.21503600  1
  H  342  1  0.60336800  0.79152800  0.12657800  1
  H  343  1  0.60525800  0.77152600  0.12282600  1
  H  368  1  0.98316300  0.80306300  0.86650700  1
  H  369  1  0.03155800  0.79990100  0.84520900  1
  H  370  1  0.07648700  0.79136400  0.82232000  1
  H  371  1  0.11461000  0.77823100  0.80204800  1
  H  372  1  0.05084700  0.73648400  0.81264700  1
  H  373  1  0.94446000  0.75636400  0.86172700  1
  H  374  1  0.94531100  0.76228200  0.81355600  1
  H  375  1  0.88012900  0.72016200  0.80614800  1
  H  376  1  0.92145800  0.70789800  0.82610700  1
  H  377  1  0.06383700  0.74385700  0.85925100  1
  H  378  1  0.97224000  0.70000100  0.84760300  1
  H  379  1  0.02759900  0.69721600  0.86653200  1
  H  382  1  0.10142800  0.75381600  0.78217700  1
  H  383  1  0.10320500  0.73602400  0.79216800  1
  H  385  1  0.91500800  0.77151800  0.88281000  1
  H  386  1  0.95051400  0.78580200  0.88933200  1
  H  388  1  0.89027400  0.76188400  0.79414000  1
  H  389  1  0.89433400  0.74382300  0.78473700  1
  H  391  1  0.10339800  0.70822500  0.87318800  1
  H  392  1  0.10528900  0.72822600  0.87694100  1
  H  417  1  0.76662300  0.61650600  0.44669500  1
  H  418  1  0.71830400  0.59518600  0.44986400  1
  H  419  1  0.67343200  0.57228500  0.45841300  1
  H  420  1  0.63530500  0.55202600  0.47156600  1
  H  421  1  0.69912300  0.56264800  0.51329600  1
  H  422  1  0.80541400  0.61173900  0.49338500  1
  H  423  1  0.80460400  0.56352500  0.48749100  1
  H  424  1  0.86970400  0.55610200  0.52962400  1
  H  425  1  0.82843100  0.57608600  0.54187400  1
  H  426  1  0.68606500  0.60921400  0.50589900  1
  H  427  1  0.77770300  0.59760800  0.54975500  1
  H  428  1  0.72227900  0.61651200  0.55254100  1
  H  431  1  0.64850500  0.53217000  0.49599700  1
  H  432  1  0.64675700  0.54217600  0.51378000  1
  H  434  1  0.83477800  0.63283300  0.47822600  1
  H  435  1  0.79924700  0.63933900  0.46394400  1
  H  437  1  0.85957800  0.54408400  0.48790700  1
  H  438  1  0.85548300  0.53469600  0.50597300  1
  H  440  1  0.64646800  0.62313900  0.54153400  1
  H  441  1  0.64454900  0.62688400  0.52153100  1
  H  466  1  0.26663000  0.88324900  0.55306000  1
  H  467  1  0.21831700  0.90457100  0.54989000  1
  H  468  1  0.17339900  0.92745700  0.54133600  1
  H  469  1  0.13525600  0.94771000  0.52818000  1
  H  470  1  0.19911800  0.93710100  0.48645500  1
  H  471  1  0.30543200  0.88802000  0.50637000  1
  H  472  1  0.30460700  0.93624300  0.51225900  1
  H  473  1  0.36973500  0.94365300  0.47012900  1
  H  474  1  0.32848400  0.92365700  0.45788500  1
  H  475  1  0.18607200  0.89055200  0.49385600  1
  H  476  1  0.27773200  0.90214500  0.45000300  1
  H  477  1  0.22229400  0.88324800  0.44721700  1
  H  480  1  0.14845100  0.96757000  0.50374600  1
  H  481  1  0.14671200  0.95755900  0.48596600  1
  H  483  1  0.33480900  0.86693000  0.52153100  1
  H  484  1  0.29926900  0.86041800  0.53580800  1
  H  486  1  0.35958700  0.95567700  0.51184600  1
  H  487  1  0.35543600  0.96506700  0.49378400  1
  H  489  1  0.14647300  0.87662900  0.45822100  1
  H  490  1  0.14455000  0.87288500  0.47822400  1
  H  515  1  0.00947200  0.80293000  0.36695900  1
  H  516  1  0.96033100  0.79897400  0.34601200  1
  H  517  1  0.91491400  0.78962600  0.32351200  1
  H  518  1  0.87999700  0.77626400  0.30258800  1
  H  519  1  0.95407600  0.73639100  0.31114100  1
  H  520  1  0.05603100  0.75736700  0.36095700  1
  H  521  1  0.05085400  0.76272600  0.31202200  1
  H  522  1  0.12625300  0.72264200  0.30669800  1
  H  523  1  0.08796200  0.71007900  0.32730700  1
  H  524  1  0.93605400  0.74265100  0.35815500  1
  H  525  1  0.03702400  0.70119000  0.34837200  1
  H  526  1  0.98077200  0.69725200  0.36673900  1
  H  529  1  0.89770700  0.75506700  0.28145300  1
  H  530  1  0.90791500  0.73639000  0.28876500  1
  H  532  1  0.08341900  0.77266900  0.38225900  1
  H  533  1  0.04666800  0.78634000  0.38914200  1
  H  535  1  0.09948600  0.76179000  0.29057100  1
  H  536  1  0.10846800  0.74270700  0.28413300  1
  H  538  1  0.90241600  0.70627200  0.37221600  1
  H  539  1  0.89613900  0.72622600  0.37562700  1
  H  564  1  0.50936100  0.69683700  0.63279600  1
  H  565  1  0.46024900  0.70080100  0.65375000  1
  H  566  1  0.41488200  0.71015500  0.67626100  1
  H  567  1  0.38002200  0.72351900  0.69719700  1
  H  568  1  0.45417000  0.76337500  0.68864100  1
  H  569  1  0.55599400  0.74239000  0.63879400  1
  H  570  1  0.55081000  0.73706000  0.68777400  1
  H  571  1  0.62613700  0.77716000  0.69311000  1
  H  572  1  0.58788100  0.78970700  0.67248200  1
  H  573  1  0.43604700  0.75711000  0.64162100  1
  H  574  1  0.53697100  0.79858400  0.65140900  1
  H  575  1  0.48069600  0.80252100  0.63305200  1
  H  578  1  0.39779500  0.74470700  0.71833200  1
  H  579  1  0.40802800  0.76338400  0.71102300  1
  H  581  1  0.58330800  0.72708800  0.61747800  1
  H  582  1  0.54655200  0.71341200  0.61060800  1
  H  584  1  0.59935200  0.73802500  0.70925400  1
  H  585  1  0.60835100  0.75711400  0.71567200  1
  H  587  1  0.40236200  0.79348900  0.62757300  1
  H  588  1  0.39609100  0.77353500  0.62416300  1
  H  613  1  0.24072700  0.38271800  0.55268300  1
  H  614  1  0.28983500  0.40368200  0.54874900  1
  H  615  1  0.33514900  0.42622400  0.53942800  1
  H  616  1  0.36996800  0.44718600  0.52609100  1
  H  617  1  0.29580200  0.43867400  0.48623000  1
  H  618  1  0.19406000  0.38879100  0.50714400  1
  H  619  1  0.19923500  0.43775000  0.51262200  1
  H  620  1  0.12361000  0.44315400  0.47260800  1
  H  621  1  0.16183200  0.42257200  0.45997200  1
  H  622  1  0.31369000  0.39154700  0.49240800  1
  H  623  1  0.21264800  0.40150100  0.45101200  1
  H  624  1  0.26869800  0.38306300  0.44702600  1
  H  627  1  0.35215400  0.46834200  0.50493800  1
  H  628  1  0.34191700  0.46106200  0.48625000  1
  H  630  1  0.16691700  0.36740800  0.52238600  1
  H  631  1  0.20346500  0.36057300  0.53615400  1
  H  633  1  0.15061500  0.45921600  0.51175600  1
  H  634  1  0.14149200  0.46568000  0.49269100  1
  H  636  1  0.34715200  0.37754000  0.45604800  1
  H  637  1  0.35324000  0.37396600  0.47598300  1
  H  662  1  0.74065400  0.11703900  0.44709300  1
  H  663  1  0.78981000  0.09609000  0.45102100  1
  H  664  1  0.83515500  0.07355200  0.46033100  1
  H  665  1  0.87002800  0.05260000  0.47366300  1
  H  666  1  0.79590500  0.06109700  0.51353700  1
  H  667  1  0.69401700  0.11094400  0.49263300  1
  H  668  1  0.69923000  0.06202200  0.48714000  1
  H  669  1  0.62351300  0.05664500  0.52713600  1
  H  670  1  0.66175000  0.07721900  0.53978000  1
  H  671  1  0.81370300  0.10821500  0.50736200  1
  H  672  1  0.71264800  0.09826500  0.54875500  1
  H  673  1  0.76869200  0.11670600  0.55274100  1
  H  676  1  0.85223600  0.03143600  0.49481400  1
  H  677  1  0.84202500  0.03871100  0.51350600  1
  H  679  1  0.66682000  0.13232200  0.47739800  1
  H  680  1  0.70336900  0.13917200  0.46363700  1
  H  682  1  0.65051200  0.04058500  0.48798200  1
  H  683  1  0.64140900  0.03410300  0.50704100  1
  H  685  1  0.84714900  0.12223000  0.54372100  1
  H  686  1  0.85323400  0.12580300  0.52378600  1
  H  711  1  0.99072800  0.19707500  0.63269600  1
  H  712  1  0.03987400  0.20100700  0.65364700  1
  H  713  1  0.08520500  0.21032300  0.67618500  1
  H  714  1  0.12007400  0.22365700  0.69713500  1
  H  715  1  0.04595700  0.26353200  0.68862700  1
  H  716  1  0.94408500  0.24261600  0.63877700  1
  H  717  1  0.94927900  0.23713300  0.68770300  1
  H  718  1  0.87354300  0.27712700  0.69306500  1
  H  719  1  0.91178600  0.28976600  0.67249000  1
  H  720  1  0.06376100  0.25734700  0.64151000  1
  H  721  1  0.96270300  0.29874100  0.65144900  1
  H  722  1  0.01874800  0.30272200  0.63300900  1
  H  725  1  0.10227300  0.24481700  0.71829600  1
  H  726  1  0.09209300  0.26350700  0.71101100  1
  H  728  1  0.91690400  0.22737400  0.61740000  1
  H  729  1  0.95345200  0.21360900  0.61055800  1
  H  731  1  0.90055400  0.23798000  0.70913800  1
  H  732  1  0.89142400  0.25704000  0.71561100  1
  H  734  1  0.09721200  0.29370100  0.62749200  1
  H  735  1  0.10329300  0.27376500  0.62392000  1
  H  760  1  0.49077200  0.30268000  0.36709400  1
  H  761  1  0.53992800  0.29874700  0.34614600  1
  H  762  1  0.58522300  0.28944300  0.32359600  1
  H  763  1  0.62006100  0.27611700  0.30263200  1
  H  764  1  0.54595000  0.23624100  0.31113300  1
  H  765  1  0.44410400  0.25714400  0.36099700  1
  H  766  1  0.44929500  0.26263900  0.31207800  1
  H  767  1  0.37357700  0.22264600  0.30669800  1
  H  768  1  0.41182000  0.20999900  0.32726500  1
  H  769  1  0.56378400  0.24240300  0.35826500  1
  H  770  1  0.46267400  0.20102600  0.34832400  1
  H  771  1  0.51871200  0.19703500  0.36676500  1
  H  774  1  0.60224700  0.25496600  0.28146500  1
  H  775  1  0.59206400  0.23627400  0.28874300  1
  H  777  1  0.41692900  0.27238100  0.38238000  1
  H  778  1  0.45347400  0.28614600  0.38922400  1
  H  780  1  0.40059500  0.26179400  0.29063600  1
  H  781  1  0.39145200  0.24273300  0.28416600  1
  H  783  1  0.59719200  0.20604400  0.37228300  1
  H  784  1  0.60328600  0.22597900  0.37585900  1
  H  791  1  0.04153400  0.00182900  0.97834300  1
  H  792  1  0.08665900  0.02397100  0.97844000  1
  H  799  1  0.95063700  0.00225000  0.97975300  1
  H  800  1  0.90428000  0.98049600  0.97711700  1
  H  801  1  0.96284500  0.95859600  0.01483500  1
  H  802  1  0.03731700  0.03790100  0.02138200  1
  H  804  1  0.98143100  0.02349900  0.03277900  1
  H  805  1  0.96132300  0.00775400  0.02470700  1
  H  807  1  0.04084000  0.98751300  0.02147700  1
  H  808  1  0.02197600  0.97049200  0.02694400  1
  H  810  1  0.08381900  0.05441800  0.00701100  1
  H  812  1  0.90653200  0.94918400  0.98484400  1
  H  819  1  0.54154400  0.49791100  0.02142200  1
  H  820  1  0.58663100  0.47575900  0.02133000  1
  H  827  1  0.45066800  0.49752400  0.02001300  1
  H  828  1  0.40435600  0.51929000  0.02263800  1
  H  829  1  0.46294200  0.54115500  0.98490400  1
  H  830  1  0.53731700  0.46184600  0.97837700  1
  H  832  1  0.48136700  0.47623000  0.96700300  1
  H  833  1  0.46127300  0.49197500  0.97507900  1
  H  835  1  0.54085700  0.51220800  0.97826100  1
  H  836  1  0.52201900  0.52923100  0.97278800  1
  H  838  1  0.58379600  0.44531800  0.99274600  1
  H  840  1  0.40664200  0.55059600  0.01488900  1
  H  847  1  0.29167900  0.27145800  0.75185000  1
  H  848  1  0.33678000  0.27132100  0.77399600  1
  H  855  1  0.20079300  0.27007800  0.75225500  1
  H  856  1  0.15449800  0.27276200  0.73049100  1
  H  857  1  0.21299400  0.23505000  0.70855600  1
  H  858  1  0.28733100  0.22837700  0.78787000  1
  H  860  1  0.23142100  0.21701600  0.77345000  1
  H  861  1  0.21135100  0.22511300  0.75771100  1
  H  863  1  0.29089200  0.22833100  0.73749100  1
  H  864  1  0.27205300  0.22289700  0.72045600  1
  H  866  1  0.33389800  0.24270400  0.80440100  1
  H  868  1  0.15675600  0.26507900  0.69917600  1
  H  875  1  0.79163100  0.22830700  0.24789900  1
  H  876  1  0.83675200  0.22844200  0.22575800  1
  H  883  1  0.70075800  0.22970300  0.24749300  1
  H  884  1  0.65445800  0.22702000  0.26925600  1
  H  885  1  0.71298800  0.26472000  0.29120100  1
  H  886  1  0.78741300  0.27141000  0.21190400  1
  H  888  1  0.73142200  0.28275100  0.22629500  1
  H  889  1  0.71131200  0.27464600  0.24202200  1
  H  891  1  0.79086500  0.27145000  0.26226000  1
  H  892  1  0.77202700  0.27688000  0.27929600  1
  H  894  1  0.83396500  0.25708300  0.19536800  1
  H  896  1  0.65673500  0.23469500  0.30057300  1
  H  903  1  0.95772600  0.49789000  0.97765500  1
  H  904  1  0.91601000  0.47487600  0.97686100  1
  H  911  1  0.04801500  0.49961900  0.97892500  1
  H  912  1  0.09104600  0.52235100  0.97739000  1
  H  913  1  0.03034100  0.54098400  0.01638100  1
  H  914  1  0.96761300  0.46027300  0.01921300  1
  H  916  1  0.02149900  0.47526600  0.03112300  1
  H  917  1  0.03915300  0.49171000  0.02369900  1
  H  919  1  0.95658000  0.51030400  0.02150000  1
  H  920  1  0.97308700  0.52734600  0.02786100  1
  H  922  1  0.92273700  0.44355600  0.00441100  1
  H  924  1  0.08562400  0.55300100  0.98690700  1
  H  931  1  0.45789600  0.00193300  0.02211900  1
  H  932  1  0.41613500  0.02493800  0.02291200  1
  H  939  1  0.54817700  0.00021400  0.02080400  1
  H  940  1  0.59121400  0.97748300  0.02234000  1
  H  941  1  0.53037500  0.95881700  0.98339000  1
  H  942  1  0.46753400  0.03951100  0.98051600  1
  H  944  1  0.52150600  0.02454800  0.96862300  1
  H  945  1  0.53922600  0.00811800  0.97605800  1
  H  947  1  0.45663300  0.98950100  0.97826200  1
  H  948  1  0.47313100  0.97245500  0.97191000  1
  H  950  1  0.42269000  0.05623400  0.99532800  1
  H  952  1  0.58572100  0.94682500  0.01285600  1
  H  959  1  0.70784800  0.22762400  0.75184400  1
  H  960  1  0.66610900  0.22684100  0.77485400  1
  H  967  1  0.79815700  0.22891300  0.75012900  1
  H  968  1  0.84121900  0.22737100  0.72740300  1
  H  969  1  0.78044000  0.26632700  0.70872900  1
  H  970  1  0.71765900  0.26921100  0.78943100  1
  H  972  1  0.77153900  0.28111800  0.77443600  1
  H  973  1  0.78921500  0.27368500  0.75799800  1
  H  975  1  0.70664100  0.27145300  0.73939500  1
  H  976  1  0.72315200  0.27780400  0.72234900  1
  H  978  1  0.67279800  0.25440900  0.80615800  1
  H  980  1  0.83581400  0.23686300  0.69674300  1
  H  987  1  0.20788500  0.27216800  0.24792900  1
  H  988  1  0.16613100  0.27295000  0.22492300  1
  H  995  1  0.29818700  0.27086200  0.24963900  1
  H  996  1  0.34126200  0.27240200  0.27236000  1
  H  997  1  0.28044800  0.23346100  0.29105000  1
  H  998  1  0.21757800  0.23055800  0.21036000  1
  H  1000  1  0.27155200  0.21867600  0.22532800  1
  H  1001  1  0.28926000  0.22611600  0.24175700  1
  H  1003  1  0.20666600  0.22832200  0.26038100  1
  H  1004  1  0.22318300  0.22197500  0.27742600  1
  H  1006  1  0.17275000  0.24536600  0.19362900  1
  H  1008  1  0.33584800  0.26292300  0.30302300  1
  H  1015  1  0.70830100  0.72840100  0.24793100  1
  H  1016  1  0.66325200  0.72854100  0.22577000  1
  H  1023  1  0.79917700  0.72977600  0.24755600  1
  H  1024  1  0.84548600  0.72711100  0.26931900  1
  H  1025  1  0.78699100  0.76483900  0.29122800  1
  H  1026  1  0.71273300  0.77148800  0.21191900  1
  H  1028  1  0.76861600  0.78284400  0.22635500  1
  H  1029  1  0.78865400  0.77474500  0.24209700  1
  H  1031  1  0.70905400  0.77152300  0.26229900  1
  H  1032  1  0.72790400  0.77697300  0.27932900  1
  H  1034  1  0.66619700  0.75717000  0.19537400  1
  H  1036  1  0.84329100  0.73483500  0.30062900  1
  H  1043  1  0.20842000  0.77138900  0.75187200  1
  H  1044  1  0.16335100  0.77124500  0.77402900  1
  H  1051  1  0.29928900  0.76999300  0.75224900  1
  H  1052  1  0.34560600  0.77266000  0.73048900  1
  H  1053  1  0.28705300  0.73496000  0.70855400  1
  H  1054  1  0.21271800  0.72826800  0.78784600  1
  H  1056  1  0.26868100  0.71693600  0.77343700  1
  H  1057  1  0.28875700  0.72504800  0.75770600  1
  H  1059  1  0.20913700  0.72825900  0.73748700  1
  H  1060  1  0.22798100  0.72281700  0.72045500  1
  H  1062  1  0.16620900  0.74258300  0.80440100  1
  H  1064  1  0.34339100  0.76496000  0.69917400  1
  H  1071  1  0.29199400  0.77207800  0.24781500  1
  H  1072  1  0.33376300  0.77286200  0.22481500  1
  H  1079  1  0.20173700  0.77079300  0.24953900  1
  H  1080  1  0.15874600  0.77235100  0.27228000  1
  H  1081  1  0.21947500  0.73337400  0.29093400  1
  H  1082  1  0.28227900  0.73048400  0.21023100  1
  H  1084  1  0.22836800  0.71857500  0.22521300  1
  H  1085  1  0.21066200  0.72601000  0.24164600  1
  H  1087  1  0.29319000  0.72822700  0.26024600  1
  H  1088  1  0.27670200  0.72188100  0.27729600  1
  H  1090  1  0.32721800  0.74527600  0.19352000  1
  H  1092  1  0.16427600  0.76286700  0.30294100  1
  H  1099  1  0.79184500  0.72769700  0.75200600  1
  H  1100  1  0.83365900  0.72690600  0.77499500  1
  H  1107  1  0.70159200  0.72901900  0.75029900  1
  H  1108  1  0.65858100  0.72746400  0.72756200  1
  H  1109  1  0.71940700  0.76640700  0.70888100  1
  H  1110  1  0.78236100  0.76932000  0.78956600  1
  H  1112  1  0.72835800  0.78121300  0.77461700  1
  H  1113  1  0.71058500  0.77377200  0.75819800  1
  H  1115  1  0.79312100  0.77156100  0.73956800  1
  H  1116  1  0.77663200  0.77790100  0.72251700  1
  H  1118  1  0.82726900  0.75451400  0.80627600  1
  H  1120  1  0.66415900  0.73692300  0.69689400  1
  H  1127  1  0.54153100  0.50191800  0.47835700  1
  H  1128  1  0.58661800  0.52406700  0.47854200  1
  H  1135  1  0.45065200  0.50231400  0.47973500  1
  H  1136  1  0.40435600  0.48055500  0.47701200  1
  H  1137  1  0.46285100  0.45855000  0.51468400  1
  H  1138  1  0.53716000  0.53784600  0.52151600  1
  H  1140  1  0.48124400  0.52340100  0.53284200  1
  H  1141  1  0.46118400  0.50767900  0.52471000  1
  H  1143  1  0.54075700  0.48747200  0.52145300  1
  H  1144  1  0.52191900  0.47042600  0.52685700  1
  H  1146  1  0.58375500  0.55440300  0.50723600  1
  H  1148  1  0.40657000  0.44923000  0.48464400  1
  H  1155  1  0.04154000  0.99781600  0.52140600  1
  H  1156  1  0.08658800  0.97565500  0.52122100  1
  H  1163  1  0.95068400  0.99745600  0.52003300  1
  H  1164  1  0.90442800  0.01922700  0.52275100  1
  H  1165  1  0.96294200  0.04120100  0.48506300  1
  H  1166  1  0.03714100  0.96190100  0.47823500  1
  H  1168  1  0.98116000  0.97633200  0.46693800  1
  H  1169  1  0.96111200  0.99205300  0.47507700  1
  H  1171  1  0.04076200  0.01224900  0.47828600  1
  H  1172  1  0.02194900  0.02929700  0.47287900  1
  H  1174  1  0.08371600  0.94533100  0.49250800  1
  H  1176  1  0.90667700  0.05054700  0.51510100  1
  H  1183  1  0.45779900  0.99788300  0.47766200  1
  H  1184  1  0.41603400  0.97488100  0.47688000  1
  H  1191  1  0.54808600  0.99958300  0.47895000  1
  H  1192  1  0.59116000  0.02230400  0.47739600  1
  H  1193  1  0.53042600  0.04099600  0.51635400  1
  H  1194  1  0.46753100  0.96030100  0.51925600  1
  H  1196  1  0.52143000  0.97529000  0.53116500  1
  H  1197  1  0.53913100  0.99172100  0.52373000  1
  H  1199  1  0.45661100  0.01033900  0.52149700  1
  H  1200  1  0.47314000  0.02738400  0.52784100  1
  H  1202  1  0.42264600  0.94358100  0.50445900  1
  H  1204  1  0.58576200  0.05297000  0.48687800  1
  H  1211  1  0.95794700  0.50193700  0.52210900  1
  H  1212  1  0.91615100  0.52493300  0.52288900  1
  H  1219  1  0.04822700  0.50024200  0.52078500  1
  H  1220  1  0.09130200  0.47752300  0.52234100  1
  H  1221  1  0.03046300  0.45880100  0.48341900  1
  H  1222  1  0.96747100  0.53948000  0.48047200  1
  H  1224  1  0.02146000  0.52451900  0.46858500  1
  H  1225  1  0.03921700  0.50810000  0.47603100  1
  H  1227  1  0.95667400  0.48946400  0.47826200  1
  H  1228  1  0.97319100  0.47241400  0.47192700  1
  H  1230  1  0.92261100  0.55620700  0.49527500  1
  H  1232  1  0.08584500  0.44684900  0.51288900  1
  H  1239  1  0.34244700  0.18746900  0.91975400  1
  H  1240  1  0.36058200  0.21004600  0.90491200  1
  H  1247  1  0.41681600  0.17235800  0.94787900  1
  H  1248  1  0.39579800  0.15095800  0.96389700  1
  H  1249  1  0.33829200  0.12956300  0.92565900  1
  H  1250  1  0.48356600  0.19317000  0.89897100  1
  H  1252  1  0.50271900  0.16876200  0.90990900  1
  H  1253  1  0.46934200  0.15792900  0.91991600  1
  H  1255  1  0.36486900  0.15858000  0.89791000  1
  H  1256  1  0.34130000  0.14171300  0.90084100  1
  H  1258  1  0.43289100  0.22634400  0.89844100  1
  H  1260  1  0.37632400  0.12014700  0.95980900  1
  H  1267  1  0.84244400  0.31230000  0.08002500  1
  H  1268  1  0.86057300  0.28972400  0.09487100  1
  H  1275  1  0.91683800  0.32740600  0.05190400  1
  H  1276  1  0.89583000  0.34880200  0.03588000  1
  H  1277  1  0.83828600  0.37020300  0.07410700  1
  H  1278  1  0.98355300  0.30659800  0.10081400  1
  H  1280  1  0.00270200  0.33101400  0.08989300  1
  H  1281  1  0.96932700  0.34184800  0.07988400  1
  H  1283  1  0.86482200  0.34118700  0.10186300  1
  H  1284  1  0.84124700  0.35805300  0.09892400  1
  H  1286  1  0.93287600  0.27342600  0.10134100  1
  H  1288  1  0.87634300  0.37961200  0.03995900  1
  H  1295  1  0.59245500  0.32997900  0.93743100  1
  H  1296  1  0.61054000  0.34480400  0.96002500  1
  H  1303  1  0.66691200  0.30187100  0.92231300  1
  H  1304  1  0.64592000  0.28586600  0.90090000  1
  H  1305  1  0.58834700  0.32410800  0.87953600  1
  H  1306  1  0.73356400  0.35075300  0.94319400  1
  H  1308  1  0.75277400  0.33983700  0.91878200  1
  H  1309  1  0.71941600  0.32984100  0.90792900  1
  H  1311  1  0.61488600  0.35184000  0.90857400  1
  H  1312  1  0.59132100  0.34891700  0.89170500  1
  H  1314  1  0.68280500  0.35125900  0.97635100  1
  H  1316  1  0.62641400  0.28996800  0.87009500  1
  H  1323  1  0.09247900  0.16980100  0.06232500  1
  H  1324  1  0.11057400  0.15497500  0.03973200  1
  H  1331  1  0.16691100  0.19790100  0.07745100  1
  H  1332  1  0.14590600  0.21390600  0.09886100  1
  H  1333  1  0.08834000  0.17566200  0.12022400  1
  H  1334  1  0.23357600  0.14901100  0.05657900  1
  H  1336  1  0.25275700  0.15990900  0.08100200  1
  H  1337  1  0.21939600  0.16990800  0.09185100  1
  H  1339  1  0.11487100  0.14793300  0.09118300  1
  H  1340  1  0.09129300  0.15085600  0.10805000  1
  H  1342  1  0.18284900  0.14851200  0.02341500  1
  H  1344  1  0.12638900  0.20980500  0.12966300  1
  H  1351  1  0.65808700  0.81235000  0.08011300  1
  H  1352  1  0.63895900  0.78974600  0.09473700  1
  H  1359  1  0.58322000  0.82870800  0.05230900  1
  H  1360  1  0.60560100  0.85017900  0.03664800  1
  H  1361  1  0.66693100  0.86990600  0.07497900  1
  H  1362  1  0.51676300  0.80730900  0.10087000  1
  H  1364  1  0.49868700  0.83193200  0.09018200  1
  H  1365  1  0.53255200  0.84267900  0.08030500  1
  H  1367  1  0.63828800  0.84074500  0.10228200  1
  H  1368  1  0.66350700  0.85732000  0.09955800  1
  H  1370  1  0.56601000  0.77383300  0.10123700  1
  H  1372  1  0.62841100  0.88064700  0.04140000  1
  H  1379  1  0.15807100  0.68740200  0.91966400  1
  H  1380  1  0.13896200  0.71000600  0.90503700  1
  H  1387  1  0.08316700  0.67104400  0.94745500  1
  H  1388  1  0.10552700  0.64957100  0.96311900  1
  H  1389  1  0.16690800  0.62984500  0.92480000  1
  H  1390  1  0.01677000  0.69244500  0.89888600  1
  H  1392  1  0.99869700  0.66781300  0.90955400  1
  H  1393  1  0.03255300  0.65706400  0.91943400  1
  H  1395  1  0.13834300  0.65901400  0.89749400  1
  H  1396  1  0.16356100  0.64244100  0.90022500  1
  H  1398  1  0.06602400  0.72591900  0.89852600  1
  H  1400  1  0.12833400  0.61910400  0.95837000  1
  H  1407  1  0.40611000  0.66923200  0.06259900  1
  H  1408  1  0.38701400  0.65404100  0.04035500  1
  H  1415  1  0.33265700  0.69815200  0.07754100  1
  H  1416  1  0.35417900  0.71423400  0.09882400  1
  H  1417  1  0.41107700  0.67596100  0.12037800  1
  H  1418  1  0.26379100  0.64944400  0.05741600  1
  H  1420  1  0.24539400  0.66101100  0.08159400  1
  H  1421  1  0.27939600  0.67095000  0.09222200  1
  H  1423  1  0.38360600  0.64810700  0.09158200  1
  H  1424  1  0.40740800  0.65108200  0.10839600  1
  H  1426  1  0.31435400  0.64751600  0.02423900  1
  H  1428  1  0.37363100  0.71021700  0.12965000  1
  H  1435  1  0.90616100  0.83054800  0.93716200  1
  H  1436  1  0.88705800  0.84574200  0.95940300  1
  H  1443  1  0.83270800  0.80161900  0.92223400  1
  H  1444  1  0.85422600  0.78553000  0.90095600  1
  H  1445  1  0.91111800  0.82379400  0.87938500  1
  H  1446  1  0.76382900  0.85032700  0.94234400  1
  H  1448  1  0.74545100  0.83876900  0.91816000  1
  H  1449  1  0.77945700  0.82883100  0.90753200  1
  H  1451  1  0.88367600  0.85165800  0.90817600  1
  H  1452  1  0.90747700  0.84867600  0.89136300  1
  H  1454  1  0.81439600  0.85226400  0.97551800  1
  H  1456  1  0.87366900  0.78953600  0.87012900  1
  H  1463  1  0.84360900  0.68719100  0.41918400  1
  H  1464  1  0.86274000  0.70942100  0.40397800  1
  H  1471  1  0.91703000  0.67226400  0.44812500  1
  H  1472  1  0.89552400  0.65098600  0.46421600  1
  H  1473  1  0.83865200  0.62940500  0.42595300  1
  H  1474  1  0.98595000  0.69234300  0.39941000  1
  H  1476  1  0.00431700  0.66817000  0.41099600  1
  H  1477  1  0.97029700  0.65755400  0.42094000  1
  H  1479  1  0.86609700  0.65819200  0.39808400  1
  H  1480  1  0.84230800  0.64137700  0.40106700  1
  H  1482  1  0.93540800  0.72552400  0.39744700  1
  H  1484  1  0.87612600  0.62015600  0.46020900  1
  H  1491  1  0.34354900  0.81258900  0.58061100  1
  H  1492  1  0.36266400  0.79035800  0.59581700  1
  H  1499  1  0.41701400  0.82749500  0.55166300  1
  H  1500  1  0.39553300  0.84876700  0.53556000  1
  H  1501  1  0.33862900  0.87036600  0.57380700  1
  H  1502  1  0.48590300  0.80741500  0.60036900  1
  H  1504  1  0.50427100  0.83159300  0.58879600  1
  H  1505  1  0.47025500  0.84221500  0.57885700  1
  H  1507  1  0.36601500  0.84158600  0.60169000  1
  H  1508  1  0.34223200  0.85840000  0.59869600  1
  H  1510  1  0.43532300  0.77424300  0.60233500  1
  H  1512  1  0.37614400  0.87960000  0.53955400  1
  H  1519  1  0.09167000  0.83015700  0.43742000  1
  H  1520  1  0.11080400  0.84478700  0.46001800  1
  H  1527  1  0.16658200  0.80234400  0.42107000  1
  H  1528  1  0.14423800  0.78667400  0.39960000  1
  H  1529  1  0.08284000  0.82498500  0.37986500  1
  H  1530  1  0.23301300  0.85089600  0.44245900  1
  H  1532  1  0.25108300  0.84020100  0.41783800  1
  H  1533  1  0.21720900  0.83032700  0.40709200  1
  H  1535  1  0.11141700  0.85230000  0.40902500  1
  H  1536  1  0.08620800  0.84956700  0.39245000  1
  H  1538  1  0.18374600  0.85128100  0.47593200  1
  H  1540  1  0.12144500  0.79142000  0.36912900  1
  H  1547  1  0.59165800  0.66961500  0.56232100  1
  H  1548  1  0.61081700  0.65498400  0.53972600  1
  H  1555  1  0.66652400  0.69742500  0.57868000  1
  H  1556  1  0.64415300  0.71309200  0.60014900  1
  H  1557  1  0.58277600  0.67477400  0.61987900  1
  H  1558  1  0.73300000  0.64886700  0.55730500  1
  H  1560  1  0.75102900  0.65954500  0.58193800  1
  H  1561  1  0.71714200  0.66941900  0.59267900  1
  H  1563  1  0.61136500  0.64746300  0.59071600  1
  H  1564  1  0.58614000  0.65019600  0.60728700  1
  H  1566  1  0.68377200  0.64848300  0.52382400  1
  H  1568  1  0.62134900  0.70834400  0.63061500  1
  H  1575  1  0.15692900  0.31260400  0.58068000  1
  H  1576  1  0.13680000  0.29034700  0.59566100  1
  H  1583  1  0.08307400  0.32878400  0.55205000  1
  H  1584  1  0.10595400  0.35012900  0.53631700  1
  H  1585  1  0.16656300  0.37005700  0.57469900  1
  H  1586  1  0.01439800  0.30814200  0.60043100  1
  H  1588  1  0.99712800  0.33254000  0.58910600  1
  H  1589  1  0.03164000  0.34306700  0.57929900  1
  H  1591  1  0.13701800  0.34113600  0.60212300  1
  H  1592  1  0.16245000  0.35765800  0.59935400  1
  H  1594  1  0.06350000  0.27464200  0.60220800  1
  H  1596  1  0.12864500  0.38062500  0.54100100  1
  H  1603  1  0.65688700  0.18714300  0.41910100  1
  H  1604  1  0.63676700  0.20940100  0.40412100  1
  H  1611  1  0.58299600  0.17095600  0.44772000  1
  H  1612  1  0.60586300  0.14960900  0.46345500  1
  H  1613  1  0.66653400  0.12969000  0.42508100  1
  H  1614  1  0.51436900  0.19160500  0.39933800  1
  H  1616  1  0.49711200  0.16719600  0.41064000  1
  H  1617  1  0.53161900  0.15666700  0.42044700  1
  H  1619  1  0.63705300  0.15861900  0.39765700  1
  H  1620  1  0.66248700  0.14210000  0.40043100  1
  H  1622  1  0.56347200  0.22510600  0.39756700  1
  H  1624  1  0.62857100  0.11911500  0.45877100  1
  H  1631  1  0.90689500  0.16905700  0.56259100  1
  H  1632  1  0.88674000  0.15406600  0.54034400  1
  H  1639  1  0.83306700  0.19769100  0.57877100  1
  H  1640  1  0.85595200  0.21343300  0.60011000  1
  H  1641  1  0.91657000  0.17505700  0.62004900  1
  H  1642  1  0.76436800  0.14929400  0.55816700  1
  H  1644  1  0.74713300  0.16062700  0.58256400  1
  H  1645  1  0.78165300  0.17044200  0.59307900  1
  H  1647  1  0.88702400  0.14762300  0.59114000  1
  H  1648  1  0.91246000  0.15040000  0.60765900  1
  H  1650  1  0.81341400  0.14751000  0.52465800  1
  H  1652  1  0.87863600  0.20875400  0.63061000  1
  H  1659  1  0.40691000  0.33071000  0.43718200  1
  H  1660  1  0.38674600  0.34570300  0.45942800  1
  H  1667  1  0.33308300  0.30207600  0.42100400  1
  H  1668  1  0.35597100  0.28632900  0.39967000  1
  H  1669  1  0.41660100  0.32469800  0.37972400  1
  H  1670  1  0.26438000  0.35047200  0.44159900  1
  H  1672  1  0.24716800  0.33915400  0.41719400  1
  H  1673  1  0.28169400  0.32934000  0.40667800  1
  H  1675  1  0.38708600  0.35213700  0.40863400  1
  H  1676  1  0.41252600  0.34935600  0.39211600  1
  H  1678  1  0.31341600  0.35226000  0.47511000  1
  H  1680  1  0.37866400  0.29100000  0.36917000  1
  C  1  1  0.23753800  0.09591400  0.01345000  1
  C  2  1  0.26380000  0.09264700  0.02606600  1
  C  3  1  0.29299300  0.08151400  0.02159600  1
  C  4  1  0.28611200  0.07783700  0.00600600  1
  C  5  1  0.31076700  0.06636500  0.99869800  1
  C  6  1  0.34196100  0.05832200  0.00725900  1
  C  7  1  0.34790200  0.06208900  0.02311300  1
  C  8  1  0.32396800  0.07378500  0.03029800  1
  C  9  1  0.25821000  0.10012800  0.04038800  1
  C  10  1  0.22576300  0.11113800  0.04187300  1
  C  11  1  0.19881100  0.11466400  0.02924700  1
  C  12  1  0.20482200  0.10686600  0.01496000  1
  C  13  1  0.25930700  0.09585600  0.98570200  1
  C  14  1  0.23433000  0.09112000  0.97319900  1
  C  15  1  0.20830500  0.07913500  0.97806700  1
  C  16  1  0.21581100  0.07636000  0.99380300  1
  C  17  1  0.17877500  0.07030100  0.96975100  1
  C  18  1  0.15668000  0.05849400  0.97751900  1
  C  19  1  0.16316200  0.05565200  0.99353600  1
  C  20  1  0.19321200  0.06467700  0.00165600  1
  C  21  1  0.28790900  0.10823600  0.98390100  1
  C  22  1  0.29103500  0.11594400  0.96944000  1
  C  23  1  0.26546200  0.11090200  0.95694000  1
  C  24  1  0.23719600  0.09847300  0.95870600  1
  C  37  1  0.24971200  0.08658700  0.99973400  1
  C  38  1  0.13913100  0.04307800  0.00128200  1
  C  41  1  0.31922400  0.12948100  0.96718600  1
  C  44  1  0.36626100  0.04534700  0.00030500  1
  C  47  1  0.16534100  0.12650200  0.03125000  1
  C  50  1  0.73755800  0.40384900  0.98631500  1
  C  51  1  0.76382900  0.40711100  0.97369900  1
  C  52  1  0.79302900  0.41824100  0.97816900  1
  C  53  1  0.78613800  0.42192400  0.99375700  1
  C  54  1  0.81083700  0.43337900  0.00107100  1
  C  55  1  0.84199300  0.44143600  0.99250200  1
  C  56  1  0.84794000  0.43766500  0.97665000  1
  C  57  1  0.82399300  0.42597200  0.96946500  1
  C  58  1  0.75823500  0.39962900  0.95937900  1
  C  59  1  0.72577200  0.38862500  0.95789200  1
  C  60  1  0.69881400  0.38510400  0.97051900  1
  C  61  1  0.70483000  0.39290200  0.98480500  1
  C  62  1  0.75932800  0.40390200  0.01406200  1
  C  63  1  0.73434500  0.40863700  0.02656500  1
  C  64  1  0.70832300  0.42062300  0.02169700  1
  C  65  1  0.71585700  0.42340800  0.00596500  1
  C  66  1  0.67877300  0.42945000  0.03001100  1
  C  67  1  0.65666300  0.44125100  0.02224200  1
  C  68  1  0.66315100  0.44409500  0.00622500  1
  C  69  1  0.69322100  0.43507700  0.99810700  1
  C  70  1  0.78793000  0.39152300  0.01586200  1
  C  71  1  0.79105100  0.38381200  0.03032200  1
  C  72  1  0.76547300  0.38885100  0.04282200  1
  C  73  1  0.73719600  0.40127700  0.04105500  1
  C  86  1  0.74974100  0.41317400  0.00003100  1
  C  87  1  0.63910100  0.45666400  0.99847800  1
  C  90  1  0.81925000  0.37027800  0.03257600  1
  C  93  1  0.86626400  0.45441900  0.99945500  1
  C  96  1  0.66533100  0.37327100  0.96851400  1
  C  99  1  0.48764800  0.23630300  0.84587200  1
  C  100  1  0.51392200  0.22368900  0.84261000  1
  C  101  1  0.54311900  0.22816000  0.83147900  1
  C  102  1  0.53623700  0.24375000  0.82780200  1
  C  103  1  0.56090500  0.25105900  0.81633400  1
  C  104  1  0.59206400  0.24249200  0.80827800  1
  C  105  1  0.59800700  0.22664000  0.81204500  1
  C  106  1  0.57407000  0.21945400  0.82374200  1
  C  107  1  0.50831200  0.20936400  0.85008400  1
  C  108  1  0.47584300  0.20787500  0.86108400  1
  C  109  1  0.44888200  0.22050000  0.86460600  1
  C  110  1  0.45490400  0.23478900  0.85681300  1
  C  111  1  0.50938900  0.26405100  0.84582400  1
  C  112  1  0.48442200  0.27655500  0.84108000  1
  C  113  1  0.45841000  0.27168400  0.82909300  1
  C  114  1  0.46595000  0.25595100  0.82631200  1
  C  115  1  0.42886300  0.27999300  0.82026200  1
  C  116  1  0.40675600  0.27221900  0.80846100  1
  C  117  1  0.41325000  0.25620100  0.80562400  1
  C  118  1  0.44332000  0.24808800  0.81464400  1
  C  119  1  0.53800400  0.26585700  0.85819800  1
  C  120  1  0.54113100  0.28032000  0.86590100  1
  C  121  1  0.51555000  0.29281900  0.86085900  1
  C  122  1  0.48727000  0.29104600  0.84843600  1
  C  135  1  0.49982700  0.25002100  0.83654900  1
  C  136  1  0.38920300  0.24844600  0.79306000  1
  C  139  1  0.56933300  0.28257900  0.87943400  1
  C  142  1  0.61632900  0.24944500  0.79529400  1
  C  145  1  0.41539200  0.21849300  0.87643500  1
  C  148  1  0.98764800  0.26346500  0.15390500  1
  C  149  1  0.01390600  0.27608200  0.15717200  1
  C  150  1  0.04310800  0.27161200  0.16830200  1
  C  151  1  0.03628900  0.25601200  0.17195700  1
  C  152  1  0.06089800  0.24871500  0.18344900  1
  C  153  1  0.09203200  0.25728700  0.19151200  1
  C  154  1  0.09795400  0.27314200  0.18775100  1
  C  155  1  0.07401800  0.28032500  0.17605300  1
  C  156  1  0.00827300  0.29041000  0.14970700  1
  C  157  1  0.97580500  0.29189700  0.13870500  1
  C  158  1  0.94886000  0.27926700  0.13517800  1
  C  159  1  0.95490400  0.26497700  0.14296400  1
  C  160  1  0.00940300  0.23571600  0.15394700  1
  C  161  1  0.98439400  0.22321800  0.15867800  1
  C  162  1  0.95841900  0.22808600  0.17067900  1
  C  163  1  0.96598200  0.24381600  0.17346500  1
  C  164  1  0.92886600  0.21977700  0.17950800  1
  C  165  1  0.90677800  0.22754900  0.19131400  1
  C  166  1  0.91328800  0.24356500  0.19415700  1
  C  167  1  0.94335800  0.25167800  0.18513500  1
  C  168  1  0.03798000  0.23391400  0.14156100  1
  C  169  1  0.04111000  0.21944900  0.13386000  1
  C  170  1  0.01553100  0.20695100  0.13890300  1
  C  171  1  0.98725100  0.20872400  0.15132800  1
  C  184  1  0.99985000  0.24974600  0.16322400  1
  C  185  1  0.88924100  0.25132000  0.20672000  1
  C  188  1  0.06930400  0.21719100  0.12032500  1
  C  191  1  0.11629800  0.25034000  0.20450000  1
  C  194  1  0.91537300  0.28127200  0.12334800  1
  C  197  1  0.75992000  0.90427900  0.98604800  1
  C  198  1  0.73082700  0.90701600  0.97417100  1
  C  199  1  0.70216900  0.91810500  0.97919600  1
  C  200  1  0.71240500  0.92232100  0.99440000  1
  C  201  1  0.69013100  0.93434600  0.00183600  1
  C  202  1  0.65739000  0.94217000  0.99387600  1
  C  203  1  0.64672900  0.93738700  0.97865000  1
  C  204  1  0.66895600  0.92537500  0.97124000  1
  C  205  1  0.73404600  0.89931600  0.95986600  1
  C  206  1  0.76691900  0.88859700  0.95767100  1
  C  207  1  0.79662300  0.88557200  0.96957200  1
  C  208  1  0.79293500  0.89356600  0.98385000  1
  C  209  1  0.74228600  0.90417000  0.01401500  1
  C  210  1  0.76996800  0.90836100  0.02592400  1
  C  211  1  0.79547600  0.92035000  0.02069200  1
  C  212  1  0.78456900  0.92376400  0.00535000  1
  C  213  1  0.82711800  0.92873800  0.02840300  1
  C  214  1  0.84735400  0.94092100  0.02052800  1
  C  215  1  0.83618900  0.94479800  0.00509400  1
  C  216  1  0.80471700  0.93600700  0.99746500  1
  C  217  1  0.71343800  0.89193700  0.01622900  1
  C  218  1  0.71240200  0.88393900  0.03056700  1
  C  219  1  0.74041200  0.88851700  0.04252700  1
  C  220  1  0.76920900  0.90071400  0.04030400  1
  C  233  1  0.74978800  0.91364700  0.99995400  1
  C  234  1  0.85664200  0.95827400  0.99753200  1
  C  237  1  0.68370200  0.87061800  0.03320100  1
  C  240  1  0.63631600  0.95595400  0.00063900  1
  C  243  1  0.83058500  0.87408000  0.96682500  1
  C  246  1  0.25993700  0.59548400  0.01371500  1
  C  247  1  0.23084100  0.59274600  0.02559300  1
  C  248  1  0.20220100  0.58164900  0.02057200  1
  C  249  1  0.21249100  0.57741300  0.00537900  1
  C  250  1  0.19013700  0.56542200  0.99792100  1
  C  251  1  0.15735800  0.55761000  0.00587300  1
  C  252  1  0.14672400  0.56238100  0.02110500  1
  C  253  1  0.16895800  0.57439000  0.02851900  1
  C  254  1  0.23404400  0.60045300  0.03989400  1
  C  255  1  0.26690300  0.61117800  0.04208600  1
  C  256  1  0.29660900  0.61420500  0.03018500  1
  C  257  1  0.29293200  0.60620600  0.01591000  1
  C  258  1  0.24227300  0.59558100  0.98575200  1
  C  259  1  0.26995800  0.59140200  0.97383900  1
  C  260  1  0.29550900  0.57942300  0.97906800  1
  C  261  1  0.28462500  0.57600500  0.99441200  1
  C  262  1  0.32717400  0.57105100  0.97135400  1
  C  263  1  0.34741300  0.55886100  0.97922000  1
  C  264  1  0.33627600  0.55498100  0.99465600  1
  C  265  1  0.30480000  0.56376400  0.00229200  1
  C  266  1  0.21338300  0.60780200  0.98354000  1
  C  267  1  0.21233700  0.61580700  0.96920700  1
  C  268  1  0.24034900  0.61124100  0.95724300  1
  C  269  1  0.26917200  0.59905100  0.95946100  1
  C  282  1  0.24982200  0.58610900  0.99981200  1
  C  283  1  0.35674300  0.54150300  0.00221100  1
  C  286  1  0.18362200  0.62912600  0.96658000  1
  C  289  1  0.13622900  0.54384300  0.99909700  1
  C  292  1  0.33056000  0.62570000  0.03293000  1
  C  295  1  0.51232800  0.76365900  0.15388900  1
  C  296  1  0.48600300  0.77624800  0.15719300  1
  C  297  1  0.45692000  0.77173900  0.16835000  1
  C  298  1  0.46388000  0.75614500  0.17198100  1
  C  299  1  0.43921900  0.74878100  0.18341600  1
  C  300  1  0.40792400  0.75728900  0.19146200  1
  C  301  1  0.40187100  0.77314600  0.18772800  1
  C  302  1  0.42582300  0.78038800  0.17607100  1
  C  303  1  0.49144300  0.79058100  0.14972100  1
  C  304  1  0.52378300  0.79210200  0.13867400  1
  C  305  1  0.55076300  0.77949700  0.13509700  1
  C  306  1  0.54493000  0.76520200  0.14289600  1
  C  307  1  0.49072500  0.73590500  0.15390100  1
  C  308  1  0.51575800  0.72340100  0.15859700  1
  C  309  1  0.54176800  0.72825200  0.17059300  1
  C  310  1  0.53422700  0.74398100  0.17339900  1
  C  311  1  0.57131100  0.71992600  0.17941100  1
  C  312  1  0.59338100  0.72767700  0.19123500  1
  C  313  1  0.58686700  0.74368800  0.19410600  1
  C  314  1  0.55681000  0.75181800  0.18509400  1
  C  315  1  0.46212300  0.73412800  0.14152100  1
  C  316  1  0.45902700  0.71968700  0.13378100  1
  C  317  1  0.48459900  0.70717500  0.13879500  1
  C  318  1  0.51287600  0.70891900  0.15122500  1
  C  331  1  0.50027800  0.74991800  0.16320000  1
  C  332  1  0.61087400  0.75141600  0.20669500  1
  C  335  1  0.43078100  0.71745700  0.12026000  1
  C  338  1  0.38362800  0.75027800  0.20440700  1
  C  341  1  0.58412400  0.78154400  0.12322600  1
  C  344  1  0.01237400  0.73610000  0.84587300  1
  C  345  1  0.98604800  0.72351300  0.84256600  1
  C  346  1  0.95695200  0.72802400  0.83141500  1
  C  347  1  0.96390000  0.74362400  0.82779300  1
  C  348  1  0.93924400  0.75098700  0.81635700  1
  C  349  1  0.90795000  0.74247900  0.80830900  1
  C  350  1  0.90190200  0.72662200  0.81203800  1
  C  351  1  0.92583300  0.71938200  0.82370200  1
  C  352  1  0.99148400  0.70917700  0.85003700  1
  C  353  1  0.02382100  0.70765500  0.86108400  1
  C  354  1  0.05080100  0.72025800  0.86466500  1
  C  355  1  0.04496800  0.73455500  0.85686900  1
  C  356  1  0.99077200  0.76385600  0.84587400  1
  C  357  1  0.01580900  0.77635900  0.84117900  1
  C  358  1  0.04181900  0.77151000  0.82918300  1
  C  359  1  0.03425900  0.75578400  0.82636800  1
  C  360  1  0.07134600  0.77983800  0.82036100  1
  C  361  1  0.09341100  0.77209200  0.80853400  1
  C  362  1  0.08689300  0.75608200  0.80565900  1
  C  363  1  0.05683400  0.74794900  0.81466700  1
  C  364  1  0.96218600  0.76562700  0.85825900  1
  C  365  1  0.95907400  0.78007000  0.86599600  1
  C  366  1  0.98464000  0.79258400  0.86098000  1
  C  367  1  0.01293100  0.79083900  0.84855500  1
  C  380  1  0.00031600  0.74984500  0.83657000  1
  C  381  1  0.11091100  0.74835600  0.79307100  1
  C  384  1  0.93082500  0.78229800  0.87951700  1
  C  387  1  0.88364100  0.74949400  0.79536800  1
  C  390  1  0.08415200  0.71820900  0.87653900  1
  C  393  1  0.73757700  0.59586100  0.51365500  1
  C  394  1  0.76391100  0.59256500  0.52624300  1
  C  395  1  0.79305400  0.58143200  0.52172900  1
  C  396  1  0.78607800  0.57778900  0.50613600  1
  C  397  1  0.81068900  0.56633600  0.49878200  1
  C  398  1  0.84194000  0.55827500  0.50729900  1
  C  399  1  0.84797400  0.56200600  0.52315600  1
  C  400  1  0.82408500  0.57368700  0.53038800  1
  C  401  1  0.75844900  0.60003300  0.54057800  1
  C  402  1  0.72607400  0.61106500  0.54210200  1
  C  403  1  0.69908200  0.61463300  0.52949900  1
  C  404  1  0.70494400  0.60684200  0.51520100  1
  C  405  1  0.75916100  0.59585800  0.48589800  1
  C  406  1  0.73414400  0.59114700  0.47339700  1
  C  407  1  0.70815000  0.57915000  0.47825500  1
  C  408  1  0.71571500  0.57634800  0.49398200  1
  C  409  1  0.67859100  0.57033000  0.46993800  1
  C  410  1  0.65652400  0.55851100  0.47769800  1
  C  411  1  0.66306300  0.55564600  0.49370700  1
  C  412  1  0.69314500  0.56465500  0.50182700  1
  C  413  1  0.78769100  0.60826100  0.48412400  1
  C  414  1  0.79075200  0.61600200  0.46968100  1
  C  415  1  0.76517700  0.61097800  0.45717400  1
  C  416  1  0.73694100  0.59853700  0.45892100  1
  C  429  1  0.74964600  0.58655800  0.49991300  1
  C  430  1  0.63903800  0.54307100  0.50145000  1
  C  433  1  0.81896000  0.62953200  0.46744800  1
  C  436  1  0.86620800  0.54531800  0.50029600  1
  C  439  1  0.66569600  0.62649400  0.53154600  1
  C  442  1  0.23759800  0.90389900  0.48610200  1
  C  443  1  0.26393800  0.90719100  0.47351400  1
  C  444  1  0.29308700  0.91832200  0.47802800  1
  C  445  1  0.28609700  0.92197200  0.49361800  1
  C  446  1  0.31075100  0.93341100  0.50097800  1
  C  447  1  0.34196500  0.94148400  0.49245400  1
  C  448  1  0.34800900  0.93774900  0.47659800  1
  C  449  1  0.32410900  0.92607000  0.46936700  1
  C  450  1  0.25847600  0.89972300  0.45918000  1
  C  451  1  0.22609200  0.88869300  0.45765500  1
  C  452  1  0.19909300  0.88512900  0.47025800  1
  C  453  1  0.20495700  0.89292100  0.48455500  1
  C  454  1  0.25918400  0.90390100  0.51385800  1
  C  455  1  0.23415700  0.90861000  0.52635900  1
  C  456  1  0.20816200  0.92060700  0.52149900  1
  C  457  1  0.21575200  0.92341700  0.50577600  1
  C  458  1  0.17858100  0.92941900  0.52981300  1
  C  459  1  0.15649700  0.94123200  0.52205100  1
  C  460  1  0.16303700  0.94409700  0.50604100  1
  C  461  1  0.19314200  0.93509500  0.49792400  1
  C  462  1  0.28773200  0.89150400  0.51563500  1
  C  463  1  0.29077000  0.88375700  0.53007500  1
  C  464  1  0.26518900  0.88877800  0.54258200  1
  C  465  1  0.23694100  0.90121500  0.54083200  1
  C  478  1  0.24967200  0.91320300  0.49984200  1
  C  479  1  0.13899600  0.95666600  0.49829700  1
  C  482  1  0.31898200  0.87022700  0.53230800  1
  C  485  1  0.36620400  0.95444800  0.49945700  1
  C  488  1  0.16569700  0.87327200  0.46821000  1
  C  491  1  0.98996900  0.73605500  0.34547200  1
  C  492  1  0.01907700  0.72418200  0.34273400  1
  C  493  1  0.04781300  0.72922600  0.33168000  1
  C  494  1  0.03748000  0.74441300  0.32743400  1
  C  495  1  0.05983100  0.75187200  0.31544100  1
  C  496  1  0.09254300  0.74390900  0.30760400  1
  C  497  1  0.10317000  0.72867400  0.31236600  1
  C  498  1  0.08098300  0.72126600  0.32439000  1
  C  499  1  0.01587700  0.70987800  0.35043700  1
  C  500  1  0.98297100  0.70767200  0.36114100  1
  C  501  1  0.95322900  0.71956500  0.36415400  1
  C  502  1  0.95691400  0.73384500  0.35616400  1
  C  503  1  0.00757700  0.76402100  0.34560100  1
  C  504  1  0.97990900  0.77593400  0.34140500  1
  C  505  1  0.95440000  0.77070200  0.32941600  1
  C  506  1  0.96535200  0.75536700  0.32598800  1
  C  507  1  0.92272500  0.77840600  0.32103900  1
  C  508  1  0.90248800  0.77053000  0.30885700  1
  C  509  1  0.91365100  0.75509500  0.30498200  1
  C  510  1  0.94516600  0.74747400  0.31375900  1
  C  511  1  0.03645300  0.76623900  0.35782400  1
  C  512  1  0.03746000  0.78057200  0.36583100  1
  C  513  1  0.00943700  0.79253000  0.36126000  1
  C  514  1  0.98064600  0.79030800  0.34906100  1
  C  527  1  0.00010700  0.74996500  0.33611200  1
  C  528  1  0.89315900  0.74752200  0.29152100  1
  C  531  1  0.06616200  0.78320400  0.37915300  1
  C  534  1  0.11361000  0.75068100  0.29382400  1
  C  537  1  0.91925100  0.71681000  0.37563500  1
  C  540  1  0.48998500  0.76370600  0.65429300  1
  C  541  1  0.51909000  0.77558000  0.65702500  1
  C  542  1  0.54781500  0.77054200  0.66808600  1
  C  543  1  0.53753800  0.75534500  0.67231600  1
  C  544  1  0.55979600  0.74791000  0.68434700  1
  C  545  1  0.59247300  0.75588300  0.69219400  1
  C  546  1  0.60309400  0.77111800  0.68743000  1
  C  547  1  0.58093000  0.77851600  0.67539500  1
  C  548  1  0.51584000  0.78989200  0.64933900  1
  C  549  1  0.48292000  0.79209600  0.63864100  1
  C  550  1  0.45319400  0.78020000  0.63562600  1
  C  551  1  0.45690700  0.76591700  0.64360900  1
  C  552  1  0.50758500  0.73573900  0.65416900  1
  C  553  1  0.47987700  0.72383700  0.65835900  1
  C  554  1  0.45440000  0.72907100  0.67035600  1
  C  555  1  0.46538300  0.74440100  0.67378500  1
  C  556  1  0.42271800  0.72137200  0.67873400  1
  C  557  1  0.40251300  0.72925000  0.69092500  1
  C  558  1  0.41371000  0.74468200  0.69479900  1
  C  559  1  0.44520900  0.75230100  0.68601300  1
  C  560  1  0.53640100  0.73352400  0.64192600  1
  C  561  1  0.53738000  0.71919100  0.63392000  1
  C  562  1  0.50934800  0.70723700  0.63849500  1
  C  563  1  0.48058000  0.70946200  0.65070100  1
  C  576  1  0.50013000  0.74979700  0.66365400  1
  C  577  1  0.39324700  0.75225600  0.70826700  1
  C  580  1  0.56606100  0.71655300  0.62059200  1
  C  583  1  0.61349700  0.74912600  0.70599100  1
  C  586  1  0.41919700  0.78295400  0.62415100  1
  C  589  1  0.25990300  0.40432200  0.48584700  1
  C  590  1  0.23075100  0.40709700  0.47399700  1
  C  591  1  0.20214000  0.41818000  0.47906800  1
  C  592  1  0.21246900  0.42235800  0.49427500  1
  C  593  1  0.19023900  0.43436500  0.50175900  1
  C  594  1  0.15745400  0.44221000  0.49384400  1
  C  595  1  0.14670500  0.43746600  0.47861400  1
  C  596  1  0.16888200  0.42547000  0.47115800  1
  C  597  1  0.23381300  0.39940200  0.45968500  1
  C  598  1  0.26659900  0.38865400  0.45745300  1
  C  599  1  0.29634200  0.38558300  0.46933100  1
  C  600  1  0.29281500  0.39357400  0.48361500  1
  C  601  1  0.24246200  0.40415800  0.51382100  1
  C  602  1  0.27018800  0.40832600  0.52572400  1
  C  603  1  0.29566100  0.42032800  0.52050100  1
  C  604  1  0.28469100  0.42376800  0.50517000  1
  C  605  1  0.32732500  0.42870500  0.52821200  1
  C  606  1  0.34751700  0.44090600  0.52034800  1
  C  607  1  0.33628600  0.44480600  0.50492600  1
  C  608  1  0.30479500  0.43602600  0.49729600  1
  C  609  1  0.21367100  0.39190500  0.51601300  1
  C  610  1  0.21272700  0.38387100  0.53032900  1
  C  611  1  0.24074100  0.38843300  0.54229200  1
  C  612  1  0.26950100  0.40064400  0.54008500  1
  C  625  1  0.24987800  0.41366600  0.49977800  1
  C  626  1  0.35670800  0.45829100  0.49737100  1
  C  629  1  0.18402000  0.37055200  0.53294400  1
  C  632  1  0.13641900  0.45597700  0.50065600  1
  C  635  1  0.33020400  0.37406400  0.46654100  1
  C  638  1  0.75991400  0.09544100  0.51392400  1
  C  639  1  0.73074800  0.09267200  0.52577000  1
  C  640  1  0.70216600  0.08157700  0.52070300  1
  C  641  1  0.71255000  0.07737600  0.50551000  1
  C  642  1  0.69025100  0.06540000  0.49800600  1
  C  643  1  0.65742800  0.05756700  0.50591300  1
  C  644  1  0.64669700  0.06230300  0.52114700  1
  C  645  1  0.66887700  0.07429700  0.52860700  1
  C  646  1  0.73381300  0.10036500  0.54008200  1
  C  647  1  0.76659400  0.11111500  0.54231300  1
  C  648  1  0.79633900  0.11418600  0.53043600  1
  C  649  1  0.79281800  0.10619300  0.51615300  1
  C  650  1  0.74245200  0.09559200  0.48595200  1
  C  651  1  0.77018200  0.09143600  0.47404700  1
  C  652  1  0.79569400  0.07944400  0.47926800  1
  C  653  1  0.78474600  0.07600000  0.49459900  1
  C  654  1  0.82738200  0.07108100  0.47155400  1
  C  655  1  0.84757400  0.05887500  0.47941100  1
  C  656  1  0.83637100  0.05497200  0.49483500  1
  C  657  1  0.80487500  0.06374500  0.50246900  1
  C  658  1  0.71363000  0.10783600  0.48376300  1
  C  659  1  0.71266300  0.11587300  0.46944900  1
  C  660  1  0.74068200  0.11132100  0.45748300  1
  C  661  1  0.76947300  0.09911900  0.45968600  1
  C  674  1  0.74991100  0.08608900  0.49999500  1
  C  675  1  0.85680300  0.04148600  0.50238200  1
  C  678  1  0.68393600  0.12918700  0.46684000  1
  C  681  1  0.63634100  0.04381700  0.49908900  1
  C  684  1  0.83020100  0.12570400  0.53322600  1
  C  687  1  0.00996000  0.26390800  0.65427700  1
  C  688  1  0.98079700  0.27575600  0.65704600  1
  C  689  1  0.95220800  0.27069100  0.66813900  1
  C  690  1  0.96259900  0.25549900  0.67234500  1
  C  691  1  0.94029300  0.24799800  0.68432100  1
  C  692  1  0.90745800  0.25590400  0.69214800  1
  C  693  1  0.89671200  0.27113300  0.68740200  1
  C  694  1  0.91891000  0.27859300  0.67541400  1
  C  695  1  0.98386200  0.29006700  0.64935000  1
  C  696  1  0.01665000  0.29229700  0.63860200  1
  C  697  1  0.04639700  0.28042000  0.63553500  1
  C  698  1  0.04288200  0.26613900  0.64353300  1
  C  699  1  0.99250100  0.23593700  0.65413600  1
  C  700  1  0.02023100  0.22403300  0.65829800  1
  C  701  1  0.04574200  0.22925700  0.67029000  1
  C  702  1  0.03479700  0.24459000  0.67372700  1
  C  703  1  0.07741500  0.22154400  0.67866000  1
  C  704  1  0.09762000  0.22940400  0.69086000  1
  C  705  1  0.08641900  0.24483000  0.69475900  1
  C  706  1  0.05492600  0.25246300  0.68598200  1
  C  707  1  0.96367300  0.23374300  0.64189600  1
  C  708  1  0.96272500  0.21942900  0.63385700  1
  C  709  1  0.99074100  0.20746400  0.63841400  1
  C  710  1  0.01951000  0.20966700  0.65062400  1
  C  723  1  0.99996200  0.24998400  0.66363500  1
  C  724  1  0.10685700  0.25238000  0.70824300  1
  C  727  1  0.93401000  0.21681600  0.62053900  1
  C  730  1  0.88637200  0.24908200  0.70590100  1
  C  733  1  0.08026200  0.28320800  0.62401600  1
  C  736  1  0.50998500  0.23584900  0.34549200  1
  C  737  1  0.48081900  0.22400300  0.34271700  1
  C  738  1  0.45221100  0.22907800  0.33163500  1
  C  739  1  0.46261400  0.24427000  0.32743300  1
  C  740  1  0.44030200  0.25177600  0.31546100  1
  C  741  1  0.40746700  0.24387300  0.30763100  1
  C  742  1  0.39670800  0.22864400  0.31237500  1
  C  743  1  0.41887900  0.22118500  0.32437100  1
  C  744  1  0.48385500  0.20969400  0.35042000  1
  C  745  1  0.51663400  0.20746000  0.36116900  1
  C  746  1  0.54639400  0.21933200  0.36423700  1
  C  747  1  0.54289500  0.23361400  0.35624000  1
  C  748  1  0.49254200  0.26382100  0.34564500  1
  C  749  1  0.52027500  0.27572500  0.34148700  1
  C  750  1  0.54579600  0.27050200  0.32949900  1
  C  751  1  0.53482300  0.25517400  0.32604800  1
  C  752  1  0.57743100  0.27822200  0.32111800  1
  C  753  1  0.59760700  0.27037000  0.30890600  1
  C  754  1  0.58641000  0.25494400  0.30500500  1
  C  755  1  0.55492700  0.24730700  0.31378400  1
  C  756  1  0.46371700  0.26601300  0.35788900  1
  C  757  1  0.46275600  0.28032700  0.36592500  1
  C  758  1  0.49077200  0.29229300  0.36136900  1
  C  759  1  0.51955600  0.29008800  0.34916600  1
  C  772  1  0.49998800  0.24977800  0.33614000  1
  C  773  1  0.60683300  0.24740000  0.29151500  1
  C  776  1  0.43403800  0.28293900  0.37924200  1
  C  779  1  0.38640300  0.25069300  0.29387500  1
  C  782  1  0.58025000  0.21654000  0.37575900  1
  C  785  1  0.06689100  0.03261900  0.00021200  1
  C  786  1  0.03818500  0.03009800  0.01245900  1
  C  787  1  0.01011200  0.01732200  0.01248800  1
  C  788  1  0.01169400  0.00663100  0.99989300  1
  C  789  1  0.04018600  0.00927000  0.98757900  1
  C  790  1  0.06696000  0.02219500  0.98765300  1
  C  793  1  0.98516600  0.99335900  0.99893600  1
  C  794  1  0.95396600  0.99310500  0.98722000  1
  C  795  1  0.92670600  0.98040100  0.98562300  1
  C  796  1  0.92952500  0.96778800  0.99593000  1
  C  797  1  0.96071900  0.96791100  0.00752700  1
  C  798  1  0.98923200  0.98043600  0.00913300  1
  C  813  1  0.56684500  0.46711200  0.99956100  1
  C  814  1  0.53817700  0.46964500  0.98730400  1
  C  815  1  0.51012000  0.48242500  0.98727400  1
  C  816  1  0.51170400  0.49311400  0.99987000  1
  C  817  1  0.54018300  0.49046900  0.01218800  1
  C  818  1  0.56693600  0.47753800  0.01211600  1
  C  821  1  0.48521000  0.50639500  0.00082100  1
  C  822  1  0.45401900  0.50666500  0.01254200  1
  C  823  1  0.42677200  0.51937400  0.01412800  1
  C  824  1  0.42961200  0.53198200  0.00381600  1
  C  825  1  0.46081000  0.53184500  0.99222100  1
  C  826  1  0.48929500  0.51931200  0.99061800  1
  C  841  1  0.31695300  0.24954500  0.78261600  1
  C  842  1  0.28822200  0.23730900  0.78007800  1
  C  843  1  0.26016000  0.23730400  0.76730000  1
  C  844  1  0.26178500  0.24991100  0.75662400  1
  C  845  1  0.29030000  0.26221400  0.75928000  1
  C  846  1  0.31705700  0.26211600  0.77220900  1
  C  849  1  0.23528300  0.25089100  0.74334800  1
  C  850  1  0.20412000  0.26262200  0.74310100  1
  C  851  1  0.17689800  0.26424800  0.73039000  1
  C  852  1  0.17971900  0.25395900  0.71776300  1
  C  853  1  0.21087400  0.24234700  0.71788100  1
  C  854  1  0.23934800  0.24071100  0.73041300  1
  C  869  1  0.81695700  0.25022200  0.21714200  1
  C  870  1  0.78827000  0.26247100  0.21968800  1
  C  871  1  0.76019100  0.26247600  0.23246200  1
  C  872  1  0.76177500  0.24986100  0.24313000  1
  C  873  1  0.79027300  0.23755300  0.24047200  1
  C  874  1  0.81704200  0.23765000  0.22754700  1
  C  877  1  0.73526500  0.24888400  0.25640400  1
  C  878  1  0.70409600  0.23715600  0.25665000  1
  C  879  1  0.67685500  0.23553500  0.26935700  1
  C  880  1  0.67969300  0.24581800  0.28198800  1
  C  881  1  0.71086800  0.25742400  0.28187400  1
  C  882  1  0.73933700  0.25906100  0.26934200  1
  C  897  1  0.93720300  0.46576400  0.99825700  1
  C  898  1  0.96561600  0.46837100  0.01058200  1
  C  899  1  0.99172400  0.48169100  0.01112300  1
  C  900  1  0.98838500  0.49286000  0.99899400  1
  C  901  1  0.96033400  0.49010800  0.98656600  1
  C  902  1  0.93557500  0.47665500  0.98611400  1
  C  905  1  0.01266500  0.50674500  0.99863400  1
  C  906  1  0.04346500  0.50827400  0.98687200  1
  C  907  1  0.06879900  0.52157000  0.98592100  1
  C  908  1  0.06453300  0.53352000  0.99693500  1
  C  909  1  0.03357800  0.53215500  0.00854200  1
  C  910  1  0.00692100  0.51902000  0.00950400  1
  C  925  1  0.43725000  0.03403900  0.00150100  1
  C  926  1  0.46560000  0.03142300  0.98915900  1
  C  927  1  0.49173600  0.01811100  0.98861800  1
  C  928  1  0.48847000  0.00695400  0.00076000  1
  C  929  1  0.46045700  0.00970900  0.01320000  1
  C  930  1  0.43567200  0.02315600  0.01365200  1
  C  933  1  0.51276300  0.99307200  0.00111600  1
  C  934  1  0.54359800  0.99155100  0.01286700  1
  C  935  1  0.56895200  0.97826100  0.01381300  1
  C  936  1  0.56464300  0.96630000  0.00281200  1
  C  937  1  0.53364200  0.96765300  0.99122000  1
  C  938  1  0.50698600  0.98078800  0.99025900  1
  C  953  1  0.68727700  0.24824700  0.78395300  1
  C  954  1  0.71567700  0.26057300  0.78133900  1
  C  955  1  0.74179400  0.26110800  0.76802200  1
  C  956  1  0.73847800  0.24897100  0.75686200  1
  C  957  1  0.71043700  0.23654100  0.75961900  1
  C  958  1  0.68566800  0.23609600  0.77307100  1
  C  961  1  0.76277100  0.24860500  0.74298100  1
  C  962  1  0.79359600  0.23685000  0.74146500  1
  C  963  1  0.81894800  0.23589500  0.72817400  1
  C  964  1  0.81466700  0.24689800  0.71621500  1
  C  965  1  0.78368400  0.25849700  0.71756400  1
  C  966  1  0.75701300  0.25946200  0.73069500  1
  C  981  1  0.18726800  0.25154100  0.21582700  1
  C  982  1  0.21562800  0.23920200  0.21844700  1
  C  983  1  0.24176000  0.23866800  0.23176000  1
  C  984  1  0.23848000  0.25081200  0.24291500  1
  C  985  1  0.21045500  0.26324700  0.24015600  1
  C  986  1  0.18567200  0.26369200  0.22670800  1
  C  989  1  0.26278100  0.25117700  0.25679300  1
  C  990  1  0.29361600  0.26292900  0.25830500  1
  C  991  1  0.31899100  0.26387800  0.27159100  1
  C  992  1  0.31470000  0.25288100  0.28355600  1
  C  993  1  0.28369500  0.24128900  0.28221300  1
  C  994  1  0.25702100  0.24032400  0.26908200  1
  C  1009  1  0.68309500  0.75032000  0.21716100  1
  C  1010  1  0.71182200  0.76255400  0.21971000  1
  C  1011  1  0.73985700  0.76255700  0.23249600  1
  C  1012  1  0.73820700  0.74994900  0.24317000  1
  C  1013  1  0.70969600  0.73764600  0.24050200  1
  C  1014  1  0.68296900  0.73774600  0.22756700  1
  C  1017  1  0.76468300  0.74896800  0.25645300  1
  C  1018  1  0.79584500  0.73723700  0.25670600  1
  C  1019  1  0.82307700  0.73562200  0.26941600  1
  C  1020  1  0.82027000  0.74592500  0.28203300  1
  C  1021  1  0.78910500  0.75753300  0.28191100  1
  C  1022  1  0.76061600  0.75915600  0.26938100  1
  C  1037  1  0.18316400  0.74945900  0.78262700  1
  C  1038  1  0.21184500  0.73721200  0.78006700  1
  C  1039  1  0.23989300  0.73721300  0.76728400  1
  C  1040  1  0.23828500  0.74983200  0.75662200  1
  C  1041  1  0.20979400  0.76214000  0.75929500  1
  C  1042  1  0.18305400  0.76203800  0.77222800  1
  C  1045  1  0.26476600  0.75081500  0.74334100  1
  C  1046  1  0.29594400  0.76253900  0.74309300  1
  C  1047  1  0.32319300  0.76415200  0.73038800  1
  C  1048  1  0.32036400  0.75386100  0.71776300  1
  C  1049  1  0.28917100  0.74226200  0.71787600  1
  C  1050  1  0.26068600  0.74063400  0.73040600  1
  C  1065  1  0.31263300  0.75145200  0.21571300  1
  C  1066  1  0.28423500  0.73912300  0.21832000  1
  C  1067  1  0.25809300  0.73858800  0.23163000  1
  C  1068  1  0.26138500  0.75072500  0.24279200  1
  C  1069  1  0.28941700  0.76315900  0.24003900  1
  C  1070  1  0.31420600  0.76360600  0.22659200  1
  C  1073  1  0.23709300  0.75108800  0.25667400  1
  C  1074  1  0.20629400  0.76285100  0.25819900  1
  C  1075  1  0.18098500  0.76381600  0.27149900  1
  C  1076  1  0.18527300  0.75281300  0.28345900  1
  C  1077  1  0.21621900  0.74120300  0.28209800  1
  C  1078  1  0.24285500  0.74022900  0.26895700  1
  C  1093  1  0.81260400  0.74832600  0.78409300  1
  C  1094  1  0.78426100  0.76067200  0.78148300  1
  C  1095  1  0.75808700  0.76121000  0.76818000  1
  C  1096  1  0.76130900  0.74906300  0.75702700  1
  C  1097  1  0.78931000  0.73661800  0.75977800  1
  C  1098  1  0.81412900  0.73616900  0.77321700  1
  C  1101  1  0.73699700  0.74870600  0.74315000  1
  C  1102  1  0.70616900  0.73695200  0.74163200  1
  C  1103  1  0.68083000  0.73599500  0.72833800  1
  C  1104  1  0.68514800  0.74698700  0.71637000  1
  C  1105  1  0.71613400  0.75858500  0.71772300  1
  C  1106  1  0.74277700  0.75955700  0.73086000  1
  C  1121  1  0.56678800  0.53263800  0.50033700  1
  C  1122  1  0.53805400  0.53007400  0.51256600  1
  C  1123  1  0.50999400  0.51729500  0.51254300  1
  C  1124  1  0.51163200  0.50664500  0.49991300  1
  C  1125  1  0.54014600  0.50932900  0.48761600  1
  C  1126  1  0.56689500  0.52225800  0.48774200  1
  C  1129  1  0.48514400  0.49337000  0.49890500  1
  C  1130  1  0.45398100  0.49314500  0.48717300  1
  C  1131  1  0.42676200  0.48043700  0.48552300  1
  C  1132  1  0.42958100  0.46779300  0.49579200  1
  C  1133  1  0.46073700  0.46788700  0.50740300  1
  C  1134  1  0.48921300  0.48041600  0.50906200  1
  C  1149  1  0.06673100  0.96708900  0.49942800  1
  C  1150  1  0.03803000  0.96966800  0.48719100  1
  C  1151  1  0.00999100  0.98245200  0.48721600  1
  C  1152  1  0.01163500  0.99309700  0.49984900  1
  C  1153  1  0.04014000  0.99040500  0.51214800  1
  C  1154  1  0.06686700  0.97746800  0.51202100  1
  C  1157  1  0.98517500  0.00638200  0.50085500  1
  C  1158  1  0.95403200  0.00662200  0.51259300  1
  C  1159  1  0.92682200  0.01933400  0.51423400  1
  C  1160  1  0.92966300  0.03197400  0.50396200  1
  C  1161  1  0.96082300  0.03186900  0.49235200  1
  C  1162  1  0.98926700  0.01933100  0.49069300  1
  C  1177  1  0.43717200  0.96578200  0.49828900  1
  C  1178  1  0.46556500  0.96839200  0.51061800  1
  C  1179  1  0.49170100  0.98170400  0.51115200  1
  C  1180  1  0.48840700  0.99286400  0.49901300  1
  C  1181  1  0.46037200  0.99011000  0.48658100  1
  C  1182  1  0.43558400  0.97666200  0.48613500  1
  C  1185  1  0.51272200  0.00674000  0.49864400  1
  C  1186  1  0.54354100  0.00824900  0.48688600  1
  C  1187  1  0.56889500  0.02153800  0.48592300  1
  C  1188  1  0.56463100  0.03350200  0.49692300  1
  C  1189  1  0.53366000  0.03215800  0.50852700  1
  C  1190  1  0.50698300  0.01902900  0.50949900  1
  C  1205  1  0.93721900  0.53401900  0.50146600  1
  C  1206  1  0.96556000  0.53139900  0.48912100  1
  C  1207  1  0.99172000  0.51809300  0.48858900  1
  C  1208  1  0.98848900  0.50694600  0.50074200  1
  C  1209  1  0.96048200  0.50970500  0.51318200  1
  C  1210  1  0.93567600  0.52314700  0.51362600  1
  C  1213  1  0.01281000  0.49307200  0.50110900  1
  C  1214  1  0.04365500  0.49156900  0.51285800  1
  C  1215  1  0.06903100  0.47828500  0.51381600  1
  C  1216  1  0.06472900  0.46631100  0.50283000  1
  C  1217  1  0.03371900  0.46764600  0.49123800  1
  C  1218  1  0.00704300  0.48077500  0.49026500  1
  C  1233  1  0.42370100  0.20340700  0.90065800  1
  C  1234  1  0.45393700  0.19179600  0.90345400  1
  C  1235  1  0.44415100  0.17834000  0.91213800  1
  C  1236  1  0.40263000  0.17673900  0.91820000  1
  C  1237  1  0.37239900  0.18846000  0.91545400  1
  C  1238  1  0.38284000  0.20168600  0.90678700  1
  C  1241  1  0.39001500  0.16365400  0.92703100  1
  C  1242  1  0.40042500  0.16339400  0.94296300  1
  C  1243  1  0.38823000  0.15090100  0.95237900  1
  C  1244  1  0.36508000  0.13849200  0.94605200  1
  C  1245  1  0.35501400  0.13866000  0.93015700  1
  C  1246  1  0.36716200  0.15108200  0.92040500  1
  C  1261  1  0.92368800  0.29636400  0.09912700  1
  C  1262  1  0.95392800  0.30797400  0.09633200  1
  C  1263  1  0.94414500  0.32142800  0.08764600  1
  C  1264  1  0.90262700  0.32303100  0.08158200  1
  C  1265  1  0.87239400  0.31131100  0.08432700  1
  C  1266  1  0.88283100  0.29808400  0.09299600  1
  C  1269  1  0.89002200  0.33611300  0.07274800  1
  C  1270  1  0.90044400  0.33637100  0.05681700  1
  C  1271  1  0.88823900  0.34885900  0.04739500  1
  C  1272  1  0.86508600  0.36127000  0.05371800  1
  C  1273  1  0.85500400  0.36110500  0.06961100  1
  C  1274  1  0.86715300  0.34868500  0.07936700  1
  C  1289  1  0.67367400  0.34906100  0.95340900  1
  C  1290  1  0.70393900  0.34627400  0.94180600  1
  C  1291  1  0.69418100  0.33760000  0.92834000  1
  C  1292  1  0.65266300  0.33154200  0.92671900  1
  C  1293  1  0.62240400  0.33427800  0.93843300  1
  C  1294  1  0.63281700  0.34293300  0.95167100  1
  C  1297  1  0.64008000  0.32272100  0.91362500  1
  C  1298  1  0.65051500  0.30679200  0.91335300  1
  C  1299  1  0.63833500  0.29738200  0.90085100  1
  C  1300  1  0.61517300  0.30371400  0.88844800  1
  C  1301  1  0.60507800  0.31960700  0.88862700  1
  C  1302  1  0.61721400  0.32935000  0.90105800  1
  C  1317  1  0.17369800  0.15071000  0.04635600  1
  C  1318  1  0.20395300  0.15349400  0.05796400  1
  C  1319  1  0.19418900  0.16216700  0.07142900  1
  C  1320  1  0.15267500  0.16823100  0.07304400  1
  C  1321  1  0.12242600  0.16549800  0.06132600  1
  C  1322  1  0.13284400  0.15684200  0.04808900  1
  C  1325  1  0.14008500  0.17705000  0.08613800  1
  C  1326  1  0.15051900  0.19298100  0.08641100  1
  C  1327  1  0.13831600  0.20239100  0.09890800  1
  C  1328  1  0.11515400  0.19605700  0.11131200  1
  C  1329  1  0.10506500  0.18016500  0.11113100  1
  C  1330  1  0.11721200  0.17042200  0.09870300  1
  C  1345  1  0.57614900  0.79672400  0.09906300  1
  C  1346  1  0.54642300  0.80853600  0.09637300  1
  C  1347  1  0.55680700  0.82201800  0.08782400  1
  C  1348  1  0.59840400  0.82343700  0.08178700  1
  C  1349  1  0.62808000  0.81149100  0.08439000  1
  C  1350  1  0.61705300  0.79824300  0.09292300  1
  C  1353  1  0.61172400  0.83657900  0.07318100  1
  C  1354  1  0.60067200  0.83733900  0.05732400  1
  C  1355  1  0.61368000  0.84987500  0.04811400  1
  C  1356  1  0.63841700  0.86180400  0.05456000  1
  C  1357  1  0.64912300  0.86114300  0.07038400  1
  C  1358  1  0.63608000  0.84869300  0.07994000  1
  C  1373  1  0.07615700  0.70302800  0.90070100  1
  C  1374  1  0.04642500  0.69121700  0.90338700  1
  C  1375  1  0.05679900  0.67773400  0.91193700  1
  C  1376  1  0.09839000  0.67631400  0.91797900  1
  C  1377  1  0.12807000  0.68826000  0.91538100  1
  C  1378  1  0.11705600  0.70150800  0.90684500  1
  C  1381  1  0.11169900  0.66317200  0.92658700  1
  C  1382  1  0.10062200  0.66241200  0.94244200  1
  C  1383  1  0.11363300  0.64987800  0.95165500  1
  C  1384  1  0.13837200  0.63794800  0.94521400  1
  C  1385  1  0.14910200  0.63860900  0.92939200  1
  C  1386  1  0.13607100  0.65105900  0.91983400  1
  C  1401  1  0.32366800  0.65047100  0.04710400  1
  C  1402  1  0.29364700  0.65375600  0.05865900  1
  C  1403  1  0.30401200  0.66262600  0.07192900  1
  C  1404  1  0.34589200  0.66838200  0.07338400  1
  C  1405  1  0.37588900  0.66517400  0.06169700  1
  C  1406  1  0.36488100  0.65631200  0.04866200  1
  C  1409  1  0.35911700  0.67728200  0.08633500  1
  C  1410  1  0.34907300  0.69324800  0.08650400  1
  C  1411  1  0.36155500  0.70270000  0.09892900  1
  C  1412  1  0.38463600  0.69637400  0.11135600  1
  C  1413  1  0.39441900  0.68045600  0.11126500  1
  C  1414  1  0.38194600  0.67066500  0.09891800  1
  C  1429  1  0.82371000  0.84930700  0.95265400  1
  C  1430  1  0.79368700  0.84601700  0.94110000  1
  C  1431  1  0.80405600  0.83714500  0.92783100  1
  C  1432  1  0.84594000  0.83139200  0.92637700  1
  C  1433  1  0.87593700  0.83460500  0.93806300  1
  C  1434  1  0.86492900  0.84347000  0.95109500  1
  C  1437  1  0.85916500  0.82248600  0.91343000  1
  C  1438  1  0.84911800  0.80652100  0.91326800  1
  C  1439  1  0.86160900  0.79706300  0.90084800  1
  C  1440  1  0.88468700  0.80338500  0.88841600  1
  C  1441  1  0.89446600  0.81930300  0.88850100  1
  C  1442  1  0.88199400  0.82909900  0.90084300  1
  C  1457  1  0.92608200  0.70266200  0.40042200  1
  C  1458  1  0.95608900  0.69110500  0.40371900  1
  C  1459  1  0.94570400  0.67784400  0.41259800  1
  C  1460  1  0.90381700  0.67639900  0.41835000  1
  C  1461  1  0.87383300  0.68808700  0.41512900  1
  C  1462  1  0.88486000  0.70111300  0.40625800  1
  C  1465  1  0.89058000  0.66345600  0.42725900  1
  C  1466  1  0.90061700  0.66329700  0.44322500  1
  C  1467  1  0.88814500  0.65087500  0.45268300  1
  C  1468  1  0.86508000  0.63844100  0.44636100  1
  C  1469  1  0.85529700  0.63852400  0.43044300  1
  C  1470  1  0.86776000  0.65086800  0.42064800  1
  C  1485  1  0.42601900  0.79710800  0.59936600  1
  C  1486  1  0.45603800  0.80865800  0.59606400  1
  C  1487  1  0.44566300  0.82192100  0.58718500  1
  C  1488  1  0.40377300  0.82337300  0.58143800  1
  C  1489  1  0.37377600  0.81169100  0.58466400  1
  C  1490  1  0.38479000  0.79866400  0.59353600  1
  C  1493  1  0.39054400  0.83631300  0.57252200  1
  C  1494  1  0.40060100  0.83646600  0.55655800  1
  C  1495  1  0.38813500  0.84888200  0.54709200  1
  C  1496  1  0.36507000  0.86131900  0.55340600  1
  C  1497  1  0.35527500  0.86124400  0.56932300  1
  C  1498  1  0.36772200  0.84890500  0.57912500  1
  C  1513  1  0.17362100  0.84910100  0.45304100  1
  C  1514  1  0.20335000  0.84640300  0.44123200  1
  C  1515  1  0.19296000  0.83785300  0.42775100  1
  C  1516  1  0.15135800  0.83181900  0.42633200  1
  C  1517  1  0.12167900  0.83443000  0.43827600  1
  C  1518  1  0.13271000  0.84296800  0.45152200  1
  C  1521  1  0.13803800  0.82320700  0.41319500  1
  C  1522  1  0.14912000  0.80735300  0.41243800  1
  C  1523  1  0.13613300  0.79813800  0.39990200  1
  C  1524  1  0.11139300  0.80457600  0.38797200  1
  C  1525  1  0.10065000  0.82039700  0.38863000  1
  C  1526  1  0.11367100  0.82995700  0.40108000  1
  C  1541  1  0.67362100  0.65066500  0.54671400  1
  C  1542  1  0.70333700  0.65336200  0.55852700  1
  C  1543  1  0.69293400  0.66191200  0.57200600  1
  C  1544  1  0.65133100  0.66794700  0.57341800  1
  C  1545  1  0.62166700  0.66534000  0.56146900  1
  C  1546  1  0.63271000  0.65680000  0.54822600  1
  C  1549  1  0.63799800  0.67655800  0.58655500  1
  C  1550  1  0.64906600  0.69241300  0.58731200  1
  C  1551  1  0.63604500  0.70162800  0.59984300  1
  C  1552  1  0.61130800  0.69518700  0.61177300  1
  C  1553  1  0.60058100  0.67936600  0.61111400  1
  C  1554  1  0.61362300  0.66980500  0.59866700  1
  C  1569  1  0.07377600  0.29746000  0.59929500  1
  C  1570  1  0.04428800  0.30922500  0.59610600  1
  C  1571  1  0.05527700  0.32251600  0.58736900  1
  C  1572  1  0.09723500  0.32377100  0.58164100  1
  C  1573  1  0.12665400  0.31184900  0.58471400  1
  C  1574  1  0.11504000  0.29880000  0.59344800  1
  C  1577  1  0.11118000  0.33676800  0.57295400  1
  C  1578  1  0.10053000  0.33741900  0.55705500  1
  C  1579  1  0.11382100  0.34988300  0.54780400  1
  C  1580  1  0.13845300  0.36183900  0.55425200  1
  C  1581  1  0.14884300  0.36126800  0.57010600  1
  C  1582  1  0.13547700  0.34890100  0.57970700  1
  C  1597  1  0.57374600  0.20228800  0.40048100  1
  C  1598  1  0.54425900  0.19052000  0.40366400  1
  C  1599  1  0.55524200  0.17722900  0.41240000  1
  C  1600  1  0.59719800  0.17597400  0.41813100  1
  C  1601  1  0.62661500  0.18789700  0.41506400  1
  C  1602  1  0.61500900  0.20094500  0.40632700  1
  C  1605  1  0.61113500  0.16297600  0.42682000  1
  C  1606  1  0.60046100  0.16232100  0.44271700  1
  C  1607  1  0.61375600  0.14986000  0.45196900  1
  C  1608  1  0.63839500  0.13790500  0.44552500  1
  C  1609  1  0.64880800  0.13847800  0.42967100  1
  C  1610  1  0.63545000  0.15084600  0.42007100  1
  C  1625  1  0.82372900  0.15043100  0.54747100  1
  C  1626  1  0.79425800  0.15362200  0.55924400  1
  C  1627  1  0.80526200  0.16236400  0.57252800  1
  C  1628  1  0.84721900  0.16809700  0.57377100  1
  C  1629  1  0.87662400  0.16502100  0.56184500  1
  C  1630  1  0.86499200  0.15628000  0.54880200  1
  C  1633  1  0.86117800  0.17679100  0.58676100  1
  C  1634  1  0.85052900  0.19269000  0.58740800  1
  C  1635  1  0.86382300  0.20194600  0.59986800  1
  C  1636  1  0.88846000  0.19550100  0.61182500  1
  C  1637  1  0.89885000  0.17964800  0.61126000  1
  C  1638  1  0.88548000  0.17004300  0.59889600  1
  C  1653  1  0.32373800  0.34933700  0.45229600  1
  C  1654  1  0.29427100  0.34614600  0.44052400  1
  C  1655  1  0.30528200  0.33740300  0.42724000  1
  C  1656  1  0.34724000  0.33167100  0.42599800  1
  C  1657  1  0.37663600  0.33474700  0.43792700  1
  C  1658  1  0.36500400  0.34349100  0.45096700  1
  C  1661  1  0.36119900  0.32297400  0.41301100  1
  C  1662  1  0.35054400  0.30707400  0.41236600  1
  C  1663  1  0.36385100  0.29781500  0.39991200  1
  C  1664  1  0.38848800  0.30425700  0.38795300  1
  C  1665  1  0.39888200  0.32011100  0.38851500  1
  C  1666  1  0.38551100  0.32971900  0.40087600  1
  N  803  1  0.98224000  0.01595500  0.02439800  1
  N  806  1  0.01958100  0.97952100  0.02023900  1
  N  809  1  0.09318000  0.04589800  0.99943000  1
  N  811  1  0.90209500  0.95492400  0.99514600  1
  N  831  1  0.48227400  0.48380300  0.97535700  1
  N  834  1  0.51964500  0.52021300  0.97951100  1
  N  837  1  0.59315400  0.45383700  0.00033000  1
  N  839  1  0.40219800  0.54485000  0.00459000  1
  N  859  1  0.23226000  0.22540600  0.76591500  1
  N  862  1  0.26966000  0.22959100  0.72949400  1
  N  865  1  0.34325600  0.25029900  0.79589200  1
  N  867  1  0.15230900  0.25476800  0.70489700  1
  N  887  1  0.73232600  0.27438500  0.23385400  1
  N  890  1  0.76966500  0.27017500  0.27026500  1
  N  893  1  0.84329700  0.24948000  0.20387500  1
  N  895  1  0.65228800  0.24500800  0.29485500  1
  N  915  1  0.01944600  0.48313100  0.02307200  1
  N  918  1  0.97669000  0.51874100  0.02068800  1
  N  921  1  0.91228000  0.45214200  0.99710300  1
  N  923  1  0.09050800  0.54683400  0.99693100  1
  N  943  1  0.51939600  0.01666100  0.97665100  1
  N  946  1  0.47671200  0.98105700  0.97908900  1
  N  949  1  0.41227400  0.04764900  0.00264500  1
  N  951  1  0.59059300  0.95298000  0.00282400  1
  N  971  1  0.76950100  0.27306100  0.76657600  1
  N  974  1  0.72676100  0.27063900  0.73096200  1
  N  977  1  0.66234800  0.24709800  0.79757400  1
  N  979  1  0.84066100  0.24689100  0.70290500  1
  N  999  1  0.26943400  0.22670500  0.23321300  1
  N  1002  1  0.22675200  0.22915300  0.26882200  1
  N  1005  1  0.16231400  0.25268200  0.20221100  1
  N  1007  1  0.34068900  0.25289100  0.29686500  1
  N  1027  1  0.76775700  0.77445400  0.23388900  1
  N  1030  1  0.73029800  0.77027400  0.27029400  1
  N  1033  1  0.65682700  0.74956900  0.20387600  1
  N  1035  1  0.84771600  0.74513800  0.29489000  1
  N  1055  1  0.26775700  0.72530500  0.76588000  1
  N  1058  1  0.23034800  0.72952500  0.72948400  1
  N  1061  1  0.15685900  0.75019400  0.79590400  1
  N  1063  1  0.34780400  0.75465100  0.70490400  1
  N  1083  1  0.23038900  0.72663400  0.23307300  1
  N  1086  1  0.27308800  0.72904600  0.26868400  1
  N  1089  1  0.33760900  0.75259900  0.20210300  1
  N  1091  1  0.15934700  0.75283900  0.29678700  1
  N  1111  1  0.73043700  0.77318100  0.76673400  1
  N  1114  1  0.77304800  0.77072700  0.73112300  1
  N  1117  1  0.83762500  0.74718600  0.79769200  1
  N  1119  1  0.65923600  0.74695700  0.70304100  1
  N  1139  1  0.48209200  0.51588300  0.52443700  1
  N  1142  1  0.51952200  0.47947600  0.52018000  1
  N  1145  1  0.59309400  0.54591300  0.49961500  1
  N  1147  1  0.40215100  0.45493500  0.49496700  1
  N  1167  1  0.98210800  0.98387700  0.47531800  1
  N  1170  1  0.01957600  0.02025900  0.47957400  1
  N  1173  1  0.09305500  0.95381600  0.50013300  1
  N  1175  1  0.90224900  0.04483700  0.50478100  1
  N  1195  1  0.51940800  0.98314800  0.52310700  1
  N  1198  1  0.47673700  0.01877000  0.52067800  1
  N  1201  1  0.41223000  0.95216400  0.49713800  1
  N  1203  1  0.59062800  0.04681000  0.49690800  1
  N  1223  1  0.01937300  0.51663900  0.47662000  1
  N  1226  1  0.97676300  0.48102400  0.47909900  1
  N  1229  1  0.91223000  0.54762500  0.50260500  1
  N  1231  1  0.09070200  0.45299800  0.50285300  1
  N  1251  1  0.47461800  0.16744400  0.91422700  1
  N  1254  1  0.35671700  0.15047600  0.90512000  1
  N  1257  1  0.43567900  0.21648200  0.89185200  1
  N  1259  1  0.35100400  0.12585000  0.95507100  1
  N  1279  1  0.97461800  0.33232500  0.08555700  1
  N  1282  1  0.85669900  0.34929500  0.09465100  1
  N  1285  1  0.93566300  0.28328700  0.10793100  1
  N  1287  1  0.85102000  0.37391000  0.04469500  1
  N  1307  1  0.72467600  0.33552100  0.91745100  1
  N  1310  1  0.60674100  0.34463400  0.90046400  1
  N  1313  1  0.68562100  0.35785500  0.96649700  1
  N  1315  1  0.60109400  0.29470100  0.87580300  1
  N  1335  1  0.22467600  0.16424500  0.08232100  1
  N  1338  1  0.10674700  0.15513700  0.09929700  1
  N  1341  1  0.18564800  0.14191400  0.03327100  1
  N  1343  1  0.10107200  0.20507100  0.12395600  1
  N  1363  1  0.52684200  0.83312800  0.08587500  1
  N  1366  1  0.64711300  0.84885000  0.09518100  1
  N  1369  1  0.56370200  0.78369600  0.10785000  1
  N  1371  1  0.65339400  0.87445300  0.04574900  1
  N  1391  1  0.02683000  0.66666667  0.91388200  1
  N  1394  1  0.14712400  0.65090400  0.90459500  1
  N  1397  1  0.06371800  0.71605800  0.89191200  1
  N  1399  1  0.15332600  0.62529600  0.95402700  1
  N  1419  1  0.27373900  0.66513900  0.08281200  1
  N  1422  1  0.39201500  0.65534900  0.09962200  1
  N  1425  1  0.31115800  0.64132800  0.03434000  1
  N  1427  1  0.39887200  0.70541300  0.12395500  1
  N  1447  1  0.77378200  0.83462600  0.91695100  1
  N  1450  1  0.89206000  0.84441400  0.90013300  1
  N  1453  1  0.81119300  0.85845100  0.96541700  1
  N  1455  1  0.89891300  0.79434200  0.87582000  1
  N  1475  1  0.97596600  0.66695900  0.41512200  1
  N  1478  1  0.85769700  0.65015500  0.40533100  1
  N  1481  1  0.93861400  0.71541600  0.39127000  1
  N  1483  1  0.85087200  0.62584200  0.45540300  1
  N  1503  1  0.47593700  0.83280000  0.58465500  1
  N  1506  1  0.35764700  0.84962500  0.59444000  1
  N  1509  1  0.43854500  0.78434900  0.60851300  1
  N  1511  1  0.35088400  0.87391700  0.54435700  1
  N  1531  1  0.22292500  0.83589700  0.41664200  1
  N  1534  1  0.10261000  0.84519600  0.40092000  1
  N  1537  1  0.18607800  0.85788900  0.46606800  1
  N  1539  1  0.09644800  0.79576100  0.37532000  1
  N  1559  1  0.72288700  0.66386700  0.58311900  1
  N  1562  1  0.60257700  0.65456500  0.59882500  1
  N  1565  1  0.68608700  0.64187500  0.53369000  1
  N  1567  1  0.59635400  0.70400000  0.62442400  1
  N  1587  1  0.02553000  0.33362200  0.58499100  1
  N  1590  1  0.14609900  0.34917200  0.59498700  1
  N  1593  1  0.06076500  0.28474900  0.60841600  1
  N  1595  1  0.15356500  0.37444700  0.54542000  1
  N  1615  1  0.52549300  0.16612200  0.41477500  1
  N  1618  1  0.64609300  0.15057800  0.40479200  1
  N  1621  1  0.56074100  0.21499800  0.39135700  1
  N  1623  1  0.65349400  0.12529500  0.45435600  1
  N  1643  1  0.77553000  0.16474600  0.58364000  1
  N  1646  1  0.89610400  0.15476300  0.59917200  1
  N  1649  1  0.81069900  0.14130400  0.53476800  1
  N  1651  1  0.90356200  0.20433600  0.62443200  1
  N  1671  1  0.27555200  0.33501800  0.41612900  1
  N  1674  1  0.39613500  0.34499800  0.40059800  1
  N  1677  1  0.31070400  0.35846400  0.46500000  1
  N  1679  1  0.40358700  0.29541800  0.37534600  1
