# generated using pymatgen
data_H10C13N5O
_symmetry_space_group_name_H-M   'P 1'
_cell_length_a   46.18980000
_cell_length_b   60.05990000
_cell_length_c   60.05990000
_cell_angle_alpha   120.00000000
_cell_angle_beta   90.00000000
_cell_angle_gamma   90.00000000
_symmetry_Int_Tables_number   1
_chemical_formula_structural   H10C13N5O
_chemical_formula_sum   'H480 C624 N240 O48'
_cell_volume   144293.21930145
_cell_formula_units_Z   48
loop_
 _symmetry_equiv_pos_site_id
 _symmetry_equiv_pos_as_xyz
  1  'x, y, z'
loop_
 _atom_site_type_symbol
 _atom_site_label
 _atom_site_symmetry_multiplicity
 _atom_site_fract_x
 _atom_site_fract_y
 _atom_site_fract_z
 _atom_site_occupancy
  H  7  1  0.85165500  0.65368000  0.06730000  1
  H  16  1  0.82551700  0.65344500  0.13229100  1
  H  17  1  0.75183500  0.58686900  0.06142200  1
  H  18  1  0.76080900  0.58534300  0.08716400  1
  H  19  1  0.91962000  0.73360100  0.12945900  1
  H  20  1  0.92654600  0.71426700  0.09867800  1
  H  21  1  0.83231700  0.70316000  0.14537100  1
  H  22  1  0.79716200  0.66016600  0.06971800  1
  H  33  1  0.85161800  0.40602600  0.34989200  1
  H  42  1  0.82547900  0.47126400  0.35005100  1
  H  43  1  0.75186900  0.46705000  0.41670500  1
  H  44  1  0.76077800  0.49430800  0.41818900  1
  H  45  1  0.91961100  0.38823700  0.26997700  1
  H  46  1  0.92651400  0.37677900  0.28930500  1
  H  47  1  0.83233300  0.43463000  0.30041500  1
  H  48  1  0.79719900  0.40201400  0.34346900  1
  H  59  1  0.85149600  0.93627300  0.59759900  1
  H  68  1  0.82556300  0.87127500  0.53231000  1
  H  69  1  0.75177400  0.94209000  0.53655200  1
  H  70  1  0.76090400  0.91642800  0.50927500  1
  H  71  1  0.91943500  0.87418500  0.61549600  1
  H  72  1  0.92632500  0.90497300  0.62696600  1
  H  73  1  0.83226400  0.85817200  0.56893300  1
  H  74  1  0.79701200  0.93376500  0.60157600  1
  H  85  1  0.35167000  0.34366200  0.94256500  1
  H  94  1  0.32562300  0.34396200  0.87761700  1
  H  95  1  0.25189900  0.41049900  0.94851000  1
  H  96  1  0.26087700  0.41207200  0.92279400  1
  H  97  1  0.41959400  0.26368600  0.88043500  1
  H  98  1  0.42650900  0.28301800  0.91122000  1
  H  99  1  0.33235900  0.29420100  0.86448500  1
  H  100  1  0.29716900  0.33709700  0.94008800  1
  H  111  1  0.35161800  0.59131100  0.65994300  1
  H  120  1  0.32552200  0.52605500  0.65970400  1
  H  121  1  0.25181500  0.53029700  0.59311500  1
  H  122  1  0.26080200  0.50303600  0.59160000  1
  H  123  1  0.41961800  0.60905800  0.73983800  1
  H  124  1  0.42652500  0.62052200  0.72051500  1
  H  125  1  0.33233700  0.56267200  0.70939200  1
  H  126  1  0.29714500  0.59532600  0.66638800  1
  H  137  1  0.35163300  0.06105000  0.41228400  1
  H  146  1  0.32545500  0.12613700  0.47749600  1
  H  147  1  0.25181900  0.05528900  0.47329700  1
  H  148  1  0.26071700  0.08107400  0.50055000  1
  H  149  1  0.41957700  0.12316900  0.39443800  1
  H  150  1  0.42649200  0.09238900  0.38299700  1
  H  151  1  0.33231100  0.13912000  0.44085400  1
  H  152  1  0.29720800  0.06343900  0.40825200  1
  H  163  1  0.00463500  0.59171500  0.94320100  1
  H  172  1  0.03093000  0.52658300  0.87818100  1
  H  173  1  0.10527800  0.53060300  0.94853000  1
  H  174  1  0.09619200  0.50338100  0.92278800  1
  H  175  1  0.93726700  0.60992900  0.88101900  1
  H  176  1  0.93047000  0.62161700  0.91188300  1
  H  177  1  0.02432500  0.56317400  0.86519600  1
  H  178  1  0.05938500  0.59575700  0.94085500  1
  H  189  1  0.00450000  0.06034700  0.65969600  1
  H  198  1  0.03092800  0.12531300  0.65954300  1
  H  199  1  0.10518900  0.05488600  0.59321300  1
  H  200  1  0.09625700  0.08069100  0.59179000  1
  H  201  1  0.93721500  0.12264600  0.74010800  1
  H  202  1  0.93036900  0.09178900  0.72094200  1
  H  203  1  0.02431900  0.13833300  0.70912200  1
  H  204  1  0.05926600  0.06262300  0.66608100  1
  H  215  1  0.00450700  0.34392200  0.41187700  1
  H  224  1  0.03100600  0.34401200  0.47697500  1
  H  225  1  0.10520400  0.41035700  0.47288000  1
  H  226  1  0.09628300  0.41175300  0.50009700  1
  H  227  1  0.93715000  0.26355800  0.39378200  1
  H  228  1  0.93031600  0.28273500  0.38210200  1
  H  229  1  0.02429300  0.29445800  0.44039900  1
  H  230  1  0.05925300  0.33755500  0.40776500  1
  H  241  1  0.50457600  0.40559400  0.06664900  1
  H  250  1  0.53111300  0.47069000  0.13174700  1
  H  251  1  0.60522600  0.46672400  0.06131700  1
  H  252  1  0.59637400  0.49392200  0.08718400  1
  H  253  1  0.43723000  0.38749900  0.12892300  1
  H  254  1  0.43040400  0.37580600  0.09806400  1
  H  255  1  0.52436400  0.43413000  0.14463500  1
  H  256  1  0.55925300  0.40154500  0.06885200  1
  H  267  1  0.50462400  0.93695600  0.35014400  1
  H  276  1  0.53095900  0.87195800  0.35027700  1
  H  277  1  0.60527200  0.94235600  0.41659100  1
  H  278  1  0.59620700  0.91661600  0.41808300  1
  H  279  1  0.43728200  0.87474400  0.26973800  1
  H  280  1  0.43047100  0.90560600  0.28891300  1
  H  281  1  0.52435100  0.85895600  0.30068400  1
  H  282  1  0.55938100  0.93461800  0.34373400  1
  H  293  1  0.50450300  0.65342200  0.59797500  1
  H  302  1  0.53090500  0.65326800  0.53285700  1
  H  303  1  0.60514800  0.58693400  0.53696400  1
  H  304  1  0.59620900  0.58550200  0.50973300  1
  H  305  1  0.43719800  0.73383200  0.61612000  1
  H  306  1  0.43035900  0.71465700  0.62780000  1
  H  307  1  0.52429700  0.70286700  0.56943200  1
  H  308  1  0.55926600  0.65983300  0.60209000  1
  H  319  1  0.00993400  0.34652300  0.93994100  1
  H  328  1  0.01785600  0.35487500  0.88060500  1
  H  329  1  0.13106900  0.37886800  0.89817600  1
  H  330  1  0.10998900  0.38969200  0.88360500  1
  H  331  1  0.92868700  0.27788300  0.88176200  1
  H  332  1  0.92574100  0.29598200  0.91315400  1
  H  333  1  0.01801000  0.29871400  0.86008100  1
  H  334  1  0.07144200  0.32789300  0.91858100  1
  H  345  1  0.00987200  0.58579400  0.65697300  1
  H  354  1  0.01790800  0.51808700  0.64862800  1
  H  355  1  0.13109300  0.51179900  0.62457200  1
  H  356  1  0.11006700  0.48637000  0.61378100  1
  H  357  1  0.92886300  0.59641400  0.72586600  1
  H  358  1  0.92583100  0.60966900  0.70773600  1
  H  359  1  0.01807900  0.55374500  0.70477400  1
  H  360  1  0.07138700  0.58310300  0.67555400  1
  H  371  1  0.00991100  0.06359000  0.41777600  1
  H  380  1  0.01790600  0.12296300  0.48550800  1
  H  381  1  0.13106500  0.10511400  0.49184300  1
  H  382  1  0.11002200  0.11973900  0.51725800  1
  H  383  1  0.92895300  0.12181800  0.40690800  1
  H  384  1  0.92596000  0.09043400  0.39361500  1
  H  385  1  0.01806800  0.14345400  0.44988700  1
  H  386  1  0.07141800  0.08487600  0.42051300  1
  H  397  1  0.50989600  0.65071700  0.06985900  1
  H  406  1  0.51788200  0.64236700  0.12918200  1
  H  407  1  0.63106300  0.61827400  0.11143500  1
  H  408  1  0.61001100  0.60744100  0.12601700  1
  H  409  1  0.42885200  0.71970500  0.12806300  1
  H  410  1  0.42587500  0.70154500  0.09668400  1
  H  411  1  0.51807100  0.69854900  0.14971000  1
  H  412  1  0.57142700  0.66935700  0.09118700  1
  H  423  1  0.50996300  0.41149600  0.35277100  1
  H  432  1  0.51786500  0.47921100  0.36113900  1
  H  433  1  0.63108300  0.48561200  0.38510900  1
  H  434  1  0.61001100  0.51101200  0.39593600  1
  H  435  1  0.42866400  0.40107000  0.28418300  1
  H  436  1  0.42574100  0.38775900  0.30226700  1
  H  437  1  0.51798000  0.44358600  0.30499100  1
  H  438  1  0.57143800  0.41424400  0.33414700  1
  H  449  1  0.50992200  0.93374400  0.59205700  1
  H  458  1  0.51796700  0.87436100  0.52436300  1
  H  459  1  0.63113900  0.89217300  0.51807900  1
  H  460  1  0.61011900  0.87751600  0.49265000  1
  H  461  1  0.42889100  0.87548500  0.60267300  1
  H  462  1  0.42586600  0.90687100  0.61592700  1
  H  463  1  0.51812300  0.85389500  0.56002600  1
  H  464  1  0.57143300  0.91248300  0.58938200  1
  H  475  1  0.84799500  0.41192400  0.06936600  1
  H  484  1  0.83948700  0.47881300  0.12872400  1
  H  485  1  0.72618800  0.48529000  0.11143400  1
  H  486  1  0.74726700  0.51068100  0.12603400  1
  H  487  1  0.92833200  0.39961500  0.12715600  1
  H  488  1  0.93129000  0.38656600  0.09577000  1
  H  489  1  0.83907500  0.44271800  0.14899600  1
  H  490  1  0.78591000  0.41385700  0.09065000  1
  H  501  1  0.84796100  0.93420700  0.35371000  1
  H  510  1  0.83946000  0.87485000  0.36120200  1
  H  511  1  0.72615100  0.89208900  0.38492200  1
  H  512  1  0.74722800  0.87749100  0.39571700  1
  H  513  1  0.92840600  0.87644400  0.28373500  1
  H  514  1  0.93134600  0.90782900  0.30212200  1
  H  515  1  0.83905300  0.85458700  0.30481500  1
  H  516  1  0.78587600  0.91290500  0.33430600  1
  H  527  1  0.84794300  0.64993600  0.59168200  1
  H  536  1  0.83952300  0.64238500  0.52482900  1
  H  537  1  0.72616200  0.61884300  0.51828400  1
  H  538  1  0.74727700  0.60799500  0.49290900  1
  H  539  1  0.92860300  0.71958000  0.60358900  1
  H  540  1  0.93150200  0.70124800  0.61665200  1
  H  541  1  0.83913700  0.69881200  0.56092800  1
  H  542  1  0.78587100  0.66938400  0.58975100  1
  H  553  1  0.34796200  0.58539000  0.94045000  1
  H  562  1  0.33940600  0.51853100  0.88107800  1
  H  563  1  0.22608800  0.51213200  0.89834000  1
  H  564  1  0.24713600  0.48672100  0.88370300  1
  H  565  1  0.42838900  0.59747600  0.88264300  1
  H  566  1  0.43137200  0.61049600  0.91403100  1
  H  567  1  0.33902500  0.55466500  0.86083400  1
  H  568  1  0.28588700  0.58352000  0.91918900  1
  H  579  1  0.34798800  0.06312800  0.65611900  1
  H  588  1  0.33947900  0.12246300  0.64857400  1
  H  589  1  0.22617500  0.10518300  0.62482000  1
  H  590  1  0.24725800  0.11976500  0.61401500  1
  H  591  1  0.42832600  0.12091600  0.72621800  1
  H  592  1  0.43128100  0.08952700  0.70787900  1
  H  593  1  0.33906400  0.14275500  0.70495400  1
  H  594  1  0.28589600  0.08441800  0.67548500  1
  H  605  1  0.34801400  0.34747600  0.41818200  1
  H  614  1  0.33951000  0.35499200  0.48503900  1
  H  615  1  0.22619000  0.37867100  0.49152700  1
  H  616  1  0.24727100  0.38948000  0.51691800  1
  H  617  1  0.42842300  0.27747200  0.40596500  1
  H  618  1  0.43138100  0.29586000  0.39297100  1
  H  619  1  0.33908100  0.29859100  0.44891600  1
  H  620  1  0.28591800  0.32807900  0.42009000  1
  H  631  1  0.88092400  0.75818200  0.22942800  1
  H  634  1  0.86808100  0.84591300  0.18750200  1
  H  635  1  0.84966100  0.84086700  0.21039700  1
  H  636  1  0.85347800  0.81524500  0.17803400  1
  H  638  1  0.88945600  0.85476100  0.24936500  1
  H  640  1  0.87358500  0.72516000  0.18223600  1
  H  647  1  0.88086800  0.46366600  0.24542200  1
  H  650  1  0.86818900  0.33398800  0.15773100  1
  H  651  1  0.84966600  0.36190000  0.16282200  1
  H  652  1  0.85364800  0.35516100  0.18843300  1
  H  654  1  0.88923400  0.38703600  0.14884300  1
  H  656  1  0.87368900  0.44949300  0.27845400  1
  H  663  1  0.88110400  0.77416500  0.53988700  1
  H  666  1  0.86802100  0.81581500  0.66945800  1
  H  667  1  0.84981600  0.79278600  0.64145000  1
  H  668  1  0.85328300  0.82518700  0.64822900  1
  H  670  1  0.89004400  0.75418000  0.61647100  1
  H  672  1  0.87345200  0.82134300  0.55410800  1
  H  679  1  0.38088500  0.23919300  0.78044200  1
  H  682  1  0.36816700  0.15148700  0.82240600  1
  H  683  1  0.34965900  0.15658100  0.79958100  1
  H  684  1  0.35362500  0.18218800  0.83193200  1
  H  686  1  0.38924100  0.14260900  0.76048200  1
  H  688  1  0.37371400  0.27222500  0.82764900  1
  H  695  1  0.38086500  0.53364900  0.76441500  1
  H  698  1  0.36827800  0.66333000  0.85212100  1
  H  699  1  0.34979100  0.63541900  0.84708000  1
  H  700  1  0.35366000  0.64214600  0.82145300  1
  H  702  1  0.38954000  0.61028500  0.86098000  1
  H  704  1  0.37363000  0.54781500  0.73138000  1
  H  711  1  0.38089800  0.22315700  0.46989300  1
  H  714  1  0.36812600  0.18124200  0.34023400  1
  H  715  1  0.34967800  0.20412000  0.36816900  1
  H  716  1  0.35352600  0.17175800  0.36142300  1
  H  718  1  0.38943000  0.24311800  0.39326900  1
  H  720  1  0.37357100  0.17596600  0.45571300  1
  H  727  1  0.97635500  0.53355000  0.78105000  1
  H  730  1  0.98851000  0.66313100  0.82238000  1
  H  731  1  0.00730400  0.63524800  0.79984600  1
  H  732  1  0.00295900  0.64217200  0.83222300  1
  H  734  1  0.96825600  0.60973500  0.76045600  1
  H  736  1  0.98302700  0.54804600  0.82837000  1
  H  743  1  0.97609800  0.22255000  0.76364700  1
  H  746  1  0.98879900  0.18146800  0.85205300  1
  H  747  1  0.00731500  0.20417100  0.84677500  1
  H  748  1  0.00335700  0.17174800  0.82131300  1
  H  750  1  0.96778200  0.24315400  0.86042400  1
  H  752  1  0.98315400  0.17524900  0.73087100  1
  H  759  1  0.97632500  0.23992200  0.47005900  1
  H  762  1  0.98866600  0.15172300  0.34047500  1
  H  763  1  0.00747300  0.15711500  0.36836600  1
  H  764  1  0.00302800  0.18256000  0.36144300  1
  H  766  1  0.96857900  0.14314000  0.39385000  1
  H  768  1  0.98293400  0.27276700  0.45557900  1
  H  775  1  0.47607000  0.46384200  0.22882900  1
  H  778  1  0.48880700  0.33436600  0.18777900  1
  H  779  1  0.50729300  0.36235700  0.21049800  1
  H  780  1  0.50337500  0.35539000  0.17807000  1
  H  782  1  0.46772200  0.38767800  0.24944000  1
  H  784  1  0.48317600  0.44930900  0.18153200  1
  H  791  1  0.47632300  0.77479200  0.24615300  1
  H  794  1  0.48866200  0.81608700  0.15788400  1
  H  795  1  0.50740800  0.79353500  0.16323800  1
  H  796  1  0.50310200  0.82592000  0.18868600  1
  H  798  1  0.46832600  0.75419000  0.14936300  1
  H  800  1  0.48309300  0.82210800  0.27896700  1
  H  807  1  0.47636000  0.75742800  0.53979000  1
  H  810  1  0.48850800  0.84565400  0.66938000  1
  H  811  1  0.50730400  0.84031200  0.64150000  1
  H  812  1  0.50295700  0.81485400  0.64841600  1
  H  814  1  0.46825500  0.85420000  0.61599200  1
  H  816  1  0.48300900  0.72458800  0.55427400  1
  H  823  1  0.66685700  0.59438000  0.06812500  1
  H  826  1  0.72290000  0.69505600  0.05515000  1
  H  827  1  0.73494600  0.68036500  0.07266600  1
  H  828  1  0.69950900  0.69397600  0.07788700  1
  H  830  1  0.74102500  0.61049300  0.02003600  1
  H  832  1  0.61600200  0.61109500  0.05997700  1
  H  839  1  0.66692600  0.46628600  0.40912400  1
  H  842  1  0.72289300  0.35249000  0.30861300  1
  H  843  1  0.73496300  0.38468800  0.32325000  1
  H  844  1  0.69952400  0.37629800  0.30964400  1
  H  846  1  0.74104900  0.40206300  0.39314800  1
  H  848  1  0.61612300  0.44143800  0.39247400  1
  H  855  1  0.66685000  0.93545300  0.53745400  1
  H  858  1  0.72292100  0.94854400  0.65113600  1
  H  859  1  0.73492800  0.93097200  0.61892200  1
  H  860  1  0.69948100  0.92582700  0.62735600  1
  H  862  1  0.74112700  0.98352700  0.60159100  1
  H  864  1  0.61605600  0.94371300  0.56236500  1
  H  871  1  0.16700200  0.40288000  0.94154700  1
  H  874  1  0.22282800  0.30225800  0.95471300  1
  H  875  1  0.23495400  0.31693600  0.93720700  1
  H  876  1  0.19950900  0.30332800  0.93192700  1
  H  878  1  0.24102500  0.38675000  0.98977700  1
  H  880  1  0.11617000  0.38625600  0.94967600  1
  H  887  1  0.16682600  0.53114200  0.60065500  1
  H  890  1  0.22288600  0.64486100  0.70121600  1
  H  891  1  0.23491300  0.61265000  0.68658300  1
  H  892  1  0.19946600  0.62107700  0.70017100  1
  H  894  1  0.24103500  0.59529600  0.61668100  1
  H  896  1  0.11603800  0.55604200  0.61728600  1
  H  903  1  0.16682600  0.06184000  0.47242600  1
  H  906  1  0.22295100  0.04891800  0.35882100  1
  H  907  1  0.23496300  0.06644900  0.39103600  1
  H  908  1  0.19952400  0.07163300  0.38261600  1
  H  910  1  0.24106600  0.01380800  0.40831600  1
  H  912  1  0.11598800  0.05366500  0.44751700  1
  H  919  1  0.19012800  0.53130800  0.94170800  1
  H  922  1  0.13412200  0.64509700  0.95498800  1
  H  923  1  0.12197000  0.61292000  0.93750600  1
  H  924  1  0.15737600  0.62123400  0.93213100  1
  H  926  1  0.11615700  0.59561200  0.99000100  1
  H  928  1  0.24089000  0.55602100  0.94993500  1
  H  935  1  0.19008300  0.06178000  0.60066800  1
  H  938  1  0.13415200  0.04878300  0.70137400  1
  H  939  1  0.12194200  0.06616500  0.68659200  1
  H  940  1  0.15733900  0.07165100  0.70031400  1
  H  942  1  0.11624800  0.01353500  0.61684100  1
  H  944  1  0.24091000  0.05371900  0.61721600  1
  H  951  1  0.19010600  0.40290100  0.47231300  1
  H  954  1  0.13419400  0.30224800  0.35856300  1
  H  955  1  0.12198100  0.31700800  0.39072500  1
  H  956  1  0.15738100  0.30329200  0.38248400  1
  H  958  1  0.11626800  0.38676600  0.40789700  1
  H  960  1  0.24093600  0.38636600  0.44771400  1
  H  967  1  0.69016300  0.46606600  0.06804500  1
  H  970  1  0.63410700  0.35236900  0.05497200  1
  H  971  1  0.62194400  0.38454400  0.07239700  1
  H  972  1  0.65734000  0.37625700  0.07783000  1
  H  974  1  0.61622700  0.40177600  0.01980700  1
  H  976  1  0.74096600  0.44138100  0.05993500  1
  H  983  1  0.69010700  0.93553500  0.40912300  1
  H  986  1  0.63414400  0.94858900  0.30846500  1
  H  987  1  0.62195700  0.93118700  0.32323400  1
  H  988  1  0.65735900  0.92573300  0.30951900  1
  H  990  1  0.61618600  0.98377200  0.39298800  1
  H  992  1  0.74093600  0.94361100  0.39256300  1
  H  999  1  0.68998800  0.59454600  0.53744100  1
  H  1002  1  0.63419600  0.69507500  0.65132800  1
  H  1003  1  0.62193800  0.68034600  0.61917900  1
  H  1004  1  0.65733800  0.69406500  0.62739600  1
  H  1006  1  0.61625300  0.61060500  0.60194900  1
  H  1008  1  0.74077800  0.61101300  0.56200800  1
  H  1015  1  0.93229600  0.61659600  0.98438600  1
  H  1018  1  0.90623500  0.74650100  0.03169700  1
  H  1019  1  0.88342900  0.71943200  0.02114500  1
  H  1020  1  0.91103400  0.71980400  0.00052200  1
  H  1022  1  0.88648700  0.70255700  0.05631000  1
  H  1024  1  0.97642300  0.65002800  0.95912100  1
  H  1031  1  0.93215200  0.36017500  0.38698900  1
  H  1034  1  0.90626200  0.27757000  0.25705600  1
  H  1035  1  0.88342000  0.29408200  0.28410000  1
  H  1036  1  0.91101400  0.27309500  0.28375800  1
  H  1038  1  0.88649100  0.34612900  0.30097100  1
  H  1040  1  0.97631300  0.30149600  0.35360700  1
  H  1047  1  0.93206700  0.01925000  0.64343100  1
  H  1050  1  0.90634000  0.97185700  0.72600900  1
  H  1051  1  0.88346200  0.98244800  0.70957000  1
  H  1052  1  0.91112500  0.00303900  0.73050300  1
  H  1054  1  0.88631500  0.94734100  0.65751000  1
  H  1056  1  0.97644400  0.04439000  0.70195700  1
  H  1063  1  0.43218600  0.38075100  0.02554100  1
  H  1066  1  0.40622300  0.25081600  0.97814200  1
  H  1067  1  0.38339400  0.27787100  0.98869900  1
  H  1068  1  0.41099300  0.27750300  0.00932800  1
  H  1070  1  0.38639400  0.29481700  0.95359900  1
  H  1072  1  0.47634900  0.34731400  0.05077900  1
  H  1079  1  0.43215800  0.63717700  0.62286500  1
  H  1082  1  0.40626200  0.71976100  0.75280300  1
  H  1083  1  0.38342000  0.70324800  0.72575900  1
  H  1084  1  0.41100800  0.72424200  0.72610300  1
  H  1086  1  0.38651300  0.65119800  0.70888400  1
  H  1088  1  0.47631300  0.69585900  0.65625800  1
  H  1095  1  0.43227000  0.97812000  0.36643900  1
  H  1098  1  0.40623600  0.02543600  0.28384400  1
  H  1099  1  0.38342400  0.01487800  0.30035200  1
  H  1100  1  0.41103600  0.99426200  0.27936500  1
  H  1102  1  0.38646200  0.05003700  0.35239400  1
  H  1104  1  0.47642300  0.95287100  0.30775800  1
  H  1111  1  0.92594900  0.38593800  0.02590800  1
  H  1114  1  0.95044900  0.25570700  0.97783000  1
  H  1115  1  0.97373800  0.28225700  0.98700800  1
  H  1116  1  0.94757300  0.28265700  0.00909300  1
  H  1118  1  0.96353300  0.29700700  0.94943500  1
  H  1120  1  0.89020900  0.35236500  0.05663000  1
  H  1127  1  0.92592700  0.63236700  0.61764000  1
  H  1130  1  0.95045000  0.71455300  0.74786000  1
  H  1131  1  0.97373000  0.69715900  0.72130900  1
  H  1132  1  0.94758400  0.71885200  0.72090200  1
  H  1134  1  0.96350400  0.64485600  0.70658200  1
  H  1136  1  0.89034300  0.69673000  0.65117400  1
  H  1143  1  0.92595100  0.97768200  0.37121300  1
  H  1146  1  0.95047000  0.02570300  0.28901200  1
  H  1147  1  0.97375500  0.01649500  0.30636300  1
  H  1148  1  0.94754500  0.99444800  0.28470800  1
  H  1150  1  0.96371100  0.05404900  0.35867800  1
  H  1152  1  0.89021600  0.94694700  0.30691600  1
  H  1159  1  0.42595300  0.61135500  0.98390500  1
  H  1162  1  0.45051500  0.74157900  0.03198100  1
  H  1163  1  0.47379000  0.71501900  0.02279400  1
  H  1164  1  0.44762200  0.71463200  0.00071800  1
  H  1166  1  0.46365400  0.70025500  0.06032800  1
  H  1168  1  0.39030900  0.64493200  0.95314500  1
  H  1175  1  0.42602700  0.36493100  0.39218900  1
  H  1178  1  0.45046300  0.28278400  0.26194500  1
  H  1179  1  0.47376400  0.30015900  0.28848300  1
  H  1180  1  0.44761600  0.27847100  0.28889500  1
  H  1182  1  0.46352600  0.35249000  0.30324300  1
  H  1184  1  0.39034600  0.30061300  0.35864300  1
  H  1191  1  0.42591800  0.01965400  0.63862100  1
  H  1194  1  0.45045800  0.97160200  0.72079200  1
  H  1195  1  0.47373800  0.98078600  0.70341900  1
  H  1196  1  0.44756400  0.00286100  0.72509800  1
  H  1198  1  0.46358900  0.94322800  0.65111500  1
  H  1200  1  0.39014800  0.05035700  0.70290400  1
  H  1207  1  0.85875500  0.55713900  0.13759500  1
  H  1210  1  0.72935300  0.62044800  0.19136800  1
  H  1211  1  0.76593300  0.63039100  0.19680500  1
  H  1212  1  0.75448700  0.60332900  0.19931800  1
  H  1214  1  0.80585900  0.63666400  0.15870400  1
  H  1216  1  0.83865800  0.52392800  0.14997600  1
  H  1223  1  0.85890200  0.57297100  0.44634800  1
  H  1226  1  0.72926000  0.56325400  0.38332700  1
  H  1227  1  0.76581600  0.55880300  0.37332800  1
  H  1228  1  0.75437000  0.58835100  0.40042600  1
  H  1230  1  0.80664900  0.51446700  0.36696500  1
  H  1232  1  0.83872700  0.61845800  0.47972300  1
  H  1239  1  0.85877000  0.86593000  0.43056700  1
  H  1242  1  0.72937700  0.81224900  0.44029100  1
  H  1243  1  0.76596100  0.80677300  0.44473900  1
  H  1244  1  0.75446100  0.80426900  0.41518100  1
  H  1246  1  0.80571100  0.84483000  0.48903900  1
  H  1248  1  0.83855900  0.85345700  0.38492600  1
  H  1255  1  0.35865700  0.44034300  0.87230300  1
  H  1258  1  0.22938800  0.37679000  0.81844000  1
  H  1259  1  0.26598700  0.36690600  0.81302900  1
  H  1260  1  0.25448000  0.39393600  0.81048400  1
  H  1262  1  0.30556300  0.36073800  0.85116500  1
  H  1264  1  0.33849200  0.47341600  0.85971600  1
  H  1271  1  0.35879700  0.42440200  0.56342200  1
  H  1274  1  0.22930100  0.43401300  0.62663100  1
  H  1275  1  0.26587200  0.43848700  0.63659600  1
  H  1276  1  0.25441900  0.40892700  0.60951600  1
  H  1278  1  0.30596500  0.48285100  0.64291700  1
  H  1280  1  0.33864400  0.37880900  0.53015700  1
  H  1287  1  0.35882800  0.13155800  0.57921800  1
  H  1290  1  0.22923000  0.18490100  0.56946900  1
  H  1291  1  0.26579200  0.19042900  0.56501300  1
  H  1292  1  0.25433500  0.19289900  0.59456700  1
  H  1294  1  0.30661700  0.15243900  0.52069600  1
  H  1296  1  0.33865400  0.14368200  0.62468300  1
  H  1303  1  0.99827500  0.42440600  0.87211000  1
  H  1306  1  0.12754900  0.43485400  0.81876700  1
  H  1307  1  0.09091600  0.43905900  0.81320300  1
  H  1308  1  0.10267600  0.40959300  0.81076800  1
  H  1310  1  0.05076600  0.48339700  0.85151000  1
  H  1312  1  0.01871800  0.37878100  0.85941300  1
  H  1319  1  0.99839800  0.13137900  0.56347300  1
  H  1322  1  0.12758200  0.18485900  0.62737000  1
  H  1323  1  0.09094200  0.19036000  0.63711600  1
  H  1324  1  0.10269100  0.19285200  0.61011600  1
  H  1326  1  0.05094400  0.15199400  0.64307900  1
  H  1328  1  0.01879100  0.14416000  0.53061600  1
  H  1335  1  0.99839600  0.44006600  0.57907000  1
  H  1338  1  0.12764200  0.37628400  0.56868600  1
  H  1339  1  0.09100600  0.36652200  0.56444400  1
  H  1340  1  0.10274500  0.39354500  0.59392600  1
  H  1342  1  0.05064500  0.36049400  0.52008300  1
  H  1344  1  0.01878700  0.47299200  0.62465800  1
  H  1351  1  0.49826300  0.57289300  0.13792000  1
  H  1354  1  0.62779600  0.56232100  0.19078600  1
  H  1355  1  0.59118700  0.55813600  0.19643500  1
  H  1356  1  0.60291900  0.58758800  0.19882500  1
  H  1358  1  0.54986400  0.51381300  0.15824100  1
  H  1360  1  0.51873500  0.61836100  0.15026400  1
  H  1367  1  0.49843400  0.86593400  0.44643800  1
  H  1370  1  0.62757300  0.81244800  0.38245500  1
  H  1371  1  0.59092200  0.80694400  0.37273700  1
  H  1372  1  0.60271100  0.80446400  0.39973600  1
  H  1374  1  0.55089800  0.84529100  0.36678500  1
  H  1376  1  0.51888700  0.85313000  0.47926900  1
  H  1383  1  0.49832800  0.55721200  0.43073100  1
  H  1386  1  0.62757100  0.62102200  0.44112400  1
  H  1387  1  0.59093500  0.63078700  0.44535800  1
  H  1388  1  0.60268000  0.60376700  0.41587700  1
  H  1390  1  0.55090100  0.63679200  0.48971100  1
  H  1392  1  0.51872900  0.52431400  0.38507900  1
  C  1  1  0.83781400  0.67641600  0.10587800  1
  C  2  1  0.85630500  0.66957000  0.08471500  1
  C  3  1  0.88119300  0.68399800  0.08685000  1
  C  4  1  0.88898500  0.70555800  0.11086700  1
  C  5  1  0.87087200  0.71216500  0.13247000  1
  C  6  1  0.84559700  0.69770600  0.12983100  1
  C  9  1  0.81330600  0.66067900  0.10279000  1
  C  10  1  0.79495500  0.65216500  0.08124500  1
  C  11  1  0.77604600  0.63112400  0.07349800  1
  C  12  1  0.77564900  0.61768500  0.08746400  1
  C  13  1  0.79220600  0.62753100  0.11054900  1
  C  14  1  0.81088800  0.64874200  0.11779000  1
  C  27  1  0.83779700  0.42187200  0.32715400  1
  C  28  1  0.85627400  0.40754500  0.33400000  1
  C  29  1  0.88115700  0.39523700  0.31957000  1
  C  30  1  0.88896600  0.39769500  0.29801500  1
  C  31  1  0.87087300  0.41271100  0.29141700  1
  C  32  1  0.84561000  0.42455400  0.30588100  1
  C  35  1  0.81331200  0.43456500  0.34291200  1
  C  36  1  0.79493400  0.42152800  0.35140000  1
  C  37  1  0.77606300  0.43485300  0.37246300  1
  C  38  1  0.77563200  0.46225900  0.38585700  1
  C  39  1  0.79216100  0.47548900  0.37597400  1
  C  40  1  0.81085700  0.46148900  0.35478400  1
  C  53  1  0.83769500  0.89768200  0.58173800  1
  C  54  1  0.85615100  0.91886700  0.59608900  1
  C  55  1  0.88102500  0.91675200  0.60841200  1
  C  56  1  0.88884100  0.89273600  0.60594800  1
  C  57  1  0.87076200  0.87111700  0.59092000  1
  C  58  1  0.84550600  0.87372900  0.57906100  1
  C  61  1  0.81324100  0.90073600  0.56901000  1
  C  62  1  0.79480700  0.92222600  0.58205000  1
  C  63  1  0.77592200  0.92995600  0.56871800  1
  C  64  1  0.77567300  0.91607400  0.54131500  1
  C  65  1  0.79226400  0.89301300  0.52808200  1
  C  66  1  0.81091800  0.88577600  0.54206600  1
  C  79  1  0.33785600  0.32094200  0.90397800  1
  C  80  1  0.35632700  0.32777500  0.92515000  1
  C  81  1  0.38120900  0.31334100  0.92302000  1
  C  82  1  0.38900100  0.29178000  0.89900400  1
  C  83  1  0.37089700  0.28518300  0.87740000  1
  C  84  1  0.34564500  0.29966200  0.88002000  1
  C  87  1  0.31334800  0.33668800  0.90707400  1
  C  88  1  0.29495400  0.34512000  0.92858100  1
  C  89  1  0.27612800  0.36621200  0.93635900  1
  C  90  1  0.27573100  0.37970700  0.92245200  1
  C  91  1  0.29230000  0.36988800  0.89937700  1
  C  92  1  0.31099700  0.34868700  0.89212600  1
  C  105  1  0.33780600  0.57544000  0.68266000  1
  C  106  1  0.35627700  0.58978200  0.67582800  1
  C  107  1  0.38115900  0.60208700  0.69026000  1
  C  108  1  0.38896900  0.59961600  0.71180800  1
  C  109  1  0.37087600  0.58460100  0.71840500  1
  C  110  1  0.34560400  0.57277100  0.70394400  1
  C  113  1  0.31330200  0.56278200  0.66692100  1
  C  114  1  0.29494300  0.57579900  0.65839600  1
  C  115  1  0.27603700  0.56249500  0.63735800  1
  C  116  1  0.27564500  0.53508900  0.62393100  1
  C  117  1  0.29220900  0.52186300  0.63378600  1
  C  118  1  0.31089100  0.53584400  0.65499400  1
  C  131  1  0.33779100  0.09962500  0.42810800  1
  C  132  1  0.35628000  0.07845700  0.41379400  1
  C  133  1  0.38116400  0.08058500  0.40149100  1
  C  134  1  0.38896200  0.10459800  0.40394000  1
  C  135  1  0.37085900  0.12620500  0.41894300  1
  C  136  1  0.34558900  0.12357700  0.43077500  1
  C  139  1  0.31330500  0.09656100  0.44079900  1
  C  140  1  0.29493300  0.07503200  0.42776600  1
  C  141  1  0.27604700  0.06730400  0.44109000  1
  C  142  1  0.27559900  0.08133300  0.46849700  1
  C  143  1  0.29212900  0.10444500  0.48172300  1
  C  144  1  0.31083700  0.11162600  0.46772300  1
  C  157  1  0.01873900  0.57599800  0.90469600  1
  C  158  1  0.00016200  0.59028700  0.92580600  1
  C  159  1  0.97519500  0.60242600  0.92352400  1
  C  160  1  0.96754200  0.60001200  0.89951700  1
  C  161  1  0.98573500  0.58503400  0.87797800  1
  C  162  1  0.01101000  0.57327700  0.88070700  1
  C  165  1  0.04315800  0.56325200  0.90777300  1
  C  166  1  0.06162800  0.57624600  0.92923800  1
  C  167  1  0.08077700  0.56288600  0.93673000  1
  C  168  1  0.08113600  0.53548300  0.92271400  1
  C  169  1  0.06441800  0.52230000  0.89972400  1
  C  170  1  0.04558500  0.53632200  0.89267400  1
  C  183  1  0.01864800  0.09884400  0.68244900  1
  C  184  1  0.00004400  0.07775800  0.67565200  1
  C  185  1  0.97507200  0.08008100  0.69008300  1
  C  186  1  0.96746300  0.10410100  0.71167700  1
  C  187  1  0.98569500  0.12561600  0.71822500  1
  C  188  1  0.01096500  0.12284800  0.70371600  1
  C  191  1  0.04310000  0.09571100  0.66663300  1
  C  192  1  0.06151500  0.07421400  0.65815800  1
  C  193  1  0.08060400  0.06667600  0.63726900  1
  C  194  1  0.08111300  0.08073500  0.62392800  1
  C  195  1  0.06442300  0.10374300  0.63373700  1
  C  196  1  0.04555700  0.11080000  0.65479100  1
  C  209  1  0.01864800  0.32114900  0.42760000  1
  C  210  1  0.00003700  0.32796900  0.41333300  1
  C  211  1  0.97506100  0.31355000  0.40122300  1
  C  212  1  0.96743500  0.29195600  0.40364300  1
  C  213  1  0.98565500  0.28539500  0.41860500  1
  C  214  1  0.01094500  0.29987800  0.43032600  1
  C  217  1  0.04311500  0.33693700  0.44027000  1
  C  218  1  0.06150000  0.34547000  0.42727900  1
  C  219  1  0.08066900  0.36630400  0.44059600  1
  C  220  1  0.08117300  0.37961400  0.46800000  1
  C  221  1  0.06449600  0.36979000  0.48119300  1
  C  222  1  0.04563900  0.34872900  0.46719300  1
  C  235  1  0.51873300  0.42130800  0.10513900  1
  C  236  1  0.50012300  0.40703400  0.08405400  1
  C  237  1  0.47514800  0.39492300  0.08636400  1
  C  238  1  0.46752100  0.39735100  0.11038300  1
  C  239  1  0.48573900  0.41232400  0.13190600  1
  C  240  1  0.51102200  0.42405000  0.12914100  1
  C  243  1  0.54316500  0.43402800  0.10203500  1
  C  244  1  0.56155900  0.42104300  0.08051700  1
  C  245  1  0.58068600  0.43440200  0.07301600  1
  C  246  1  0.58123600  0.46180600  0.08717700  1
  C  247  1  0.56459400  0.47497700  0.11022700  1
  C  248  1  0.54573100  0.46093600  0.11723000  1
  C  261  1  0.51874400  0.89845400  0.32735700  1
  C  262  1  0.50015800  0.91955600  0.33417600  1
  C  263  1  0.47519100  0.91726600  0.31975300  1
  C  264  1  0.46754900  0.89325500  0.29815800  1
  C  265  1  0.48575400  0.87172300  0.29159900  1
  C  266  1  0.51102800  0.87446200  0.30609100  1
  C  269  1  0.54316700  0.90154200  0.34318200  1
  C  270  1  0.56163000  0.92301100  0.35164100  1
  C  271  1  0.58078400  0.93051700  0.37249200  1
  C  272  1  0.58115200  0.91651600  0.38589300  1
  C  273  1  0.56444500  0.89351900  0.37609500  1
  C  274  1  0.54560700  0.88645600  0.35502400  1
  C  287  1  0.51863600  0.67617900  0.58223200  1
  C  288  1  0.50003900  0.66937700  0.59652100  1
  C  289  1  0.47507000  0.68380500  0.60864000  1
  C  290  1  0.46745100  0.70540400  0.60622200  1
  C  291  1  0.48567600  0.71195400  0.59125400  1
  C  292  1  0.51093900  0.69744500  0.57949600  1
  C  295  1  0.54309100  0.66037000  0.56955100  1
  C  296  1  0.56151100  0.65190200  0.58257600  1
  C  297  1  0.58058900  0.63100600  0.56922400  1
  C  298  1  0.58108700  0.61765300  0.54182200  1
  C  299  1  0.56439700  0.62746100  0.52862300  1
  C  300  1  0.54553800  0.64852200  0.54261800  1
  C  313  1  0.01757700  0.32449500  0.90002700  1
  C  314  1  0.00247600  0.33150200  0.92298200  1
  C  315  1  0.97655500  0.31890000  0.92273700  1
  C  316  1  0.96481400  0.29921400  0.89900600  1
  C  317  1  0.98118700  0.29107700  0.87607600  1
  C  318  1  0.00681000  0.30415300  0.87680000  1
  C  321  1  0.04138500  0.33905300  0.89941000  1
  C  322  1  0.06861800  0.33862400  0.90980900  1
  C  323  1  0.09213700  0.35262400  0.90793300  1
  C  324  1  0.08875900  0.36723600  0.89530200  1
  C  325  1  0.06105800  0.36813000  0.88541400  1
  C  326  1  0.03784300  0.35398500  0.88747800  1
  C  339  1  0.01756600  0.56789800  0.67898400  1
  C  340  1  0.00247400  0.58389100  0.67203200  1
  C  341  1  0.97657600  0.59626700  0.68468100  1
  C  342  1  0.96489600  0.59224200  0.70439900  1
  C  343  1  0.98130000  0.57744200  0.71250600  1
  C  344  1  0.00686700  0.56503400  0.69935800  1
  C  347  1  0.04137900  0.55274200  0.66441000  1
  C  348  1  0.06858600  0.56359700  0.66482100  1
  C  349  1  0.09212400  0.54774200  0.65083500  1
  C  350  1  0.08878700  0.52049800  0.63623800  1
  C  351  1  0.06111200  0.50968100  0.63536500  1
  C  352  1  0.03787800  0.52587000  0.64950000  1
  C  365  1  0.01758500  0.10350200  0.43569500  1
  C  366  1  0.00250900  0.08055300  0.41968100  1
  C  367  1  0.97662600  0.08082300  0.40728500  1
  C  368  1  0.96493200  0.10456700  0.41133000  1
  C  369  1  0.98130100  0.12748400  0.42617600  1
  C  370  1  0.00687300  0.12674300  0.43857600  1
  C  373  1  0.04138900  0.10408500  0.45086100  1
  C  374  1  0.06860300  0.09364400  0.44001600  1
  C  375  1  0.09213200  0.09551900  0.45588000  1
  C  376  1  0.08878300  0.10816000  0.48312300  1
  C  377  1  0.06110200  0.11809600  0.49392600  1
  C  378  1  0.03787600  0.11604600  0.47773200  1
  C  391  1  0.51757900  0.67275400  0.10976400  1
  C  392  1  0.50247400  0.66576800  0.08681700  1
  C  393  1  0.47656800  0.67839700  0.08708000  1
  C  394  1  0.46488100  0.69812100  0.11081700  1
  C  395  1  0.48127000  0.70623800  0.13373200  1
  C  396  1  0.50686000  0.69312100  0.13300000  1
  C  399  1  0.54139000  0.65818700  0.11036300  1
  C  400  1  0.56861200  0.65861500  0.09994700  1
  C  401  1  0.59213500  0.64461100  0.10180900  1
  C  402  1  0.58877300  0.62998200  0.11442100  1
  C  403  1  0.56108200  0.62909100  0.12432700  1
  C  404  1  0.53785900  0.64324600  0.12228800  1
  C  417  1  0.51757300  0.42940600  0.33076000  1
  C  418  1  0.50249200  0.41344300  0.33775700  1
  C  419  1  0.47657000  0.40108300  0.32515800  1
  C  420  1  0.46481000  0.40514000  0.30548700  1
  C  421  1  0.48116900  0.41994600  0.29735600  1
  C  422  1  0.50679100  0.43230000  0.31042700  1
  C  425  1  0.54138800  0.44458000  0.34531100  1
  C  426  1  0.56861900  0.43374700  0.34487800  1
  C  427  1  0.59214100  0.44962100  0.35887100  1
  C  428  1  0.58877300  0.47686300  0.37348200  1
  C  429  1  0.56107200  0.48765000  0.37438300  1
  C  430  1  0.53785000  0.47144500  0.36024300  1
  C  443  1  0.51761400  0.89383800  0.57417400  1
  C  444  1  0.50252000  0.91678400  0.59015800  1
  C  445  1  0.47661600  0.91651500  0.60252500  1
  C  446  1  0.46493100  0.89277300  0.59850300  1
  C  447  1  0.48133500  0.86986600  0.58371100  1
  C  448  1  0.50691000  0.87060200  0.57131200  1
  C  451  1  0.54143100  0.89324900  0.55901800  1
  C  452  1  0.56863600  0.90370400  0.56987500  1
  C  453  1  0.59217200  0.90183400  0.55402000  1
  C  454  1  0.58884000  0.88918200  0.52677500  1
  C  455  1  0.56116900  0.87922000  0.51595800  1
  C  456  1  0.53793400  0.88127600  0.53214700  1
  C  469  1  0.83979300  0.42899700  0.10913900  1
  C  470  1  0.85517000  0.41347000  0.08623900  1
  C  471  1  0.88112500  0.40116500  0.08649600  1
  C  472  1  0.89256600  0.40472400  0.11012900  1
  C  473  1  0.87604300  0.41927600  0.13301300  1
  C  474  1  0.85039600  0.43161500  0.13230600  1
  C  477  1  0.81597100  0.44418500  0.10982500  1
  C  478  1  0.78872100  0.43336400  0.09946700  1
  C  479  1  0.76516200  0.44925900  0.10148100  1
  C  480  1  0.76852400  0.47650600  0.11420900  1
  C  481  1  0.79624200  0.48727900  0.12405500  1
  C  482  1  0.81950100  0.47105300  0.12184500  1
  C  495  1  0.83976700  0.89443700  0.33097600  1
  C  496  1  0.85516200  0.91733800  0.33839500  1
  C  497  1  0.88114100  0.91709000  0.32586900  1
  C  498  1  0.89258500  0.89346600  0.30577900  1
  C  499  1  0.87604900  0.87058100  0.29740800  1
  C  500  1  0.85038400  0.87127600  0.31042800  1
  C  503  1  0.81593600  0.89373000  0.34545800  1
  C  504  1  0.78868400  0.90407800  0.34498700  1
  C  505  1  0.76512800  0.90207200  0.35887500  1
  C  506  1  0.76849200  0.88934600  0.37339800  1
  C  507  1  0.79620900  0.87950200  0.37432300  1
  C  508  1  0.81946800  0.88171300  0.36030900  1
  C  521  1  0.83979200  0.67266300  0.57463200  1
  C  522  1  0.85518400  0.66522400  0.59009900  1
  C  523  1  0.88117600  0.67772200  0.60236800  1
  C  524  1  0.89267300  0.69777800  0.59880500  1
  C  525  1  0.87615500  0.70616900  0.58429600  1
  C  526  1  0.85045800  0.69318900  0.57200300  1
  C  529  1  0.81596100  0.65819100  0.55943800  1
  C  530  1  0.78869200  0.65869000  0.57024500  1
  C  531  1  0.76514300  0.64479600  0.55434400  1
  C  532  1  0.76852700  0.63025400  0.52709800  1
  C  533  1  0.79626700  0.62928400  0.51634400  1
  C  534  1  0.81951800  0.64330600  0.53257500  1
  C  547  1  0.33975600  0.56834500  0.90068000  1
  C  548  1  0.35514300  0.58385100  0.92358300  1
  C  549  1  0.38111600  0.59613200  0.92333000  1
  C  550  1  0.39255400  0.59259700  0.89970200  1
  C  551  1  0.37600700  0.57808700  0.87682300  1
  C  552  1  0.35035800  0.56574700  0.87752200  1
  C  555  1  0.31591800  0.55317300  0.89998900  1
  C  556  1  0.28867800  0.56400900  0.91035800  1
  C  557  1  0.26510800  0.54813000  0.90835300  1
  C  558  1  0.26844200  0.52088000  0.89561200  1
  C  559  1  0.29614700  0.51008700  0.88573800  1
  C  560  1  0.31942100  0.52630000  0.88795100  1
  C  573  1  0.33978200  0.10290000  0.67882300  1
  C  574  1  0.35516200  0.07999900  0.67144700  1
  C  575  1  0.38112100  0.08025700  0.68400500  1
  C  576  1  0.39256000  0.10389100  0.70408100  1
  C  577  1  0.37603700  0.12677500  0.71241200  1
  C  578  1  0.35038600  0.12606600  0.69936800  1
  C  581  1  0.31595900  0.10358000  0.66431800  1
  C  582  1  0.28870800  0.09322800  0.66478800  1
  C  583  1  0.26514900  0.09523100  0.65089900  1
  C  584  1  0.26851300  0.10794900  0.63637000  1
  C  585  1  0.29623200  0.11778700  0.63543600  1
  C  586  1  0.31949200  0.11558800  0.64945800  1
  C  599  1  0.33981100  0.32475200  0.43522600  1
  C  600  1  0.35521000  0.33216000  0.41973600  1
  C  601  1  0.38117900  0.31962200  0.40745300  1
  C  602  1  0.39261400  0.29952800  0.41098600  1
  C  603  1  0.37607200  0.29116600  0.42550600  1
  C  604  1  0.35041500  0.30419900  0.43783700  1
  C  607  1  0.31598300  0.33924000  0.45041600  1
  C  608  1  0.28872800  0.33876500  0.43959800  1
  C  609  1  0.26517100  0.35265000  0.45549200  1
  C  610  1  0.26853700  0.36717400  0.48274100  1
  C  611  1  0.29626000  0.36811100  0.49350800  1
  C  612  1  0.31951800  0.35409700  0.47728200  1
  C  625  1  0.88927400  0.81554500  0.23512300  1
  C  627  1  0.88352800  0.77124800  0.22340500  1
  C  628  1  0.88273400  0.76382700  0.19710800  1
  C  630  1  0.88904800  0.80807200  0.20872400  1
  C  633  1  0.86410200  0.83199400  0.19376000  1
  C  637  1  0.88862700  0.84115400  0.25419400  1
  C  639  1  0.87726100  0.73886400  0.17788000  1
  C  641  1  0.88922200  0.41201100  0.18805300  1
  C  643  1  0.88350500  0.44458200  0.23235600  1
  C  644  1  0.88278700  0.42570300  0.23977600  1
  C  646  1  0.88908300  0.39308400  0.19552500  1
  C  649  1  0.86418900  0.35415800  0.17166100  1
  C  653  1  0.88846900  0.40547900  0.16244700  1
  C  655  1  0.87733300  0.43143200  0.26474000  1
  C  657  1  0.88950800  0.76843000  0.59152600  1
  C  659  1  0.88367600  0.78017700  0.55897600  1
  C  660  1  0.88274600  0.80646300  0.57787200  1
  C  662  1  0.88913600  0.79482000  0.61047300  1
  C  665  1  0.86408300  0.80953900  0.64927100  1
  C  669  1  0.88899800  0.74933500  0.59803900  1
  C  671  1  0.87718400  0.82569300  0.57215800  1
  C  673  1  0.38922200  0.18181800  0.77471900  1
  C  675  1  0.38351500  0.22612500  0.78645700  1
  C  676  1  0.38279200  0.23354300  0.81275500  1
  C  678  1  0.38907700  0.18928800  0.80111900  1
  C  681  1  0.36417300  0.16541700  0.81616500  1
  C  685  1  0.38846800  0.15621300  0.75564500  1
  C  687  1  0.37734300  0.25850700  0.83199400  1
  C  689  1  0.38930000  0.58530800  0.82176600  1
  C  691  1  0.38351500  0.55273400  0.77747400  1
  C  692  1  0.38278100  0.57160800  0.77004900  1
  C  694  1  0.38914200  0.60423100  0.81428800  1
  C  697  1  0.36426400  0.64315600  0.83820400  1
  C  701  1  0.38860300  0.59184900  0.84737700  1
  C  703  1  0.37730100  0.56587400  0.74508600  1
  C  705  1  0.38926700  0.22886900  0.41823800  1
  C  707  1  0.38351300  0.21713900  0.45080800  1
  C  708  1  0.38273800  0.19084400  0.43192800  1
  C  710  1  0.38906000  0.20247200  0.39930800  1
  C  713  1  0.36413600  0.18749400  0.36040900  1
  C  717  1  0.38861600  0.24794500  0.41170600  1
  C  719  1  0.37726300  0.17161200  0.43765700  1
  C  721  1  0.96801700  0.58493500  0.77487700  1
  C  723  1  0.97364000  0.55259500  0.78692700  1
  C  724  1  0.97408800  0.57160100  0.81318700  1
  C  726  1  0.96789000  0.60399000  0.80123300  1
  C  729  1  0.99259200  0.64300800  0.81629700  1
  C  733  1  0.96893100  0.59131200  0.75570300  1
  C  735  1  0.97939300  0.56606700  0.83257300  1
  C  737  1  0.96782600  0.22872900  0.82121500  1
  C  739  1  0.97347300  0.21667400  0.77682600  1
  C  740  1  0.97411400  0.19042200  0.76959200  1
  C  742  1  0.96791100  0.20237900  0.81393300  1
  C  745  1  0.99280100  0.18757900  0.83802300  1
  C  749  1  0.96856300  0.24792300  0.84677100  1
  C  751  1  0.97946700  0.17104200  0.74467900  1
  C  753  1  0.96811100  0.18235700  0.41866000  1
  C  755  1  0.97364100  0.22675300  0.45101100  1
  C  756  1  0.97408600  0.23401200  0.43200900  1
  C  758  1  0.96797800  0.18966300  0.39960900  1
  C  761  1  0.99272100  0.16577300  0.36060200  1
  C  765  1  0.96908400  0.15680700  0.41228200  1
  C  767  1  0.97934300  0.25894200  0.43755300  1
  C  769  1  0.46778900  0.41245800  0.23501300  1
  C  771  1  0.47344800  0.44478900  0.22295400  1
  C  772  1  0.47410900  0.42576700  0.19670500  1
  C  774  1  0.46789500  0.39338600  0.20866200  1
  C  777  1  0.49280100  0.35450800  0.19389200  1
  C  781  1  0.46851700  0.40610000  0.25420800  1
  C  783  1  0.47947800  0.43129500  0.17732400  1
  C  785  1  0.46804200  0.76861800  0.18859100  1
  C  787  1  0.47364300  0.78067000  0.23298200  1
  C  788  1  0.47414100  0.80692700  0.24023100  1
  C  790  1  0.46797100  0.79497300  0.19588700  1
  C  793  1  0.49272100  0.81000400  0.17192600  1
  C  797  1  0.46890800  0.74944100  0.16303600  1
  C  799  1  0.47944700  0.82631200  0.26515300  1
  C  801  1  0.46802500  0.81497900  0.59118500  1
  C  803  1  0.47364800  0.77059200  0.55883700  1
  C  804  1  0.47409300  0.76333100  0.57783600  1
  C  806  1  0.46789500  0.80767000  0.61023400  1
  C  809  1  0.49259300  0.83161700  0.64925400  1
  C  813  1  0.46893900  0.84053300  0.59756900  1
  C  815  1  0.47938500  0.73840700  0.57229600  1
  C  817  1  0.71413400  0.62388000  0.05071400  1
  C  819  1  0.67440000  0.60797600  0.06407200  1
  C  820  1  0.65612900  0.62704700  0.06457700  1
  C  822  1  0.69598000  0.64321800  0.05141900  1
  C  825  1  0.71612800  0.68336800  0.06344100  1
  C  829  1  0.74080800  0.61815700  0.03899100  1
  C  831  1  0.62722500  0.62731900  0.06999900  1
  C  833  1  0.71416000  0.41932100  0.37972100  1
  C  835  1  0.67445400  0.44861400  0.39556200  1
  C  836  1  0.65617100  0.43003500  0.37651600  1
  C  838  1  0.69599500  0.40067300  0.36040400  1
  C  841  1  0.71613400  0.37247800  0.32027000  1
  C  845  1  0.74083400  0.41333300  0.38546100  1
  C  847  1  0.62727700  0.43521800  0.37620800  1
  C  849  1  0.71415500  0.95289800  0.58434900  1
  C  851  1  0.67440200  0.93953100  0.55510700  1
  C  852  1  0.65613200  0.93908100  0.57370200  1
  C  854  1  0.69600400  0.95224600  0.60301300  1
  C  857  1  0.71613000  0.94024000  0.63116200  1
  C  861  1  0.74086300  0.96457200  0.59031300  1
  C  863  1  0.62721400  0.93367800  0.56858900  1
  C  865  1  0.21417200  0.37340300  0.95907500  1
  C  867  1  0.17450600  0.38930000  0.94563900  1
  C  868  1  0.15619200  0.37025600  0.94514200  1
  C  870  1  0.19598000  0.35408600  0.95837300  1
  C  873  1  0.21609900  0.31393800  0.94640200  1
  C  877  1  0.24083400  0.37911500  0.97082600  1
  C  879  1  0.12730500  0.36997500  0.93964700  1
  C  881  1  0.21412700  0.57804200  0.63009800  1
  C  883  1  0.17437800  0.54879600  0.61423000  1
  C  884  1  0.15610500  0.56739600  0.63327200  1
  C  886  1  0.19597300  0.59670800  0.64941200  1
  C  889  1  0.21610300  0.62488100  0.68955400  1
  C  893  1  0.24081000  0.58402100  0.62436300  1
  C  895  1  0.12718300  0.56228500  0.63355400  1
  C  897  1  0.21414800  0.04447300  0.42555700  1
  C  899  1  0.17438400  0.05779600  0.45478400  1
  C  900  1  0.15612700  0.05829300  0.43620500  1
  C  902  1  0.19600800  0.04516800  0.40690900  1
  C  905  1  0.21616000  0.05720500  0.37879500  1
  C  909  1  0.24083400  0.03276800  0.41958000  1
  C  911  1  0.12721800  0.06370200  0.44133700  1
  C  913  1  0.14288600  0.57826500  0.95921300  1
  C  915  1  0.18260000  0.54896800  0.94578300  1
  C  916  1  0.20090700  0.56754700  0.94533800  1
  C  918  1  0.16107000  0.59690400  0.95854300  1
  C  921  1  0.14084400  0.62510000  0.94665000  1
  C  925  1  0.11626100  0.58431700  0.97104600  1
  C  927  1  0.22984200  0.56242100  0.93999500  1
  C  929  1  0.14288600  0.04437700  0.63023900  1
  C  931  1  0.18257200  0.05775500  0.61429200  1
  C  932  1  0.20089200  0.05828300  0.63334800  1
  C  934  1  0.16108500  0.04512600  0.64957600  1
  C  937  1  0.14084400  0.05708500  0.68967600  1
  C  941  1  0.11629300  0.03248700  0.62446700  1
  C  943  1  0.22981200  0.06364300  0.63353100  1
  C  945  1  0.14292100  0.37336100  0.42532400  1
  C  947  1  0.18260000  0.38928600  0.45465500  1
  C  948  1  0.20092000  0.37023900  0.43612200  1
  C  950  1  0.16112200  0.35403100  0.40673000  1
  C  953  1  0.14088600  0.31393600  0.37856600  1
  C  957  1  0.11632400  0.37913300  0.41921600  1
  C  959  1  0.22983800  0.37004900  0.44130200  1
  C  961  1  0.64291000  0.41913000  0.05062500  1
  C  963  1  0.68263100  0.44841700  0.06400800  1
  C  964  1  0.70092500  0.42986400  0.06451400  1
  C  966  1  0.66108500  0.40051400  0.05134800  1
  C  969  1  0.64082700  0.37236300  0.06328700  1
  C  973  1  0.61630200  0.41305800  0.03876400  1
  C  975  1  0.72984900  0.43501500  0.06987100  1
  C  977  1  0.64290100  0.95297800  0.37959300  1
  C  979  1  0.68259200  0.93957800  0.39551200  1
  C  980  1  0.70090300  0.93906400  0.37645900  1
  C  982  1  0.66109200  0.95224200  0.36025800  1
  C  985  1  0.64084900  0.94028500  0.32015800  1
  C  989  1  0.61628100  0.96481900  0.38535100  1
  C  991  1  0.72982100  0.93368700  0.37625800  1
  C  993  1  0.64286900  0.62401300  0.58450200  1
  C  995  1  0.68250300  0.60813300  0.55512000  1
  C  996  1  0.70084700  0.62715900  0.57365300  1
  C  998  1  0.66108900  0.64332600  0.60309400  1
  C  1001  1  0.64086200  0.68340700  0.63131500  1
  C  1005  1  0.61628700  0.61822800  0.59062200  1
  C  1007  1  0.72975200  0.62737300  0.56843200  1
  C  1009  1  0.91321900  0.67509400  0.02892800  1
  C  1011  1  0.93086900  0.63617200  0.99319200  1
  C  1012  1  0.94468100  0.65027000  0.98316900  1
  C  1014  1  0.92641900  0.68928400  0.01869500  1
  C  1017  1  0.90550600  0.72557700  0.02038400  1
  C  1021  1  0.89745500  0.68646700  0.05138400  1
  C  1023  1  0.96166500  0.63920300  0.96137600  1
  C  1025  1  0.91316300  0.34621100  0.32847100  1
  C  1027  1  0.93075100  0.34940200  0.36741200  1
  C  1028  1  0.94457500  0.32528600  0.35333000  1
  C  1030  1  0.92637500  0.32179100  0.31429500  1
  C  1033  1  0.90550400  0.28718300  0.27798000  1
  C  1037  1  0.89742400  0.35729400  0.31708300  1
  C  1039  1  0.96154100  0.31456900  0.36441700  1
  C  1041  1  0.91306500  0.97469500  0.65739200  1
  C  1043  1  0.93068000  0.01043400  0.65419500  1
  C  1044  1  0.94457300  0.02042800  0.67827800  1
  C  1046  1  0.92634700  0.98489700  0.68177900  1
  C  1049  1  0.90556400  0.98318700  0.71641700  1
  C  1053  1  0.89728900  0.95224400  0.64633000  1
  C  1055  1  0.96159400  0.04219600  0.68896600  1
  C  1057  1  0.41315400  0.32225300  0.98097200  1
  C  1059  1  0.43077200  0.36117600  0.01672800  1
  C  1060  1  0.44459800  0.34707300  0.02674000  1
  C  1062  1  0.42636200  0.30805800  0.99119300  1
  C  1065  1  0.40547700  0.27173900  0.98946700  1
  C  1069  1  0.39740300  0.31088100  0.95850600  1
  C  1071  1  0.46158600  0.35814000  0.04853100  1
  C  1073  1  0.41317100  0.65112800  0.68138100  1
  C  1075  1  0.43075500  0.64794800  0.64244400  1
  C  1076  1  0.44457400  0.67206600  0.65653000  1
  C  1078  1  0.42637700  0.67555000  0.69556200  1
  C  1081  1  0.40550300  0.71015300  0.73188100  1
  C  1085  1  0.39743600  0.64003800  0.69276500  1
  C  1087  1  0.46154500  0.68278300  0.64544400  1
  C  1089  1  0.41319500  0.02265800  0.35248100  1
  C  1091  1  0.43084600  0.98692500  0.35566800  1
  C  1092  1  0.44466700  0.97690600  0.33155100  1
  C  1094  1  0.42640300  0.01243100  0.32806100  1
  C  1097  1  0.40550300  0.01412200  0.29345400  1
  C  1101  1  0.39742500  0.04511300  0.36356200  1
  C  1103  1  0.46165600  0.95511600  0.32082900  1
  C  1105  1  0.94334500  0.32716200  0.98058400  1
  C  1107  1  0.92686700  0.36633600  0.01697600  1
  C  1108  1  0.91370000  0.35250300  0.02759800  1
  C  1110  1  0.93067800  0.31322500  0.99137900  1
  C  1113  1  0.95179400  0.27661600  0.98894600  1
  C  1117  1  0.95777400  0.31538800  0.95725700  1
  C  1119  1  0.89853500  0.36371000  0.05056000  1
  C  1121  1  0.94330300  0.64583500  0.67642200  1
  C  1123  1  0.92684000  0.64304200  0.63724100  1
  C  1124  1  0.91370000  0.66751100  0.65106500  1
  C  1126  1  0.93065400  0.67057500  0.69035200  1
  C  1129  1  0.95179200  0.70475000  0.72695000  1
  C  1133  1  0.95774000  0.63429000  0.68820200  1
  C  1135  1  0.89858500  0.67927800  0.63984400  1
  C  1137  1  0.94338600  0.02297800  0.35773400  1
  C  1139  1  0.92687200  0.98661000  0.36053900  1
  C  1140  1  0.91369600  0.97598900  0.33608700  1
  C  1142  1  0.93070400  0.01218900  0.33300800  1
  C  1145  1  0.95180400  0.01458900  0.29880800  1
  C  1149  1  0.95786500  0.04628000  0.36926400  1
  C  1151  1  0.89853100  0.95302600  0.32433600  1
  C  1153  1  0.44337000  0.67012500  0.02922700  1
  C  1155  1  0.42687700  0.63095700  0.99283900  1
  C  1156  1  0.41372300  0.64479500  0.98221400  1
  C  1158  1  0.43071400  0.68406800  0.01843400  1
  C  1161  1  0.45184800  0.72066900  0.02086300  1
  C  1165  1  0.45782400  0.68189400  0.05254300  1
  C  1167  1  0.39857500  0.63359000  0.95924300  1
  C  1169  1  0.44337900  0.35148100  0.33340700  1
  C  1171  1  0.42693200  0.35426100  0.37258600  1
  C  1172  1  0.41376400  0.32980500  0.35875800  1
  C  1174  1  0.43071400  0.32674800  0.31947300  1
  C  1177  1  0.45182000  0.29257800  0.28285300  1
  C  1181  1  0.45779100  0.36304100  0.32163000  1
  C  1183  1  0.39861800  0.31805100  0.36997600  1
  C  1185  1  0.44334400  0.97434500  0.65208600  1
  C  1187  1  0.42684300  0.01072300  0.64929300  1
  C  1188  1  0.41367500  0.02134600  0.67374900  1
  C  1190  1  0.43067000  0.98513400  0.67681300  1
  C  1193  1  0.45179400  0.98271500  0.71099500  1
  C  1197  1  0.45780000  0.95102900  0.64054400  1
  C  1199  1  0.39850300  0.04430400  0.68550200  1
  C  1201  1  0.80631500  0.59874200  0.14901700  1
  C  1203  1  0.83875400  0.56536100  0.14332200  1
  C  1204  1  0.81637400  0.55332300  0.14941200  1
  C  1206  1  0.78417100  0.58754900  0.15641200  1
  C  1209  1  0.75164800  0.61363500  0.18875600  1
  C  1213  1  0.80159000  0.61884100  0.14486100  1
  C  1215  1  0.81981100  0.52905400  0.14594300  1
  C  1217  1  0.80640600  0.54272100  0.40483700  1
  C  1219  1  0.83886400  0.57043700  0.43818100  1
  C  1220  1  0.81643700  0.58849200  0.45030800  1
  C  1222  1  0.78420400  0.56123600  0.41612500  1
  C  1225  1  0.75156600  0.56747900  0.39010700  1
  C  1229  1  0.80173100  0.51848400  0.38468600  1
  C  1231  1  0.81989400  0.60927600  0.47458600  1
  C  1233  1  0.80638800  0.85454000  0.46082000  1
  C  1235  1  0.83877800  0.86020800  0.43308700  1
  C  1236  1  0.81636900  0.85411600  0.41498500  1
  C  1238  1  0.78421500  0.84714300  0.44225700  1
  C  1241  1  0.75166600  0.81483600  0.43605300  1
  C  1245  1  0.80169300  0.85873700  0.48509300  1
  C  1247  1  0.81977200  0.85758600  0.39418400  1
  C  1249  1  0.30630100  0.39866600  0.86087600  1
  C  1251  1  0.33867600  0.43208100  0.86655600  1
  C  1252  1  0.31628400  0.44404900  0.86039600  1
  C  1254  1  0.28414700  0.40979000  0.85341400  1
  C  1257  1  0.25167000  0.38363800  0.82105800  1
  C  1261  1  0.30160500  0.37859700  0.86508300  1
  C  1263  1  0.31967800  0.46830400  0.86382100  1
  C  1265  1  0.30634400  0.45460900  0.60499900  1
  C  1267  1  0.33878600  0.42691000  0.57162900  1
  C  1268  1  0.31638800  0.40881100  0.55956300  1
  C  1270  1  0.28417900  0.43604600  0.59377500  1
  C  1273  1  0.25160100  0.42979800  0.61983100  1
  C  1277  1  0.30163300  0.47886200  0.62510200  1
  C  1279  1  0.31983000  0.38802300  0.53528600  1
  C  1281  1  0.30635500  0.14282900  0.54895700  1
  C  1283  1  0.33879500  0.13719900  0.57668200  1
  C  1284  1  0.31636400  0.14313600  0.59473300  1
  C  1286  1  0.28414900  0.15006900  0.56747100  1
  C  1289  1  0.25153100  0.18233900  0.57369600  1
  C  1293  1  0.30169000  0.13874000  0.52471700  1
  C  1295  1  0.31980600  0.13965000  0.61552500  1
  C  1297  1  0.05047800  0.45502300  0.86100500  1
  C  1299  1  0.01825200  0.42705000  0.86645800  1
  C  1300  1  0.04075900  0.40902600  0.86032900  1
  C  1302  1  0.07275100  0.43654300  0.85357200  1
  C  1305  1  0.10530400  0.43048300  0.82131700  1
  C  1309  1  0.05502000  0.47935600  0.86531400  1
  C  1311  1  0.03745800  0.38812000  0.86364400  1
  C  1313  1  0.05059100  0.14250600  0.60521000  1
  C  1315  1  0.01836700  0.13705200  0.57178200  1
  C  1316  1  0.04085700  0.14323800  0.55991900  1
  C  1318  1  0.07284400  0.14999700  0.59419600  1
  C  1321  1  0.10534100  0.18228700  0.62043800  1
  C  1325  1  0.05514400  0.13818100  0.62522300  1
  C  1327  1  0.03755500  0.13995300  0.53570900  1
  C  1329  1  0.05061700  0.39835600  0.54847500  1
  C  1331  1  0.01838000  0.43178100  0.57643200  1
  C  1332  1  0.04087900  0.44368700  0.59446000  1
  C  1334  1  0.07288300  0.40941800  0.56696100  1
  C  1337  1  0.10539700  0.38320700  0.57303700  1
  C  1341  1  0.05516100  0.37830600  0.52415700  1
  C  1343  1  0.03756200  0.46790300  0.61537800  1
  C  1345  1  0.55055600  0.54222900  0.14885500  1
  C  1347  1  0.51828700  0.57021600  0.14346600  1
  C  1348  1  0.54083600  0.58816500  0.14940300  1
  C  1350  1  0.57288200  0.56063700  0.15609500  1
  C  1353  1  0.60553600  0.56669800  0.18828200  1
  C  1357  1  0.55505300  0.51792800  0.14465700  1
  C  1359  1  0.53749500  0.60905300  0.14606100  1
  C  1361  1  0.55058000  0.85479500  0.40465900  1
  C  1363  1  0.51839800  0.86026200  0.43811700  1
  C  1364  1  0.54090700  0.85408500  0.44996800  1
  C  1366  1  0.57285600  0.84731500  0.41566300  1
  C  1369  1  0.60533900  0.81502300  0.38940600  1
  C  1373  1  0.55510500  0.85910800  0.38463600  1
  C  1375  1  0.53763400  0.85736700  0.47417900  1
  C  1377  1  0.55054500  0.59892200  0.46133400  1
  C  1379  1  0.51830500  0.56550900  0.43336600  1
  C  1380  1  0.54079200  0.55362800  0.41531900  1
  C  1382  1  0.57279900  0.58789100  0.44283200  1
  C  1385  1  0.60532600  0.61410000  0.43676500  1
  C  1389  1  0.55510500  0.61893800  0.48567000  1
  C  1391  1  0.53747800  0.52941700  0.39440200  1
  N  8  1  0.91350600  0.71919000  0.11309000  1
  N  15  1  0.76096400  0.59506100  0.07818800  1
  N  23  1  0.79520500  0.61346200  0.12189100  1
  N  24  1  0.76565200  0.62166000  0.04983000  1
  N  25  1  0.87628000  0.73358500  0.15437100  1
  N  26  1  0.89629500  0.67594600  0.06544800  1
  N  34  1  0.91348400  0.38627700  0.28438400  1
  N  41  1  0.76095400  0.47561600  0.40848700  1
  N  49  1  0.79502200  0.50091800  0.39001200  1
  N  50  1  0.76567500  0.42066800  0.38195500  1
  N  51  1  0.87629800  0.41318900  0.26999900  1
  N  52  1  0.89624000  0.38187800  0.32762300  1
  N  60  1  0.91335700  0.89052800  0.61737100  1
  N  67  1  0.76108600  0.92540600  0.52797000  1
  N  75  1  0.79535700  0.88171800  0.50268500  1
  N  76  1  0.76567300  0.95368000  0.58294100  1
  N  77  1  0.87622200  0.84920100  0.59039600  1
  N  78  1  0.89612900  0.93815800  0.62174900  1
  N  86  1  0.41350900  0.27813400  0.89678800  1
  N  93  1  0.26107700  0.40235200  0.93176900  1
  N  101  1  0.29535300  0.38399600  0.88808300  1
  N  102  1  0.26569000  0.37563900  0.96001700  1
  N  103  1  0.37631000  0.26376700  0.85549500  1
  N  104  1  0.39630100  0.32138500  0.94442600  1
  N  112  1  0.41349100  0.61102600  0.72543600  1
  N  119  1  0.26095500  0.52172900  0.60130900  1
  N  127  1  0.29520300  0.49644900  0.61972700  1
  N  128  1  0.26564700  0.57668300  0.62787400  1
  N  129  1  0.37629900  0.58411100  0.73981800  1
  N  130  1  0.39624100  0.61545400  0.68221500  1
  N  138  1  0.41348300  0.10681500  0.39253000  1
  N  145  1  0.26090600  0.07207400  0.48185900  1
  N  153  1  0.29498000  0.11584500  0.50715200  1
  N  154  1  0.26566600  0.04362600  0.42691400  1
  N  155  1  0.37628200  0.14810400  0.41942300  1
  N  156  1  0.39626500  0.05917900  0.38814400  1
  N  164  1  0.94317400  0.61161100  0.89732200  1
  N  171  1  0.09594500  0.52207600  0.93185500  1
  N  179  1  0.06145200  0.49688000  0.88830000  1
  N  180  1  0.09133800  0.57706200  0.96034200  1
  N  181  1  0.98037800  0.58443700  0.85601700  1
  N  182  1  0.95926000  0.61525500  0.94448700  1
  N  190  1  0.94310500  0.10633000  0.72549500  1
  N  197  1  0.09598800  0.07162000  0.60141400  1
  N  205  1  0.06149300  0.11517400  0.61974400  1
  N  206  1  0.09133600  0.04312400  0.62789400  1
  N  207  1  0.98036400  0.14758600  0.73958300  1
  N  208  1  0.95910800  0.05913700  0.68198200  1
  N  216  1  0.94306800  0.27815200  0.39205600  1
  N  223  1  0.09607300  0.40211400  0.48140400  1
  N  231  1  0.06163900  0.38375400  0.50663000  1
  N  232  1  0.09137200  0.37569400  0.42642900  1
  N  233  1  0.98033900  0.26401800  0.41918300  1
  N  234  1  0.95912700  0.32165500  0.38836900  1
  N  242  1  0.44315200  0.38577000  0.11260400  1
  N  249  1  0.59613100  0.47522900  0.07809900  1
  N  257  1  0.56187300  0.50043000  0.12176200  1
  N  258  1  0.59136200  0.42027000  0.04944200  1
  N  259  1  0.48038500  0.41293200  0.15387200  1
  N  260  1  0.45919600  0.38209000  0.06541400  1
  N  268  1  0.44318200  0.89105000  0.28436000  1
  N  275  1  0.59595600  0.92567300  0.40844300  1
  N  283  1  0.56149200  0.88210400  0.39010000  1
  N  284  1  0.59135300  0.95412500  0.38190500  1
  N  285  1  0.48040700  0.84976100  0.27023300  1
  N  286  1  0.45924800  0.93822400  0.32788300  1
  N  294  1  0.44309500  0.71921900  0.61782000  1
  N  301  1  0.59594900  0.59513400  0.52842800  1
  N  309  1  0.56146300  0.61346300  0.50319900  1
  N  310  1  0.59132300  0.62163700  0.58340400  1
  N  311  1  0.48035000  0.73332500  0.59066400  1
  N  312  1  0.45913300  0.67570100  0.62149400  1
  N  320  1  0.93805600  0.28920000  0.89806000  1
  N  327  1  0.11169100  0.38012300  0.89265800  1
  N  335  1  0.05720700  0.38384100  0.87606800  1
  N  336  1  0.11751500  0.35199000  0.91806100  1
  N  337  1  0.97529200  0.27108700  0.85305200  1
  N  338  1  0.96338900  0.32762800  0.94527300  1
  N  346  1  0.93817500  0.60135000  0.71449000  1
  N  353  1  0.11173600  0.50499600  0.62334400  1
  N  361  1  0.05730000  0.48461700  0.61966300  1
  N  362  1  0.11748200  0.55852900  0.65146600  1
  N  363  1  0.97542600  0.57439300  0.73248800  1
  N  364  1  0.96338000  0.61007100  0.67596200  1
  N  372  1  0.93822000  0.10554500  0.40221500  1
  N  379  1  0.11172300  0.11078100  0.49863700  1
  N  387  1  0.05727800  0.12748500  0.51899200  1
  N  388  1  0.11750400  0.08537700  0.44511300  1
  N  389  1  0.97540800  0.15051700  0.42923700  1
  N  390  1  0.96341400  0.05830500  0.39349900  1
  N  398  1  0.43815900  0.70820300  0.11179100  1
  N  405  1  0.61170600  0.61707900  0.11703300  1
  N  413  1  0.55724600  0.61337400  0.13366900  1
  N  414  1  0.61750400  0.64523500  0.09166000  1
  N  415  1  0.47538200  0.72622600  0.15675700  1
  N  416  1  0.46337700  0.66967300  0.06455600  1
  N  424  1  0.43804700  0.39607600  0.29548500  1
  N  431  1  0.61170800  0.49239000  0.38636700  1
  N  439  1  0.55722400  0.51270500  0.39010200  1
  N  440  1  0.61751700  0.43885900  0.35824100  1
  N  441  1  0.47526700  0.42297800  0.27736700  1
  N  442  1  0.46342000  0.38726100  0.33388000  1
  N  450  1  0.43820700  0.89179700  0.60760700  1
  N  457  1  0.61178600  0.88658100  0.51127400  1
  N  465  1  0.55735400  0.86984900  0.49089300  1
  N  466  1  0.61752800  0.91199700  0.56480900  1
  N  467  1  0.47545300  0.84683200  0.58065600  1
  N  468  1  0.46341600  0.93903700  0.61632000  1
  N  476  1  0.91916000  0.39533700  0.11095800  1
  N  483  1  0.74555600  0.49205900  0.11700900  1
  N  491  1  0.80004500  0.51236000  0.13355000  1
  N  492  1  0.73975400  0.43851900  0.09139300  1
  N  493  1  0.88189200  0.42228800  0.15603200  1
  N  494  1  0.89498300  0.38818200  0.06422300  1
  N  502  1  0.91918800  0.89264300  0.29557800  1
  N  509  1  0.74552800  0.88655600  0.38616000  1
  N  517  1  0.80002500  0.87002800  0.38992700  1
  N  518  1  0.73972400  0.91217100  0.35822900  1
  N  519  1  0.88190200  0.84756900  0.27739100  1
  N  520  1  0.89498200  0.93936900  0.33515200  1
  N  528  1  0.91931300  0.70791300  0.60814400  1
  N  535  1  0.74556500  0.61750800  0.51153100  1
  N  543  1  0.80009700  0.61364800  0.49127600  1
  N  544  1  0.73972800  0.64546400  0.56508300  1
  N  545  1  0.88200800  0.72619400  0.58131200  1
  N  546  1  0.89498200  0.66843300  0.61537500  1
  N  554  1  0.41915700  0.60197500  0.89887500  1
  N  561  1  0.24546300  0.50534600  0.89283500  1
  N  569  1  0.29993600  0.48500700  0.87626600  1
  N  570  1  0.23971500  0.55889700  0.91845800  1
  N  571  1  0.38184600  0.57508600  0.85380600  1
  N  572  1  0.39496100  0.60912300  0.94560700  1
  N  580  1  0.41915500  0.10471700  0.71429400  1
  N  587  1  0.24554500  0.11074700  0.62361900  1
  N  595  1  0.30003500  0.12727200  0.61984100  1
  N  596  1  0.23974300  0.08514600  0.65156200  1
  N  597  1  0.38188500  0.14979500  0.73242000  1
  N  598  1  0.39498300  0.05798700  0.67471100  1
  N  606  1  0.41921300  0.28931600  0.40160800  1
  N  613  1  0.24557100  0.37992400  0.49829500  1
  N  621  1  0.30007000  0.38371700  0.51858500  1
  N  622  1  0.23976700  0.35199900  0.44474600  1
  N  623  1  0.38191500  0.27114500  0.42849700  1
  N  624  1  0.39501800  0.32889300  0.39444400  1
  N  626  1  0.88632700  0.79656400  0.24113800  1
  N  629  1  0.88579800  0.78278500  0.19114700  1
  N  642  1  0.88624800  0.43700200  0.20703600  1
  N  645  1  0.88587800  0.40079100  0.22081600  1
  N  658  1  0.88658400  0.76243200  0.56653400  1
  N  661  1  0.88578200  0.81240500  0.60278600  1
  N  674  1  0.38625600  0.20080500  0.76871600  1
  N  677  1  0.38587700  0.21458000  0.81870500  1
  N  690  1  0.38630100  0.56031900  0.80279300  1
  N  693  1  0.38589600  0.59652100  0.78900200  1
  N  706  1  0.38630800  0.23487900  0.44323100  1
  N  709  1  0.38581400  0.18489000  0.40701200  1
  N  722  1  0.97106400  0.56000500  0.76904700  1
  N  725  1  0.97092800  0.59645400  0.81896000  1
  N  738  1  0.97078700  0.23455600  0.80210400  1
  N  741  1  0.97104200  0.18465300  0.78868200  1
  N  754  1  0.97111400  0.20145800  0.44359400  1
  N  757  1  0.97096800  0.21493000  0.40715100  1
  N  770  1  0.47074600  0.43739400  0.24083900  1
  N  773  1  0.47104100  0.40090900  0.19093800  1
  N  786  1  0.47105200  0.76278900  0.20769400  1
  N  789  1  0.47101900  0.81269900  0.22114800  1
  N  802  1  0.47107300  0.79588400  0.56625300  1
  N  805  1  0.47093000  0.78240600  0.60269100  1
  N  818  1  0.70230000  0.60684000  0.05666800  1
  N  821  1  0.66765600  0.64382100  0.05803000  1
  N  834  1  0.70234300  0.44233900  0.39672000  1
  N  837  1  0.66768000  0.40669400  0.35977900  1
  N  850  1  0.70231100  0.94691200  0.56135000  1
  N  853  1  0.66767300  0.94565500  0.59702600  1
  N  866  1  0.20238600  0.39042800  0.95307700  1
  N  869  1  0.16767100  0.35349000  0.95172200  1
  N  882  1  0.20228400  0.55504000  0.61308700  1
  N  885  1  0.16764300  0.59072100  0.65001500  1
  N  898  1  0.20229100  0.05041300  0.44853900  1
  N  901  1  0.16767500  0.05175700  0.41289500  1
  N  914  1  0.15470900  0.55525200  0.95320900  1
  N  917  1  0.18939600  0.59088800  0.95193700  1
  N  930  1  0.15468900  0.05031200  0.61317500  1
  N  933  1  0.18940300  0.05174500  0.65014300  1
  N  946  1  0.15472000  0.39041000  0.44833200  1
  N  949  1  0.18943700  0.35345800  0.41278300  1
  N  962  1  0.65474200  0.44212400  0.05657500  1
  N  965  1  0.68941000  0.40653700  0.05795900  1
  N  978  1  0.65470900  0.94701900  0.39664000  1
  N  981  1  0.68941000  0.94561800  0.35967900  1
  N  994  1  0.65463800  0.60699500  0.56146600  1
  N  997  1  0.68939200  0.64391300  0.59701300  1
  N  1010  1  0.91594600  0.64905000  0.01550700  1
  N  1013  1  0.94200900  0.67629900  0.99664700  1
  N  1026  1  0.91585400  0.35883600  0.35451800  1
  N  1029  1  0.94194000  0.31273400  0.32729800  1
  N  1042  1  0.91573900  0.98812700  0.64477700  1
  N  1045  1  0.94195700  0.00693300  0.69081600  1
  N  1058  1  0.41586000  0.34829800  0.99440500  1
  N  1061  1  0.44194400  0.32104200  0.01324800  1
  N  1074  1  0.41586200  0.63850900  0.65533500  1
  N  1077  1  0.44193900  0.68461300  0.68256200  1
  N  1090  1  0.41591800  0.00923800  0.36510400  1
  N  1093  1  0.44199800  0.99038600  0.31900100  1
  N  1106  1  0.94085900  0.35324300  0.99414100  1
  N  1109  1  0.91620500  0.32644800  0.01404200  1
  N  1122  1  0.94081600  0.63330400  0.65034400  1
  N  1125  1  0.91620500  0.68001900  0.67712000  1
  N  1138  1  0.94088900  0.00943100  0.37026700  1
  N  1141  1  0.91621200  0.98953700  0.32358000  1
  N  1154  1  0.44087400  0.64404700  0.01567200  1
  N  1157  1  0.41624100  0.67084800  0.99576800  1
  N  1170  1  0.44090900  0.36400200  0.35948800  1
  N  1173  1  0.41625600  0.31730600  0.33270200  1
  N  1186  1  0.44084800  0.98789700  0.63955800  1
  N  1189  1  0.41618700  0.00779200  0.68625000  1
  N  1202  1  0.83267900  0.58716300  0.14277200  1
  N  1205  1  0.78995500  0.56494500  0.15554700  1
  N  1218  1  0.83280800  0.54810400  0.41635100  1
  N  1221  1  0.78998500  0.58295800  0.43874300  1
  N  1234  1  0.83273900  0.86077700  0.45545400  1
  N  1237  1  0.78996100  0.84799800  0.42050600  1
  N  1250  1  0.33263800  0.41029500  0.86714800  1
  N  1253  1  0.28989000  0.43238300  0.85424200  1
  N  1266  1  0.33272000  0.44925700  0.59343800  1
  N  1269  1  0.28995700  0.41431500  0.57116500  1
  N  1282  1  0.33274800  0.13668900  0.55434300  1
  N  1285  1  0.28991900  0.14917600  0.58919500  1
  N  1298  1  0.02416300  0.44949500  0.86714900  1
  N  1301  1  0.06713100  0.41470500  0.85429700  1
  N  1314  1  0.02428600  0.13633600  0.59352200  1
  N  1317  1  0.06722000  0.14929600  0.57164300  1
  N  1330  1  0.02429700  0.41002000  0.55399500  1
  N  1333  1  0.06725200  0.43198300  0.58879400  1
  N  1346  1  0.52419100  0.54779900  0.14284000  1
  N  1349  1  0.56724800  0.58245100  0.15532600  1
  N  1362  1  0.52428400  0.86096800  0.41636500  1
  N  1365  1  0.56725900  0.84802500  0.43822500  1
  N  1378  1  0.52423000  0.58725000  0.45581800  1
  N  1381  1  0.56716400  0.56533800  0.42098500  1
  O  632  1  0.89150400  0.82524400  0.20014400  1
  O  648  1  0.89156600  0.36733600  0.17835000  1
  O  664  1  0.89153600  0.80339100  0.63622800  1
  O  680  1  0.39155400  0.17211200  0.80969000  1
  O  696  1  0.39164000  0.62998000  0.83145700  1
  O  712  1  0.39153000  0.19389800  0.37355900  1
  O  728  1  0.96529700  0.62969600  0.80963300  1
  O  744  1  0.96542400  0.19397700  0.83124500  1
  O  760  1  0.96541900  0.17235500  0.37389900  1
  O  776  1  0.46541600  0.36767100  0.20026200  1
  O  792  1  0.46540800  0.80337300  0.17857800  1
  O  808  1  0.46529900  0.82497100  0.63594100  1
  O  824  1  0.70508000  0.65944900  0.04304800  1
  O  840  1  0.70508200  0.37605900  0.34420900  1
  O  856  1  0.70512500  0.96063100  0.62761100  1
  O  872  1  0.20503000  0.33786300  0.96677000  1
  O  888  1  0.20508600  0.62131200  0.66561000  1
  O  904  1  0.20513100  0.03680200  0.38231500  1
  O  920  1  0.15201100  0.62152800  0.96697900  1
  O  936  1  0.15205900  0.03673700  0.66581100  1
  O  952  1  0.15209800  0.33780900  0.38210200  1
  O  968  1  0.65202700  0.37589800  0.04294500  1
  O  984  1  0.65205100  0.96063500  0.34403000  1
  O  1000  1  0.65209400  0.65952300  0.62773700  1
  O  1016  1  0.92591600  0.71556900  0.03123200  1
  O  1032  1  0.92590700  0.30804400  0.28801100  1
  O  1048  1  0.92590600  0.97233900  0.69550600  1
  O  1064  1  0.42588200  0.28177400  0.97864100  1
  O  1080  1  0.42591000  0.68929300  0.72184500  1
  O  1096  1  0.42590500  0.02497000  0.31431700  1
  O  1112  1  0.93063200  0.28692900  0.97899700  1
  O  1128  1  0.93061500  0.68450000  0.71664700  1
  O  1144  1  0.93066900  0.02456800  0.31909200  1
  O  1160  1  0.43068100  0.71036200  0.03081600  1
  O  1176  1  0.43065300  0.31283700  0.29317900  1
  O  1192  1  0.43063600  0.97275600  0.69073100  1
  O  1208  1  0.75661500  0.59711400  0.16168800  1
  O  1224  1  0.75662800  0.55691200  0.40659900  1
  O  1240  1  0.75666300  0.84189800  0.44659000  1
  O  1256  1  0.25660800  0.40018300  0.84812700  1
  O  1272  1  0.25661500  0.44035400  0.60332300  1
  O  1288  1  0.25658000  0.15528000  0.56314200  1
  O  1304  1  0.10026200  0.44102200  0.84837300  1
  O  1320  1  0.10034600  0.15522500  0.60389000  1
  O  1336  1  0.10039000  0.39973400  0.56250200  1
  O  1352  1  0.60041400  0.55614400  0.16123200  1
  O  1368  1  0.60034900  0.84208400  0.40594800  1
  O  1384  1  0.60030800  0.59757100  0.44729600  1
