# generated using pymatgen
data_H8C9N2
_symmetry_space_group_name_H-M   'P 1'
_cell_length_a   43.50990000
_cell_length_b   43.50990000
_cell_length_c   43.50990000
_cell_angle_alpha   90.00000000
_cell_angle_beta   90.00000000
_cell_angle_gamma   90.00000000
_symmetry_Int_Tables_number   1
_chemical_formula_structural   H8C9N2
_chemical_formula_sum   'H1024 C1152 N256'
_cell_volume   82369.08761628
_cell_formula_units_Z   128
loop_
 _symmetry_equiv_pos_site_id
 _symmetry_equiv_pos_as_xyz
  1  'x, y, z'
loop_
 _atom_site_type_symbol
 _atom_site_label
 _atom_site_symmetry_multiplicity
 _atom_site_fract_x
 _atom_site_fract_y
 _atom_site_fract_z
 _atom_site_occupancy
  H  5  1  0.05261400  0.08894000  0.01732200  1
  H  6  1  0.08299500  0.06252000  0.01985000  1
  H  9  1  0.11336100  0.05662100  0.06636400  1
  H  10  1  0.10835900  0.07750900  0.10012800  1
  H  11  1  0.07612300  0.01284500  0.05608400  1
  H  12  1  0.04253700  0.00890300  0.07838900  1
  H  15  1  0.05846900  0.07552100  0.13156100  1
  H  16  1  0.03191300  0.04614500  0.12347400  1
  H  18  1  0.06108200  0.12305700  0.09629800  1
  H  19  1  0.04198300  0.12412200  0.06108800  1
  H  21  1  0.99885800  0.05038600  0.07490700  1
  H  22  1  0.00282000  0.08136000  0.04916600  1
  H  27  1  0.68779500  0.22915300  0.50062800  1
  H  28  1  0.65395600  0.25013600  0.50112000  1
  H  31  1  0.61815100  0.24850900  0.53849300  1
  H  32  1  0.61075700  0.22087100  0.56212000  1
  H  33  1  0.64445800  0.29240000  0.54726600  1
  H  34  1  0.67251300  0.29736200  0.57509400  1
  H  37  1  0.66800800  0.23143500  0.62132000  1
  H  38  1  0.68668900  0.26123900  0.60953200  1
  H  40  1  0.68093200  0.17616800  0.56077800  1
  H  41  1  0.70197100  0.19489200  0.53675100  1
  H  43  1  0.72433100  0.26371200  0.57420000  1
  H  44  1  0.73050900  0.23689100  0.54537000  1
  H  49  1  0.21097100  0.60526600  0.75536800  1
  H  50  1  0.17562200  0.58723800  0.75904300  1
  H  53  1  0.14245400  0.58038900  0.72053900  1
  H  54  1  0.13574400  0.60264400  0.69213900  1
  H  55  1  0.16468000  0.53440200  0.71907500  1
  H  56  1  0.19475300  0.52424400  0.69469400  1
  H  59  1  0.19736200  0.58950500  0.64265100  1
  H  60  1  0.21093700  0.55384400  0.65290200  1
  H  62  1  0.20913200  0.63739200  0.67830700  1
  H  63  1  0.22761500  0.63175500  0.71212000  1
  H  65  1  0.24729500  0.54958500  0.69813500  1
  H  66  1  0.25433300  0.58182600  0.72140500  1
  H  71  1  0.54360200  0.72698100  0.23213300  1
  H  72  1  0.57131100  0.75587800  0.22744100  1
  H  75  1  0.61123800  0.75280300  0.18666600  1
  H  76  1  0.61768700  0.71775300  0.16889600  1
  H  77  1  0.57153400  0.78878500  0.17358500  1
  H  78  1  0.54336100  0.78033000  0.14603900  1
  H  81  1  0.57082600  0.70233600  0.12349600  1
  H  82  1  0.54486900  0.73258500  0.11770400  1
  H  84  1  0.57597900  0.67256400  0.17278600  1
  H  85  1  0.54705700  0.67678300  0.20055000  1
  H  87  1  0.50185100  0.73769400  0.15675600  1
  H  88  1  0.50295600  0.71628000  0.19107800  1
  H  93  1  0.79227000  0.34762900  0.49591900  1
  H  94  1  0.76883100  0.37978200  0.49440900  1
  H  97  1  0.76911000  0.41460900  0.45612600  1
  H  98  1  0.79602300  0.42202300  0.43169500  1
  H  99  1  0.72625500  0.38600800  0.45004700  1
  H  100  1  0.72156600  0.35761300  0.42240700  1
  H  103  1  0.78579100  0.36225500  0.37453800  1
  H  104  1  0.75696100  0.34314900  0.38780800  1
  H  106  1  0.84285100  0.35375100  0.43391000  1
  H  107  1  0.82559100  0.33266400  0.45911800  1
  H  109  1  0.75652600  0.30643800  0.42430300  1
  H  110  1  0.78450400  0.30187600  0.45227600  1
  H  115  1  0.93651700  0.96591100  0.99578000  1
  H  116  1  0.95905200  0.93303300  0.99428100  1
  H  119  1  0.96394300  0.90340300  0.95261500  1
  H  120  1  0.93880600  0.89647100  0.92660700  1
  H  121  1  0.00718800  0.93166600  0.94775200  1
  H  122  1  0.00983400  0.96358700  0.92366000  1
  H  125  1  0.93743900  0.96117800  0.88142200  1
  H  126  1  0.97239200  0.97870100  0.88745300  1
  H  128  1  0.89440500  0.96428800  0.92335900  1
  H  129  1  0.90211800  0.98153900  0.95783700  1
  H  131  1  0.97898600  0.01246200  0.93464900  1
  H  132  1  0.95004300  0.01378900  0.96289100  1
  H  137  1  0.30109700  0.47168300  0.78017100  1
  H  138  1  0.27187400  0.44531000  0.78729600  1
  H  141  1  0.27150600  0.41040100  0.82990000  1
  H  142  1  0.29850400  0.40936900  0.85901800  1
  H  143  1  0.23199500  0.45462300  0.83039900  1
  H  144  1  0.23591600  0.48546400  0.85612400  1
  H  147  1  0.30126900  0.45386400  0.89914400  1
  H  148  1  0.27933600  0.48605200  0.89406500  1
  H  150  1  0.35474400  0.45860300  0.83741300  1
  H  151  1  0.33895700  0.48222800  0.81404900  1
  H  153  1  0.28142500  0.52224600  0.85446700  1
  H  154  1  0.30802200  0.52158000  0.82478900  1
  H  159  1  0.41346700  0.82650300  0.23314000  1
  H  160  1  0.43302500  0.86113400  0.23433700  1
  H  163  1  0.43753700  0.89081700  0.27573900  1
  H  164  1  0.41406000  0.89563000  0.30377700  1
  H  165  1  0.48272200  0.86601600  0.27826800  1
  H  166  1  0.48969500  0.83364200  0.30107600  1
  H  169  1  0.41821700  0.83287400  0.34700800  1
  H  170  1  0.45437400  0.81721300  0.34084600  1
  H  172  1  0.37334900  0.82250200  0.30555800  1
  H  173  1  0.38368000  0.80684800  0.27169200  1
  H  175  1  0.46243500  0.78368600  0.29311000  1
  H  176  1  0.43223500  0.77902200  0.26677800  1
  H  181  1  0.32847000  0.81015800  0.49287400  1
  H  182  1  0.35848800  0.78627100  0.48150600  1
  H  185  1  0.38764000  0.79469000  0.43503600  1
  H  186  1  0.37905400  0.82141700  0.40688600  1
  H  187  1  0.35336800  0.74725200  0.43985100  1
  H  188  1  0.31990200  0.74365800  0.41728400  1
  H  191  1  0.33029900  0.81401200  0.37220500  1
  H  192  1  0.30467300  0.78570100  0.38084200  1
  H  194  1  0.32156800  0.86529000  0.43621300  1
  H  195  1  0.30526600  0.84434500  0.46155400  1
  H  197  1  0.27408200  0.77992300  0.42382700  1
  H  198  1  0.27185500  0.80641800  0.45342800  1
  H  203  1  0.79383500  0.48249000  0.23508700  1
  H  204  1  0.82704100  0.50445500  0.23448200  1
  H  207  1  0.86297100  0.50565000  0.27197700  1
  H  208  1  0.87101300  0.47956000  0.29716900  1
  H  209  1  0.83533300  0.54915700  0.27841500  1
  H  210  1  0.80715800  0.55474500  0.30599000  1
  H  213  1  0.81348100  0.49127200  0.35530500  1
  H  214  1  0.79390800  0.51996900  0.34215600  1
  H  216  1  0.80267700  0.43294000  0.29818300  1
  H  217  1  0.78091800  0.44941700  0.27298100  1
  H  219  1  0.75614500  0.51951400  0.30667000  1
  H  220  1  0.75095000  0.49128800  0.27894100  1
  H  225  1  0.44312200  0.34083700  0.76473100  1
  H  226  1  0.40999800  0.31890400  0.76630100  1
  H  229  1  0.37844500  0.31590500  0.80639800  1
  H  230  1  0.36938500  0.34249900  0.83029800  1
  H  231  1  0.40718300  0.27353500  0.81633100  1
  H  232  1  0.43847000  0.27320200  0.84133700  1
  H  235  1  0.42959600  0.34969900  0.87787800  1
  H  236  1  0.44870900  0.31481800  0.87696800  1
  H  238  1  0.43844000  0.39001700  0.83148100  1
  H  239  1  0.45689600  0.37729300  0.79990200  1
  H  241  1  0.48568900  0.30486800  0.83276900  1
  H  242  1  0.48889100  0.33139300  0.80239800  1
  H  247  1  0.21343600  0.69997400  0.50035200  1
  H  248  1  0.23936100  0.66901100  0.50191100  1
  H  251  1  0.23380200  0.62641300  0.54259300  1
  H  252  1  0.20275500  0.62780400  0.56836900  1
  H  253  1  0.27839900  0.66528300  0.54914100  1
  H  254  1  0.27726100  0.69371500  0.57780600  1
  H  257  1  0.20368500  0.66680000  0.61298400  1
  H  258  1  0.23118900  0.69586600  0.61503200  1
  H  260  1  0.16304600  0.67123300  0.56200000  1
  H  261  1  0.16965900  0.70315200  0.53874800  1
  H  263  1  0.23694400  0.73760400  0.57636500  1
  H  264  1  0.21104600  0.74050700  0.54551700  1
  H  269  1  0.69614200  0.61616300  0.24045500  1
  H  270  1  0.72534500  0.64361400  0.23556500  1
  H  273  1  0.71942400  0.68664800  0.19458900  1
  H  274  1  0.68675100  0.68700200  0.17097700  1
  H  275  1  0.75987700  0.64331500  0.18750200  1
  H  276  1  0.75487800  0.61521800  0.15873200  1
  H  279  1  0.68313100  0.64776000  0.12738100  1
  H  280  1  0.70657700  0.61539700  0.12541300  1
  H  282  1  0.64305300  0.64640000  0.18223000  1
  H  283  1  0.65031100  0.61455200  0.20507500  1
  H  285  1  0.71037800  0.57480000  0.16299700  1
  H  286  1  0.68636700  0.57430800  0.19535400  1
  H  291  1  0.54773900  0.21746200  0.75830000  1
  H  292  1  0.52474900  0.18500200  0.75780900  1
  H  295  1  0.52462300  0.14973500  0.72008900  1
  H  296  1  0.55110200  0.14232700  0.69523400  1
  H  297  1  0.48109200  0.17754800  0.71472000  1
  H  298  1  0.47524100  0.20540400  0.68677000  1
  H  301  1  0.53855500  0.20132400  0.63742900  1
  H  302  1  0.50954100  0.21996100  0.65106100  1
  H  304  1  0.59665200  0.21155400  0.69494900  1
  H  305  1  0.57977600  0.23259500  0.72047900  1
  H  307  1  0.50931600  0.25719600  0.68706800  1
  H  308  1  0.53796700  0.26266600  0.71420500  1
  H  313  1  0.06041400  0.59250800  0.49100700  1
  H  314  1  0.08682800  0.56406000  0.50209900  1
  H  317  1  0.11945100  0.57039400  0.54947000  1
  H  318  1  0.12145200  0.60682500  0.56600600  1
  H  319  1  0.07791800  0.53405100  0.55580000  1
  H  320  1  0.04528400  0.54278400  0.57780100  1
  H  323  1  0.06735600  0.62102400  0.60403900  1
  H  324  1  0.04045000  0.59158700  0.60409400  1
  H  326  1  0.08240500  0.64962200  0.55277700  1
  H  327  1  0.05855700  0.64387600  0.52060100  1
  H  329  1  0.00620700  0.58562300  0.55859400  1
  H  330  1  0.01352000  0.60551000  0.52411700  1
  H  335  1  0.69166100  0.70523900  0.96640700  1
  H  336  1  0.65923100  0.72902200  0.96285600  1
  H  339  1  0.61812100  0.72819000  0.00215400  1
  H  340  1  0.61771900  0.69898100  0.02909000  1
  H  341  1  0.64926300  0.77379400  0.00427200  1
  H  342  1  0.67570100  0.77914900  0.03432500  1
  H  345  1  0.66322100  0.70669800  0.07737100  1
  H  346  1  0.68189500  0.74238900  0.07504200  1
  H  348  1  0.66821500  0.66448300  0.03901900  1
  H  349  1  0.69744100  0.66710500  0.01139400  1
  H  351  1  0.72607600  0.74596500  0.03610000  1
  H  352  1  0.73196200  0.71576100  0.00984400  1
  H  357  1  0.18732600  0.09267600  0.25766800  1
  H  358  1  0.15525700  0.06848200  0.25385700  1
  H  361  1  0.12601000  0.06678900  0.20567200  1
  H  362  1  0.13519600  0.08688800  0.17209200  1
  H  363  1  0.15787500  0.02007000  0.21843000  1
  H  364  1  0.19173000  0.01174700  0.19748200  1
  H  367  1  0.18428100  0.07814100  0.14269400  1
  H  368  1  0.20773700  0.04654900  0.15201900  1
  H  370  1  0.18827200  0.12728200  0.17959600  1
  H  371  1  0.20519500  0.12413000  0.21547300  1
  H  373  1  0.23931100  0.04659400  0.20205700  1
  H  374  1  0.23913400  0.07905900  0.22605700  1
  H  379  1  0.81758600  0.80324200  0.96646400  1
  H  380  1  0.79692200  0.83681800  0.97224000  1
  H  383  1  0.79573600  0.87641800  0.93932800  1
  H  384  1  0.82375000  0.88943800  0.91926600  1
  H  385  1  0.75326500  0.85293400  0.92089300  1
  H  386  1  0.75329200  0.82710800  0.89042200  1
  H  389  1  0.83076000  0.83984500  0.85849600  1
  H  390  1  0.79510600  0.82278200  0.85543700  1
  H  392  1  0.86806900  0.82403000  0.90290400  1
  H  393  1  0.85651900  0.79762000  0.92956700  1
  H  395  1  0.78246300  0.77749600  0.89116900  1
  H  396  1  0.80785700  0.76764500  0.92104000  1
  H  401  1  0.93433600  0.48896900  0.49374500  1
  H  402  1  0.95641400  0.45579000  0.49495100  1
  H  405  1  0.95605100  0.41866800  0.45861000  1
  H  406  1  0.92978100  0.41083300  0.43356500  1
  H  407  1  0.99984900  0.44518800  0.45206500  1
  H  408  1  0.00660600  0.47216800  0.42337900  1
  H  411  1  0.94364200  0.46647100  0.37366600  1
  H  412  1  0.97256000  0.48565700  0.38668200  1
  H  414  1  0.88502100  0.48026100  0.43078200  1
  H  415  1  0.90226500  0.50233600  0.45513100  1
  H  417  1  0.97311600  0.52427100  0.42099800  1
  H  418  1  0.94447400  0.53129900  0.44769800  1
  H  423  1  0.30060300  0.98711500  0.28082300  1
  H  424  1  0.27629600  0.95563200  0.27690900  1
  H  427  1  0.27261400  0.91738600  0.31188700  1
  H  428  1  0.30064400  0.90238700  0.33035700  1
  H  429  1  0.23401600  0.94499600  0.33162300  1
  H  430  1  0.23773000  0.97214600  0.36041000  1
  H  433  1  0.31368500  0.95604800  0.39154700  1
  H  434  1  0.27995900  0.97603500  0.39232000  1
  H  436  1  0.34987400  0.96009100  0.34461800  1
  H  437  1  0.34339100  0.98758200  0.31645700  1
  H  439  1  0.27166900  0.01954500  0.35499500  1
  H  440  1  0.29684700  0.02454700  0.32372200  1
  H  445  1  0.28873900  0.35474700  0.02329400  1
  H  446  1  0.31879400  0.32874800  0.01990300  1
  H  449  1  0.34573300  0.32013200  0.97627100  1
  H  450  1  0.35460000  0.34523400  0.95019900  1
  H  451  1  0.31097500  0.28158200  0.97125400  1
  H  452  1  0.27719400  0.28435800  0.95001800  1
  H  455  1  0.29052900  0.35639200  0.90853300  1
  H  456  1  0.26733200  0.32500400  0.91466700  1
  H  458  1  0.29605200  0.39864200  0.95202900  1
  H  459  1  0.27833000  0.39275600  0.98666400  1
  H  461  1  0.23498100  0.32283200  0.96269500  1
  H  462  1  0.23934500  0.35036100  0.99192800  1
  H  467  1  0.82589900  0.98409300  0.75316800  1
  H  468  1  0.85569900  0.01002400  0.75921100  1
  H  471  1  0.89190400  0.00483600  0.80022900  1
  H  472  1  0.88991400  0.97841100  0.82975100  1
  H  473  1  0.85422300  0.05045000  0.80058500  1
  H  474  1  0.82497700  0.05177600  0.82860600  1
  H  477  1  0.84660200  0.98301900  0.87124000  1
  H  478  1  0.81820900  0.00978600  0.86694900  1
  H  480  1  0.83113900  0.93038500  0.81190400  1
  H  481  1  0.80995100  0.94923600  0.78822900  1
  H  483  1  0.78079200  0.01314700  0.82894400  1
  H  484  1  0.77585500  0.98594500  0.80019200  1
  H  489  1  0.19289600  0.21480300  0.02254800  1
  H  490  1  0.22358700  0.19005500  0.02453800  1
  H  493  1  0.22935400  0.15128100  0.05707700  1
  H  494  1  0.20402900  0.13492300  0.08001100  1
  H  495  1  0.26237200  0.19146900  0.07240500  1
  H  496  1  0.25470000  0.21551000  0.10391100  1
  H  499  1  0.18520400  0.17246500  0.13096600  1
  H  500  1  0.20777100  0.20415600  0.13897100  1
  H  502  1  0.13842800  0.19215300  0.07418500  1
  H  503  1  0.15529400  0.21881900  0.05557900  1
  H  505  1  0.21075700  0.25046900  0.10630100  1
  H  506  1  0.18523600  0.25646100  0.07605900  1
  H  511  1  0.69353100  0.07774300  0.75250000  1
  H  512  1  0.71358200  0.11213500  0.75333800  1
  H  515  1  0.71196200  0.14880200  0.71669200  1
  H  516  1  0.68462100  0.15603100  0.69261000  1
  H  517  1  0.75663000  0.12385400  0.70771900  1
  H  518  1  0.76261900  0.09635600  0.67954400  1
  H  521  1  0.69761800  0.10082300  0.63247400  1
  H  522  1  0.72738100  0.08212400  0.64433800  1
  H  524  1  0.64136900  0.08551800  0.69165800  1
  H  525  1  0.65997100  0.06395900  0.71544100  1
  H  527  1  0.73003300  0.04375100  0.67893900  1
  H  528  1  0.70302800  0.03651100  0.70735100  1
  H  533  1  0.54776900  0.08465000  0.49820800  1
  H  534  1  0.58029100  0.06167900  0.49681800  1
  H  537  1  0.61715100  0.06062500  0.53324600  1
  H  538  1  0.62519800  0.08643100  0.55874100  1
  H  539  1  0.58948800  0.01694100  0.53812800  1
  H  540  1  0.56264400  0.01002700  0.56684100  1
  H  543  1  0.56878100  0.07181000  0.61817400  1
  H  544  1  0.54969800  0.04310800  0.60445300  1
  H  546  1  0.55627300  0.13155600  0.56284400  1
  H  547  1  0.53415600  0.11544600  0.53772300  1
  H  549  1  0.51109700  0.04394400  0.57006100  1
  H  550  1  0.50429000  0.07364500  0.54441800  1
  H  555  1  0.04533200  0.70855100  0.72074600  1
  H  556  1  0.07606700  0.73345600  0.72736000  1
  H  559  1  0.11454000  0.74093400  0.69280300  1
  H  560  1  0.12863800  0.71593800  0.66999700  1
  H  561  1  0.08646300  0.78123300  0.68270400  1
  H  562  1  0.05985200  0.78473100  0.65364200  1
  H  565  1  0.06981400  0.71996700  0.60537200  1
  H  566  1  0.05082700  0.75126300  0.61636500  1
  H  568  1  0.07091800  0.67128600  0.64847500  1
  H  569  1  0.04366200  0.67255200  0.67735300  1
  H  571  1  0.00982600  0.74894400  0.65302100  1
  H  572  1  0.00638300  0.71814000  0.67887000  1
  H  577  1  0.42824700  0.97086600  0.49753200  1
  H  578  1  0.45465500  0.94207700  0.48939400  1
  H  581  1  0.45722400  0.91615600  0.44449400  1
  H  582  1  0.42869300  0.90667600  0.42251500  1
  H  583  1  0.49311700  0.95267900  0.43439500  1
  H  584  1  0.48566200  0.98659800  0.41439500  1
  H  587  1  0.40826300  0.97051600  0.38464600  1
  H  588  1  0.43933200  0.99504200  0.38597200  1
  H  590  1  0.37370800  0.96297300  0.43412600  1
  H  591  1  0.38450800  0.98029800  0.46769300  1
  H  593  1  0.44772500  0.02675400  0.43355400  1
  H  594  1  0.42538300  0.02083100  0.46671900  1
  H  599  1  0.92589200  0.82652600  0.73619500  1
  H  600  1  0.95472900  0.85368800  0.74113700  1
  H  603  1  0.96531300  0.87735400  0.78622500  1
  H  604  1  0.94079200  0.88778600  0.81201900  1
  H  605  1  0.00002500  0.83905700  0.79062200  1
  H  606  1  0.99343300  0.80464900  0.80986300  1
  H  609  1  0.92263300  0.82180100  0.85126500  1
  H  610  1  0.95159900  0.79643700  0.84333400  1
  H  612  1  0.88230900  0.83567400  0.80813300  1
  H  613  1  0.88574700  0.81914600  0.77232900  1
  H  615  1  0.95099900  0.76713100  0.79392200  1
  H  616  1  0.92472700  0.77611000  0.76458900  1
  H  621  1  0.93859000  0.33821900  0.24093800  1
  H  622  1  0.90585800  0.31558500  0.24152200  1
  H  625  1  0.86875300  0.31820100  0.27761900  1
  H  626  1  0.86053000  0.34596500  0.30089000  1
  H  627  1  0.89621800  0.27505400  0.28704700  1
  H  628  1  0.92260600  0.27121900  0.31678700  1
  H  631  1  0.91630800  0.33722600  0.36114100  1
  H  632  1  0.93593600  0.30763800  0.35044200  1
  H  634  1  0.92987500  0.39165300  0.30035000  1
  H  635  1  0.95183800  0.37295400  0.27701300  1
  H  637  1  0.97481400  0.30499000  0.31612600  1
  H  638  1  0.98144000  0.33156300  0.28713900  1
  H  643  1  0.05114900  0.21596300  0.24374700  1
  H  644  1  0.02446300  0.18622700  0.24270800  1
  H  647  1  0.02366700  0.14728500  0.20480300  1
  H  648  1  0.04731200  0.14502900  0.17295900  1
  H  649  1  0.97984500  0.18624300  0.20344900  1
  H  650  1  0.97770800  0.21397000  0.17420300  1
  H  653  1  0.04038700  0.18530400  0.12743500  1
  H  654  1  0.01649500  0.21531800  0.13275700  1
  H  656  1  0.10073000  0.20222500  0.18323400  1
  H  657  1  0.08421000  0.22623200  0.20546700  1
  H  659  1  0.01960800  0.25534900  0.16698500  1
  H  660  1  0.04854500  0.26057700  0.19377200  1
  H  665  1  0.53520000  0.58706800  0.99360800  1
  H  666  1  0.57022400  0.56707100  0.99594500  1
  H  669  1  0.61332200  0.58603900  0.03006700  1
  H  670  1  0.61135900  0.62369900  0.04304100  1
  H  671  1  0.58714200  0.54219100  0.05074100  1
  H  672  1  0.56176600  0.54540700  0.08183500  1
  H  675  1  0.56935100  0.62957400  0.09620600  1
  H  676  1  0.55419800  0.59417200  0.10701000  1
  H  678  1  0.55909500  0.65387100  0.04334800  1
  H  679  1  0.52864000  0.63938300  0.02129100  1
  H  681  1  0.50889800  0.57347100  0.07546300  1
  H  682  1  0.49916700  0.59146000  0.04057000  1
  H  687  1  0.44198600  0.46449200  0.00777600  1
  H  688  1  0.46800100  0.43449400  0.00267600  1
  H  691  1  0.46386200  0.39795500  0.96119900  1
  H  692  1  0.43822900  0.40010900  0.93089100  1
  H  693  1  0.50897600  0.43531400  0.96214600  1
  H  694  1  0.51166900  0.46495100  0.93459600  1
  H  697  1  0.44450500  0.44327100  0.88907500  1
  H  698  1  0.47074300  0.47175000  0.89475900  1
  H  700  1  0.38949500  0.45804900  0.94811500  1
  H  701  1  0.40777400  0.47974100  0.97166800  1
  H  703  1  0.47243000  0.50898300  0.93261000  1
  H  704  1  0.44450100  0.51378400  0.96053900  1
  H  710  1  0.12952600  0.01107200  0.08518500  1
  H  711  1  0.17095500  0.01992600  0.11972200  1
  H  718  1  0.62338900  0.20808400  0.61042200  1
  H  719  1  0.58947000  0.19875900  0.64580200  1
  H  726  1  0.15347100  0.61020800  0.64364200  1
  H  727  1  0.11416100  0.61731900  0.61354500  1
  H  734  1  0.62107900  0.70853000  0.12303100  1
  H  735  1  0.61158000  0.70172900  0.07494000  1
  H  742  1  0.11039900  0.12644800  0.09987100  1
  H  743  1  0.15862100  0.14140500  0.09669800  1
  H  750  1  0.58766600  0.65977100  0.23784900  1
  H  751  1  0.63540200  0.63570300  0.24906300  1
  H  758  1  0.63140300  0.17498800  0.57459500  1
  H  759  1  0.60605900  0.13200800  0.57424800  1
  H  766  1  0.16661200  0.65260000  0.66873500  1
  H  767  1  0.11879800  0.66349500  0.65760900  1
  H  774  1  0.99279400  0.13655300  0.07432600  1
  H  775  1  0.98430200  0.17851400  0.10799500  1
  H  782  1  0.27001400  0.64198700  0.67945200  1
  H  783  1  0.27388000  0.67238400  0.63449200  1
  H  790  1  0.51600200  0.64050900  0.16557600  1
  H  791  1  0.50657900  0.60487100  0.12505300  1
  H  798  1  0.66569600  0.18127800  0.61004900  1
  H  799  1  0.67370600  0.14514600  0.64357700  1
  H  806  1  0.80839000  0.40760600  0.38360200  1
  H  807  1  0.81647100  0.44063500  0.34708200  1
  H  814  1  0.92718400  0.91468800  0.87674000  1
  H  815  1  0.92250700  0.86795400  0.86034200  1
  H  822  1  0.24579900  0.45868200  0.92515700  1
  H  823  1  0.23995700  0.42014800  0.96293000  1
  H  830  1  0.40827000  0.87947100  0.35381400  1
  H  831  1  0.40633500  0.92359800  0.37731400  1
  H  838  1  0.84241200  0.40316300  0.41937800  1
  H  839  1  0.88430600  0.43027400  0.41910700  1
  H  846  1  0.36838700  0.86570100  0.32386400  1
  H  847  1  0.35198400  0.91114100  0.33786100  1
  H  854  1  0.89016000  0.91814400  0.91109800  1
  H  855  1  0.87377100  0.87139700  0.90373200  1
  H  862  1  0.34674600  0.40817800  0.85434800  1
  H  863  1  0.39366900  0.39335600  0.84565100  1
  H  870  1  0.83646700  0.36677600  0.38468000  1
  H  871  1  0.87118500  0.35906300  0.34957100  1
  H  878  1  0.34753000  0.44386900  0.88996500  1
  H  879  1  0.39730500  0.44067600  0.89492700  1
  H  886  1  0.36572100  0.76577900  0.30294500  1
  H  887  1  0.33400200  0.75826400  0.34633700  1
  H  894  1  0.88487200  0.02577500  0.93455200  1
  H  895  1  0.84990900  0.04020900  0.89559800  1
  H  902  1  0.85883400  0.46912100  0.34636900  1
  H  903  1  0.89298500  0.46334700  0.38240700  1
  H  910  1  0.38192400  0.35720800  0.87933300  1
  H  911  1  0.33721700  0.35964400  0.90143800  1
  H  918  1  0.36915000  0.86867300  0.41223500  1
  H  919  1  0.37418100  0.91770800  0.42068600  1
  H  926  1  0.85224700  0.43376300  0.31167800  1
  H  927  1  0.87990300  0.39223000  0.31308700  1
  H  934  1  0.49594000  0.40106200  0.82849400  1
  H  935  1  0.50165800  0.43915500  0.86674500  1
  H  942  1  0.33096800  0.86094600  0.38018000  1
  H  943  1  0.32435100  0.91060400  0.38070900  1
  H  950  1  0.75170000  0.63164900  0.10341000  1
  H  951  1  0.73502100  0.65083100  0.05472700  1
  H  958  1  0.56237100  0.15681200  0.64679700  1
  H  959  1  0.57092000  0.12284400  0.61130200  1
  H  966  1  0.15381500  0.68555600  0.49315900  1
  H  967  1  0.10445500  0.66241400  0.49517000  1
  H  974  1  0.59702700  0.16230800  0.68099600  1
  H  975  1  0.63916200  0.13556100  0.67959200  1
  H  982  1  0.15524100  0.67687800  0.61003800  1
  H  983  1  0.10849800  0.69386700  0.61884300  1
  H  990  1  0.63402800  0.64639300  0.13528500  1
  H  991  1  0.61753500  0.63810300  0.08849400  1
  H  998  1  0.66436800  0.63197300  0.98118800  1
  H  999  1  0.62404400  0.59531000  0.98147700  1
  H  1006  1  0.14255600  0.13715200  0.17169300  1
  H  1007  1  0.09501500  0.15259600  0.16798300  1
  H  1014  1  0.02794700  0.68188300  0.54491500  1
  H  1015  1  0.02221900  0.72190700  0.58104900  1
  H  1022  1  0.25165300  0.13822500  0.19722600  1
  H  1023  1  0.25131700  0.17943100  0.16128800  1
  H  1030  1  0.84059000  0.88620900  0.86776700  1
  H  1031  1  0.84619800  0.93596800  0.86628700  1
  H  1038  1  0.92010000  0.42168300  0.38445000  1
  H  1039  1  0.91380500  0.38707700  0.34909500  1
  H  1046  1  0.81541200  0.78335500  0.82787100  1
  H  1047  1  0.85550800  0.78063100  0.79136000  1
  H  1054  1  0.30900300  0.01186600  0.41790000  1
  H  1055  1  0.35271700  0.01851000  0.44928600  1
  H  1062  1  0.34175000  0.39725400  0.93924100  1
  H  1063  1  0.39031600  0.40750900  0.93229300  1
  H  1070  1  0.88175500  0.93090000  0.82872600  1
  H  1071  1  0.88848000  0.88150700  0.82173700  1
  H  1078  1  0.13629900  0.17572700  0.12613500  1
  H  1079  1  0.08636900  0.18027100  0.12631800  1
  H  1086  1  0.64741300  0.10232400  0.64327800  1
  H  1087  1  0.61308300  0.09570200  0.60786100  1
  H  1094  1  0.06470400  0.02262300  0.99153700  1
  H  1095  1  0.03923800  0.98737700  0.95861100  1
  H  1102  1  0.66245300  0.30689300  0.49681300  1
  H  1103  1  0.69031100  0.34091500  0.46375600  1
  H  1110  1  0.19677700  0.49888800  0.74376400  1
  H  1111  1  0.22324100  0.46904200  0.78015100  1
  H  1118  1  0.55156600  0.80703900  0.22202500  1
  H  1119  1  0.51833700  0.83741600  0.25227600  1
  H  1126  1  0.32052200  0.71333100  0.46542500  1
  H  1127  1  0.29236500  0.68378600  0.50112900  1
  H  1134  1  0.81688500  0.55959400  0.22674000  1
  H  1135  1  0.78946800  0.59650500  0.19706000  1
  H  1142  1  0.41837300  0.26215900  0.75958300  1
  H  1143  1  0.44455800  0.22577700  0.72707100  1
  H  1150  1  0.06540600  0.51365100  0.50389400  1
  H  1151  1  0.03548000  0.48095200  0.47178200  1
  H  1158  1  0.70114800  0.80889800  0.99952100  1
  H  1159  1  0.74019900  0.83522800  0.97164300  1
  H  1166  1  0.18947900  0.98804100  0.24673400  1
  H  1167  1  0.21848600  0.96149800  0.28372100  1
  H  1174  1  0.30834800  0.27671200  0.02850400  1
  H  1175  1  0.28641500  0.23768400  0.05978600  1
  H  1182  1  0.80638100  0.08177100  0.78857400  1
  H  1183  1  0.76918300  0.10685200  0.75754000  1
  H  1190  1  0.54507100  0.98146600  0.52243500  1
  H  1191  1  0.50739200  0.95590800  0.49127400  1
  H  1198  1  0.04277600  0.81368300  0.69996200  1
  H  1199  1  0.00670200  0.83868700  0.73326000  1
  H  1206  1  0.94181000  0.23832300  0.28155200  1
  H  1207  1  0.97497700  0.20639500  0.25306200  1
  H  1214  1  0.56708400  0.51178200  0.01125000  1
  H  1215  1  0.54050000  0.47481300  0.98156000  1
  H  1221  1  0.05261400  0.08894000  0.36207100  1
  H  1222  1  0.08299500  0.06252000  0.36459900  1
  H  1225  1  0.11336100  0.05662100  0.41111300  1
  H  1226  1  0.10835900  0.07750900  0.44487700  1
  H  1227  1  0.07612300  0.01284500  0.40083300  1
  H  1228  1  0.04253700  0.00890300  0.42313800  1
  H  1231  1  0.05846900  0.07552100  0.47631000  1
  H  1232  1  0.03191300  0.04614500  0.46822300  1
  H  1234  1  0.06108200  0.12305700  0.44104700  1
  H  1235  1  0.04198300  0.12412200  0.40583700  1
  H  1237  1  0.99885800  0.05038600  0.41965600  1
  H  1238  1  0.00282000  0.08136000  0.39391500  1
  H  1243  1  0.68779500  0.22915300  0.84537700  1
  H  1244  1  0.65395600  0.25013600  0.84586900  1
  H  1247  1  0.61815100  0.24850900  0.88324200  1
  H  1248  1  0.61075700  0.22087100  0.90686900  1
  H  1249  1  0.64445800  0.29240000  0.89201500  1
  H  1250  1  0.67251300  0.29736200  0.91984300  1
  H  1253  1  0.66800800  0.23143500  0.96606900  1
  H  1254  1  0.68668900  0.26123900  0.95428100  1
  H  1256  1  0.68093200  0.17616800  0.90552700  1
  H  1257  1  0.70197100  0.19489200  0.88150000  1
  H  1259  1  0.72433100  0.26371200  0.91894900  1
  H  1260  1  0.73050900  0.23689100  0.89011900  1
  H  1265  1  0.21097100  0.60526600  0.10011700  1
  H  1266  1  0.17562200  0.58723800  0.10379200  1
  H  1269  1  0.14245400  0.58038900  0.06528810  1
  H  1270  1  0.13574400  0.60264400  0.03688810  1
  H  1271  1  0.16468000  0.53440200  0.06382410  1
  H  1272  1  0.19475300  0.52424400  0.03944310  1
  H  1275  1  0.19736200  0.58950500  0.98740000  1
  H  1276  1  0.21093700  0.55384400  0.99765100  1
  H  1278  1  0.20913200  0.63739200  0.02305610  1
  H  1279  1  0.22761500  0.63175500  0.05686910  1
  H  1281  1  0.24729500  0.54958500  0.04288410  1
  H  1282  1  0.25433300  0.58182600  0.06615410  1
  H  1287  1  0.54360200  0.72698100  0.57688200  1
  H  1288  1  0.57131100  0.75587800  0.57219000  1
  H  1291  1  0.61123800  0.75280300  0.53141500  1
  H  1292  1  0.61768700  0.71775300  0.51364500  1
  H  1293  1  0.57153400  0.78878500  0.51833400  1
  H  1294  1  0.54336100  0.78033000  0.49078800  1
  H  1297  1  0.57082600  0.70233600  0.46824500  1
  H  1298  1  0.54486900  0.73258500  0.46245300  1
  H  1300  1  0.57597900  0.67256400  0.51753500  1
  H  1301  1  0.54705700  0.67678300  0.54529900  1
  H  1303  1  0.50185100  0.73769400  0.50150500  1
  H  1304  1  0.50295600  0.71628000  0.53582700  1
  H  1309  1  0.79227000  0.34762900  0.84066800  1
  H  1310  1  0.76883100  0.37978200  0.83915800  1
  H  1313  1  0.76911000  0.41460900  0.80087500  1
  H  1314  1  0.79602300  0.42202300  0.77644400  1
  H  1315  1  0.72625500  0.38600800  0.79479600  1
  H  1316  1  0.72156600  0.35761300  0.76715600  1
  H  1319  1  0.78579100  0.36225500  0.71928700  1
  H  1320  1  0.75696100  0.34314900  0.73255700  1
  H  1322  1  0.84285100  0.35375100  0.77865900  1
  H  1323  1  0.82559100  0.33266400  0.80386700  1
  H  1325  1  0.75652600  0.30643800  0.76905200  1
  H  1326  1  0.78450400  0.30187600  0.79702500  1
  H  1331  1  0.93651700  0.96591100  0.34052900  1
  H  1332  1  0.95905200  0.93303300  0.33903000  1
  H  1335  1  0.96394300  0.90340300  0.29736400  1
  H  1336  1  0.93880600  0.89647100  0.27135600  1
  H  1337  1  0.00718800  0.93166600  0.29250100  1
  H  1338  1  0.00983400  0.96358700  0.26840900  1
  H  1341  1  0.93743900  0.96117800  0.22617100  1
  H  1342  1  0.97239200  0.97870100  0.23220200  1
  H  1344  1  0.89440500  0.96428800  0.26810800  1
  H  1345  1  0.90211800  0.98153900  0.30258600  1
  H  1347  1  0.97898600  0.01246200  0.27939800  1
  H  1348  1  0.95004300  0.01378900  0.30764000  1
  H  1353  1  0.30109700  0.47168300  0.12492000  1
  H  1354  1  0.27187400  0.44531000  0.13204500  1
  H  1357  1  0.27150600  0.41040100  0.17464900  1
  H  1358  1  0.29850400  0.40936900  0.20376700  1
  H  1359  1  0.23199500  0.45462300  0.17514800  1
  H  1360  1  0.23591600  0.48546400  0.20087300  1
  H  1363  1  0.30126900  0.45386400  0.24389300  1
  H  1364  1  0.27933600  0.48605200  0.23881400  1
  H  1366  1  0.35474400  0.45860300  0.18216200  1
  H  1367  1  0.33895700  0.48222800  0.15879800  1
  H  1369  1  0.28142500  0.52224600  0.19921600  1
  H  1370  1  0.30802200  0.52158000  0.16953800  1
  H  1375  1  0.41346700  0.82650300  0.57788900  1
  H  1376  1  0.43302500  0.86113400  0.57908600  1
  H  1379  1  0.43753700  0.89081700  0.62048800  1
  H  1380  1  0.41406000  0.89563000  0.64852600  1
  H  1381  1  0.48272200  0.86601600  0.62301700  1
  H  1382  1  0.48969500  0.83364200  0.64582500  1
  H  1385  1  0.41821700  0.83287400  0.69175700  1
  H  1386  1  0.45437400  0.81721300  0.68559500  1
  H  1388  1  0.37334900  0.82250200  0.65030700  1
  H  1389  1  0.38368000  0.80684800  0.61644100  1
  H  1391  1  0.46243500  0.78368600  0.63785900  1
  H  1392  1  0.43223500  0.77902200  0.61152700  1
  H  1397  1  0.32847000  0.81015800  0.83762300  1
  H  1398  1  0.35848800  0.78627100  0.82625500  1
  H  1401  1  0.38764000  0.79469000  0.77978500  1
  H  1402  1  0.37905400  0.82141700  0.75163500  1
  H  1403  1  0.35336800  0.74725200  0.78460000  1
  H  1404  1  0.31990200  0.74365800  0.76203300  1
  H  1407  1  0.33029900  0.81401200  0.71695400  1
  H  1408  1  0.30467300  0.78570100  0.72559100  1
  H  1410  1  0.32156800  0.86529000  0.78096200  1
  H  1411  1  0.30526600  0.84434500  0.80630300  1
  H  1413  1  0.27408200  0.77992300  0.76857600  1
  H  1414  1  0.27185500  0.80641800  0.79817700  1
  H  1419  1  0.79383500  0.48249000  0.57983600  1
  H  1420  1  0.82704100  0.50445500  0.57923100  1
  H  1423  1  0.86297100  0.50565000  0.61672600  1
  H  1424  1  0.87101300  0.47956000  0.64191800  1
  H  1425  1  0.83533300  0.54915700  0.62316400  1
  H  1426  1  0.80715800  0.55474500  0.65073900  1
  H  1429  1  0.81348100  0.49127200  0.70005400  1
  H  1430  1  0.79390800  0.51996900  0.68690500  1
  H  1432  1  0.80267700  0.43294000  0.64293200  1
  H  1433  1  0.78091800  0.44941700  0.61773000  1
  H  1435  1  0.75614500  0.51951400  0.65141900  1
  H  1436  1  0.75095000  0.49128800  0.62369000  1
  H  1441  1  0.44312200  0.34083700  0.10948000  1
  H  1442  1  0.40999800  0.31890400  0.11105000  1
  H  1445  1  0.37844500  0.31590500  0.15114700  1
  H  1446  1  0.36938500  0.34249900  0.17504700  1
  H  1447  1  0.40718300  0.27353500  0.16108000  1
  H  1448  1  0.43847000  0.27320200  0.18608600  1
  H  1451  1  0.42959600  0.34969900  0.22262700  1
  H  1452  1  0.44870900  0.31481800  0.22171700  1
  H  1454  1  0.43844000  0.39001700  0.17623000  1
  H  1455  1  0.45689600  0.37729300  0.14465100  1
  H  1457  1  0.48568900  0.30486800  0.17751800  1
  H  1458  1  0.48889100  0.33139300  0.14714700  1
  H  1463  1  0.21343600  0.69997400  0.84510100  1
  H  1464  1  0.23936100  0.66901100  0.84666000  1
  H  1467  1  0.23380200  0.62641300  0.88734200  1
  H  1468  1  0.20275500  0.62780400  0.91311800  1
  H  1469  1  0.27839900  0.66528300  0.89389000  1
  H  1470  1  0.27726100  0.69371500  0.92255500  1
  H  1473  1  0.20368500  0.66680000  0.95773300  1
  H  1474  1  0.23118900  0.69586600  0.95978100  1
  H  1476  1  0.16304600  0.67123300  0.90674900  1
  H  1477  1  0.16965900  0.70315200  0.88349700  1
  H  1479  1  0.23694400  0.73760400  0.92111400  1
  H  1480  1  0.21104600  0.74050700  0.89026600  1
  H  1485  1  0.69614200  0.61616300  0.58520400  1
  H  1486  1  0.72534500  0.64361400  0.58031400  1
  H  1489  1  0.71942400  0.68664800  0.53933800  1
  H  1490  1  0.68675100  0.68700200  0.51572600  1
  H  1491  1  0.75987700  0.64331500  0.53225100  1
  H  1492  1  0.75487800  0.61521800  0.50348100  1
  H  1495  1  0.68313100  0.64776000  0.47213000  1
  H  1496  1  0.70657700  0.61539700  0.47016200  1
  H  1498  1  0.64305300  0.64640000  0.52697900  1
  H  1499  1  0.65031100  0.61455200  0.54982400  1
  H  1501  1  0.71037800  0.57480000  0.50774600  1
  H  1502  1  0.68636700  0.57430800  0.54010300  1
  H  1507  1  0.54773900  0.21746200  0.10304900  1
  H  1508  1  0.52474900  0.18500200  0.10255800  1
  H  1511  1  0.52462300  0.14973500  0.06483810  1
  H  1512  1  0.55110200  0.14232700  0.03998310  1
  H  1513  1  0.48109200  0.17754800  0.05946910  1
  H  1514  1  0.47524100  0.20540400  0.03151910  1
  H  1517  1  0.53855500  0.20132400  0.98217800  1
  H  1518  1  0.50954100  0.21996100  0.99581000  1
  H  1520  1  0.59665200  0.21155400  0.03969810  1
  H  1521  1  0.57977600  0.23259500  0.06522810  1
  H  1523  1  0.50931600  0.25719600  0.03181710  1
  H  1524  1  0.53796700  0.26266600  0.05895410  1
  H  1529  1  0.06041400  0.59250800  0.83575600  1
  H  1530  1  0.08682800  0.56406000  0.84684800  1
  H  1533  1  0.11945100  0.57039400  0.89421900  1
  H  1534  1  0.12145200  0.60682500  0.91075500  1
  H  1535  1  0.07791800  0.53405100  0.90054900  1
  H  1536  1  0.04528400  0.54278400  0.92255000  1
  H  1539  1  0.06735600  0.62102400  0.94878800  1
  H  1540  1  0.04045000  0.59158700  0.94884300  1
  H  1542  1  0.08240500  0.64962200  0.89752600  1
  H  1543  1  0.05855700  0.64387600  0.86535000  1
  H  1545  1  0.00620700  0.58562300  0.90334300  1
  H  1546  1  0.01352000  0.60551000  0.86886600  1
  H  1551  1  0.69166100  0.70523900  0.31115600  1
  H  1552  1  0.65923100  0.72902200  0.30760500  1
  H  1555  1  0.61812100  0.72819000  0.34690300  1
  H  1556  1  0.61771900  0.69898100  0.37383900  1
  H  1557  1  0.64926300  0.77379400  0.34902100  1
  H  1558  1  0.67570100  0.77914900  0.37907400  1
  H  1561  1  0.66322100  0.70669800  0.42212000  1
  H  1562  1  0.68189500  0.74238900  0.41979100  1
  H  1564  1  0.66821500  0.66448300  0.38376800  1
  H  1565  1  0.69744100  0.66710500  0.35614300  1
  H  1567  1  0.72607600  0.74596500  0.38084900  1
  H  1568  1  0.73196200  0.71576100  0.35459300  1
  H  1573  1  0.18732600  0.09267600  0.60241700  1
  H  1574  1  0.15525700  0.06848200  0.59860600  1
  H  1577  1  0.12601000  0.06678900  0.55042100  1
  H  1578  1  0.13519600  0.08688800  0.51684100  1
  H  1579  1  0.15787500  0.02007000  0.56317900  1
  H  1580  1  0.19173000  0.01174700  0.54223100  1
  H  1583  1  0.18428100  0.07814100  0.48744300  1
  H  1584  1  0.20773700  0.04654900  0.49676800  1
  H  1586  1  0.18827200  0.12728200  0.52434500  1
  H  1587  1  0.20519500  0.12413000  0.56022200  1
  H  1589  1  0.23931100  0.04659400  0.54680600  1
  H  1590  1  0.23913400  0.07905900  0.57080600  1
  H  1595  1  0.81758600  0.80324200  0.31121300  1
  H  1596  1  0.79692200  0.83681800  0.31698900  1
  H  1599  1  0.79573600  0.87641800  0.28407700  1
  H  1600  1  0.82375000  0.88943800  0.26401500  1
  H  1601  1  0.75326500  0.85293400  0.26564200  1
  H  1602  1  0.75329200  0.82710800  0.23517100  1
  H  1605  1  0.83076000  0.83984500  0.20324500  1
  H  1606  1  0.79510600  0.82278200  0.20018600  1
  H  1608  1  0.86806900  0.82403000  0.24765300  1
  H  1609  1  0.85651900  0.79762000  0.27431600  1
  H  1611  1  0.78246300  0.77749600  0.23591800  1
  H  1612  1  0.80785700  0.76764500  0.26578900  1
  H  1617  1  0.93433600  0.48896900  0.83849400  1
  H  1618  1  0.95641400  0.45579000  0.83970000  1
  H  1621  1  0.95605100  0.41866800  0.80335900  1
  H  1622  1  0.92978100  0.41083300  0.77831400  1
  H  1623  1  0.99984900  0.44518800  0.79681400  1
  H  1624  1  0.00660600  0.47216800  0.76812800  1
  H  1627  1  0.94364200  0.46647100  0.71841500  1
  H  1628  1  0.97256000  0.48565700  0.73143100  1
  H  1630  1  0.88502100  0.48026100  0.77553100  1
  H  1631  1  0.90226500  0.50233600  0.79988000  1
  H  1633  1  0.97311600  0.52427100  0.76574700  1
  H  1634  1  0.94447400  0.53129900  0.79244700  1
  H  1639  1  0.30060300  0.98711500  0.62557200  1
  H  1640  1  0.27629600  0.95563200  0.62165800  1
  H  1643  1  0.27261400  0.91738600  0.65663600  1
  H  1644  1  0.30064400  0.90238700  0.67510600  1
  H  1645  1  0.23401600  0.94499600  0.67637200  1
  H  1646  1  0.23773000  0.97214600  0.70515900  1
  H  1649  1  0.31368500  0.95604800  0.73629600  1
  H  1650  1  0.27995900  0.97603500  0.73706900  1
  H  1652  1  0.34987400  0.96009100  0.68936700  1
  H  1653  1  0.34339100  0.98758200  0.66120600  1
  H  1655  1  0.27166900  0.01954500  0.69974400  1
  H  1656  1  0.29684700  0.02454700  0.66847100  1
  H  1661  1  0.28873900  0.35474700  0.36804300  1
  H  1662  1  0.31879400  0.32874800  0.36465200  1
  H  1665  1  0.34573300  0.32013200  0.32102000  1
  H  1666  1  0.35460000  0.34523400  0.29494800  1
  H  1667  1  0.31097500  0.28158200  0.31600300  1
  H  1668  1  0.27719400  0.28435800  0.29476700  1
  H  1671  1  0.29052900  0.35639200  0.25328200  1
  H  1672  1  0.26733200  0.32500400  0.25941600  1
  H  1674  1  0.29605200  0.39864200  0.29677800  1
  H  1675  1  0.27833000  0.39275600  0.33141300  1
  H  1677  1  0.23498100  0.32283200  0.30744400  1
  H  1678  1  0.23934500  0.35036100  0.33667700  1
  H  1683  1  0.82589900  0.98409300  0.09791710  1
  H  1684  1  0.85569900  0.01002400  0.10396000  1
  H  1687  1  0.89190400  0.00483600  0.14497800  1
  H  1688  1  0.88991400  0.97841100  0.17450000  1
  H  1689  1  0.85422300  0.05045000  0.14533400  1
  H  1690  1  0.82497700  0.05177600  0.17335500  1
  H  1693  1  0.84660200  0.98301900  0.21598900  1
  H  1694  1  0.81820900  0.00978600  0.21169800  1
  H  1696  1  0.83113900  0.93038500  0.15665300  1
  H  1697  1  0.80995100  0.94923600  0.13297800  1
  H  1699  1  0.78079200  0.01314700  0.17369300  1
  H  1700  1  0.77585500  0.98594500  0.14494100  1
  H  1705  1  0.19289600  0.21480300  0.36729700  1
  H  1706  1  0.22358700  0.19005500  0.36928700  1
  H  1709  1  0.22935400  0.15128100  0.40182600  1
  H  1710  1  0.20402900  0.13492300  0.42476000  1
  H  1711  1  0.26237200  0.19146900  0.41715400  1
  H  1712  1  0.25470000  0.21551000  0.44866000  1
  H  1715  1  0.18520400  0.17246500  0.47571500  1
  H  1716  1  0.20777100  0.20415600  0.48372000  1
  H  1718  1  0.13842800  0.19215300  0.41893400  1
  H  1719  1  0.15529400  0.21881900  0.40032800  1
  H  1721  1  0.21075700  0.25046900  0.45105000  1
  H  1722  1  0.18523600  0.25646100  0.42080800  1
  H  1727  1  0.69353100  0.07774300  0.09724910  1
  H  1728  1  0.71358200  0.11213500  0.09808710  1
  H  1731  1  0.71196200  0.14880200  0.06144110  1
  H  1732  1  0.68462100  0.15603100  0.03735910  1
  H  1733  1  0.75663000  0.12385400  0.05246810  1
  H  1734  1  0.76261900  0.09635600  0.02429310  1
  H  1737  1  0.69761800  0.10082300  0.97722300  1
  H  1738  1  0.72738100  0.08212400  0.98908700  1
  H  1740  1  0.64136900  0.08551800  0.03640710  1
  H  1741  1  0.65997100  0.06395900  0.06019010  1
  H  1743  1  0.73003300  0.04375100  0.02368810  1
  H  1744  1  0.70302800  0.03651100  0.05210010  1
  H  1749  1  0.54776900  0.08465000  0.84295700  1
  H  1750  1  0.58029100  0.06167900  0.84156700  1
  H  1753  1  0.61715100  0.06062500  0.87799500  1
  H  1754  1  0.62519800  0.08643100  0.90349000  1
  H  1755  1  0.58948800  0.01694100  0.88287700  1
  H  1756  1  0.56264400  0.01002700  0.91159000  1
  H  1759  1  0.56878100  0.07181000  0.96292300  1
  H  1760  1  0.54969800  0.04310800  0.94920200  1
  H  1762  1  0.55627300  0.13155600  0.90759300  1
  H  1763  1  0.53415600  0.11544600  0.88247200  1
  H  1765  1  0.51109700  0.04394400  0.91481000  1
  H  1766  1  0.50429000  0.07364500  0.88916700  1
  H  1771  1  0.04533200  0.70855100  0.06549510  1
  H  1772  1  0.07606700  0.73345600  0.07210910  1
  H  1775  1  0.11454000  0.74093400  0.03755210  1
  H  1776  1  0.12863800  0.71593800  0.01474610  1
  H  1777  1  0.08646300  0.78123300  0.02745310  1
  H  1778  1  0.05985200  0.78473100  0.99839100  1
  H  1781  1  0.06981400  0.71996700  0.95012100  1
  H  1782  1  0.05082700  0.75126300  0.96111400  1
  H  1784  1  0.07091800  0.67128600  0.99322400  1
  H  1785  1  0.04366200  0.67255200  0.02210210  1
  H  1787  1  0.00982600  0.74894400  0.99777000  1
  H  1788  1  0.00638300  0.71814000  0.02361910  1
  H  1793  1  0.42824700  0.97086600  0.84228100  1
  H  1794  1  0.45465500  0.94207700  0.83414300  1
  H  1797  1  0.45722400  0.91615600  0.78924300  1
  H  1798  1  0.42869300  0.90667600  0.76726400  1
  H  1799  1  0.49311700  0.95267900  0.77914400  1
  H  1800  1  0.48566200  0.98659800  0.75914400  1
  H  1803  1  0.40826300  0.97051600  0.72939500  1
  H  1804  1  0.43933200  0.99504200  0.73072100  1
  H  1806  1  0.37370800  0.96297300  0.77887500  1
  H  1807  1  0.38450800  0.98029800  0.81244200  1
  H  1809  1  0.44772500  0.02675400  0.77830300  1
  H  1810  1  0.42538300  0.02083100  0.81146800  1
  H  1815  1  0.92589200  0.82652600  0.08094410  1
  H  1816  1  0.95472900  0.85368800  0.08588610  1
  H  1819  1  0.96531300  0.87735400  0.13097400  1
  H  1820  1  0.94079200  0.88778600  0.15676800  1
  H  1821  1  0.00002500  0.83905700  0.13537100  1
  H  1822  1  0.99343300  0.80464900  0.15461200  1
  H  1825  1  0.92263300  0.82180100  0.19601400  1
  H  1826  1  0.95159900  0.79643700  0.18808300  1
  H  1828  1  0.88230900  0.83567400  0.15288200  1
  H  1829  1  0.88574700  0.81914600  0.11707800  1
  H  1831  1  0.95099900  0.76713100  0.13867100  1
  H  1832  1  0.92472700  0.77611000  0.10933800  1
  H  1837  1  0.93859000  0.33821900  0.58568700  1
  H  1838  1  0.90585800  0.31558500  0.58627100  1
  H  1841  1  0.86875300  0.31820100  0.62236800  1
  H  1842  1  0.86053000  0.34596500  0.64563900  1
  H  1843  1  0.89621800  0.27505400  0.63179600  1
  H  1844  1  0.92260600  0.27121900  0.66153600  1
  H  1847  1  0.91630800  0.33722600  0.70589000  1
  H  1848  1  0.93593600  0.30763800  0.69519100  1
  H  1850  1  0.92987500  0.39165300  0.64509900  1
  H  1851  1  0.95183800  0.37295400  0.62176200  1
  H  1853  1  0.97481400  0.30499000  0.66087500  1
  H  1854  1  0.98144000  0.33156300  0.63188800  1
  H  1859  1  0.05114900  0.21596300  0.58849600  1
  H  1860  1  0.02446300  0.18622700  0.58745700  1
  H  1863  1  0.02366700  0.14728500  0.54955200  1
  H  1864  1  0.04731200  0.14502900  0.51770800  1
  H  1865  1  0.97984500  0.18624300  0.54819800  1
  H  1866  1  0.97770800  0.21397000  0.51895200  1
  H  1869  1  0.04038700  0.18530400  0.47218400  1
  H  1870  1  0.01649500  0.21531800  0.47750600  1
  H  1872  1  0.10073000  0.20222500  0.52798300  1
  H  1873  1  0.08421000  0.22623200  0.55021600  1
  H  1875  1  0.01960800  0.25534900  0.51173400  1
  H  1876  1  0.04854500  0.26057700  0.53852100  1
  H  1881  1  0.53520000  0.58706800  0.33835700  1
  H  1882  1  0.57022400  0.56707100  0.34069400  1
  H  1885  1  0.61332200  0.58603900  0.37481600  1
  H  1886  1  0.61135900  0.62369900  0.38779000  1
  H  1887  1  0.58714200  0.54219100  0.39549000  1
  H  1888  1  0.56176600  0.54540700  0.42658400  1
  H  1891  1  0.56935100  0.62957400  0.44095500  1
  H  1892  1  0.55419800  0.59417200  0.45175900  1
  H  1894  1  0.55909500  0.65387100  0.38809700  1
  H  1895  1  0.52864000  0.63938300  0.36604000  1
  H  1897  1  0.50889800  0.57347100  0.42021200  1
  H  1898  1  0.49916700  0.59146000  0.38531900  1
  H  1903  1  0.44198600  0.46449200  0.35252500  1
  H  1904  1  0.46800100  0.43449400  0.34742500  1
  H  1907  1  0.46386200  0.39795500  0.30594800  1
  H  1908  1  0.43822900  0.40010900  0.27564000  1
  H  1909  1  0.50897600  0.43531400  0.30689500  1
  H  1910  1  0.51166900  0.46495100  0.27934500  1
  H  1913  1  0.44450500  0.44327100  0.23382400  1
  H  1914  1  0.47074300  0.47175000  0.23950800  1
  H  1916  1  0.38949500  0.45804900  0.29286400  1
  H  1917  1  0.40777400  0.47974100  0.31641700  1
  H  1919  1  0.47243000  0.50898300  0.27735900  1
  H  1920  1  0.44450100  0.51378400  0.30528800  1
  H  1926  1  0.12952600  0.01107200  0.42993400  1
  H  1927  1  0.17095500  0.01992600  0.46447100  1
  H  1934  1  0.62338900  0.20808400  0.95517100  1
  H  1935  1  0.58947000  0.19875900  0.99055100  1
  H  1942  1  0.15347100  0.61020800  0.98839100  1
  H  1943  1  0.11416100  0.61731900  0.95829400  1
  H  1950  1  0.62107900  0.70853000  0.46778000  1
  H  1951  1  0.61158000  0.70172900  0.41968900  1
  H  1958  1  0.11039900  0.12644800  0.44462000  1
  H  1959  1  0.15862100  0.14140500  0.44144700  1
  H  1966  1  0.58766600  0.65977100  0.58259800  1
  H  1967  1  0.63540200  0.63570300  0.59381200  1
  H  1974  1  0.63140300  0.17498800  0.91934400  1
  H  1975  1  0.60605900  0.13200800  0.91899700  1
  H  1982  1  0.16661200  0.65260000  0.01348410  1
  H  1983  1  0.11879800  0.66349500  0.00235813  1
  H  1990  1  0.99279400  0.13655300  0.41907500  1
  H  1991  1  0.98430200  0.17851400  0.45274400  1
  H  1998  1  0.27001400  0.64198700  0.02420110  1
  H  1999  1  0.27388000  0.67238400  0.97924100  1
  H  2006  1  0.51600200  0.64050900  0.51032500  1
  H  2007  1  0.50657900  0.60487100  0.46980200  1
  H  2014  1  0.66569600  0.18127800  0.95479800  1
  H  2015  1  0.67370600  0.14514600  0.98832600  1
  H  2022  1  0.80839000  0.40760600  0.72835100  1
  H  2023  1  0.81647100  0.44063500  0.69183100  1
  H  2030  1  0.92718400  0.91468800  0.22148900  1
  H  2031  1  0.92250700  0.86795400  0.20509100  1
  H  2038  1  0.24579900  0.45868200  0.26990600  1
  H  2039  1  0.23995700  0.42014800  0.30767900  1
  H  2046  1  0.40827000  0.87947100  0.69856300  1
  H  2047  1  0.40633500  0.92359800  0.72206300  1
  H  2054  1  0.84241200  0.40316300  0.76412700  1
  H  2055  1  0.88430600  0.43027400  0.76385600  1
  H  2062  1  0.36838700  0.86570100  0.66861300  1
  H  2063  1  0.35198400  0.91114100  0.68261000  1
  H  2070  1  0.89016000  0.91814400  0.25584700  1
  H  2071  1  0.87377100  0.87139700  0.24848100  1
  H  2078  1  0.34674600  0.40817800  0.19909700  1
  H  2079  1  0.39366900  0.39335600  0.19040000  1
  H  2086  1  0.83646700  0.36677600  0.72942900  1
  H  2087  1  0.87118500  0.35906300  0.69432000  1
  H  2094  1  0.34753000  0.44386900  0.23471400  1
  H  2095  1  0.39730500  0.44067600  0.23967600  1
  H  2102  1  0.36572100  0.76577900  0.64769400  1
  H  2103  1  0.33400200  0.75826400  0.69108600  1
  H  2110  1  0.88487200  0.02577500  0.27930100  1
  H  2111  1  0.84990900  0.04020900  0.24034700  1
  H  2118  1  0.85883400  0.46912100  0.69111800  1
  H  2119  1  0.89298500  0.46334700  0.72715600  1
  H  2126  1  0.38192400  0.35720800  0.22408200  1
  H  2127  1  0.33721700  0.35964400  0.24618700  1
  H  2134  1  0.36915000  0.86867300  0.75698400  1
  H  2135  1  0.37418100  0.91770800  0.76543500  1
  H  2142  1  0.85224700  0.43376300  0.65642700  1
  H  2143  1  0.87990300  0.39223000  0.65783600  1
  H  2150  1  0.49594000  0.40106200  0.17324300  1
  H  2151  1  0.50165800  0.43915500  0.21149400  1
  H  2158  1  0.33096800  0.86094600  0.72492900  1
  H  2159  1  0.32435100  0.91060400  0.72545800  1
  H  2166  1  0.75170000  0.63164900  0.44815900  1
  H  2167  1  0.73502100  0.65083100  0.39947600  1
  H  2174  1  0.56237100  0.15681200  0.99154600  1
  H  2175  1  0.57092000  0.12284400  0.95605100  1
  H  2182  1  0.15381500  0.68555600  0.83790800  1
  H  2183  1  0.10445500  0.66241400  0.83991900  1
  H  2190  1  0.59702700  0.16230800  0.02574510  1
  H  2191  1  0.63916200  0.13556100  0.02434110  1
  H  2198  1  0.15524100  0.67687800  0.95478700  1
  H  2199  1  0.10849800  0.69386700  0.96359200  1
  H  2206  1  0.63402800  0.64639300  0.48003400  1
  H  2207  1  0.61753500  0.63810300  0.43324300  1
  H  2214  1  0.66436800  0.63197300  0.32593700  1
  H  2215  1  0.62404400  0.59531000  0.32622600  1
  H  2222  1  0.14255600  0.13715200  0.51644200  1
  H  2223  1  0.09501500  0.15259600  0.51273200  1
  H  2230  1  0.02794700  0.68188300  0.88966400  1
  H  2231  1  0.02221900  0.72190700  0.92579800  1
  H  2238  1  0.25165300  0.13822500  0.54197500  1
  H  2239  1  0.25131700  0.17943100  0.50603700  1
  H  2246  1  0.84059000  0.88620900  0.21251600  1
  H  2247  1  0.84619800  0.93596800  0.21103600  1
  H  2254  1  0.92010000  0.42168300  0.72919900  1
  H  2255  1  0.91380500  0.38707700  0.69384400  1
  H  2262  1  0.81541200  0.78335500  0.17262000  1
  H  2263  1  0.85550800  0.78063100  0.13610900  1
  H  2270  1  0.30900300  0.01186600  0.76264900  1
  H  2271  1  0.35271700  0.01851000  0.79403500  1
  H  2278  1  0.34175000  0.39725400  0.28399000  1
  H  2279  1  0.39031600  0.40750900  0.27704200  1
  H  2286  1  0.88175500  0.93090000  0.17347500  1
  H  2287  1  0.88848000  0.88150700  0.16648600  1
  H  2294  1  0.13629900  0.17572700  0.47088400  1
  H  2295  1  0.08636900  0.18027100  0.47106700  1
  H  2302  1  0.64741300  0.10232400  0.98802700  1
  H  2303  1  0.61308300  0.09570200  0.95261000  1
  H  2310  1  0.06470400  0.02262300  0.33628600  1
  H  2311  1  0.03923800  0.98737700  0.30336000  1
  H  2318  1  0.66245300  0.30689300  0.84156200  1
  H  2319  1  0.69031100  0.34091500  0.80850500  1
  H  2326  1  0.19677700  0.49888800  0.08851310  1
  H  2327  1  0.22324100  0.46904200  0.12490000  1
  H  2334  1  0.55156600  0.80703900  0.56677400  1
  H  2335  1  0.51833700  0.83741600  0.59702500  1
  H  2342  1  0.32052200  0.71333100  0.81017400  1
  H  2343  1  0.29236500  0.68378600  0.84587800  1
  H  2350  1  0.81688500  0.55959400  0.57148900  1
  H  2351  1  0.78946800  0.59650500  0.54180900  1
  H  2358  1  0.41837300  0.26215900  0.10433200  1
  H  2359  1  0.44455800  0.22577700  0.07182010  1
  H  2366  1  0.06540600  0.51365100  0.84864300  1
  H  2367  1  0.03548000  0.48095200  0.81653100  1
  H  2374  1  0.70114800  0.80889800  0.34427000  1
  H  2375  1  0.74019900  0.83522800  0.31639200  1
  H  2382  1  0.18947900  0.98804100  0.59148300  1
  H  2383  1  0.21848600  0.96149800  0.62847000  1
  H  2390  1  0.30834800  0.27671200  0.37325300  1
  H  2391  1  0.28641500  0.23768400  0.40453500  1
  H  2398  1  0.80638100  0.08177100  0.13332300  1
  H  2399  1  0.76918300  0.10685200  0.10228900  1
  H  2406  1  0.54507100  0.98146600  0.86718400  1
  H  2407  1  0.50739200  0.95590800  0.83602300  1
  H  2414  1  0.04277600  0.81368300  0.04471110  1
  H  2415  1  0.00670200  0.83868700  0.07800910  1
  H  2422  1  0.94181000  0.23832300  0.62630100  1
  H  2423  1  0.97497700  0.20639500  0.59781100  1
  H  2430  1  0.56708400  0.51178200  0.35599900  1
  H  2431  1  0.54050000  0.47481300  0.32630900  1
  C  1  1  0.04138100  0.04849900  0.04634600  1
  C  2  1  0.05858900  0.02575000  0.06874800  1
  C  3  1  0.06467900  0.07347400  0.03306800  1
  C  4  1  0.07995600  0.09248500  0.05974800  1
  C  7  1  0.09590900  0.06766500  0.08074500  1
  C  8  1  0.07403100  0.04343700  0.09562800  1
  C  13  1  0.04794500  0.06237200  0.11284600  1
  C  14  1  0.02921800  0.08556400  0.09174500  1
  C  17  1  0.05301100  0.10857900  0.07748700  1
  C  20  1  0.01552900  0.06634800  0.06487900  1
  C  23  1  0.68687100  0.26403600  0.53856000  1
  C  24  1  0.66159200  0.27984200  0.56070200  1
  C  25  1  0.67073900  0.23908800  0.51625200  1
  C  26  1  0.65445800  0.21297200  0.53584100  1
  C  29  1  0.63075700  0.23373100  0.55461100  1
  C  30  1  0.64500900  0.25459900  0.58122600  1
  C  35  1  0.67408800  0.24180900  0.59948400  1
  C  36  1  0.69727500  0.22108100  0.58015500  1
  C  39  1  0.68376800  0.19984700  0.55352700  1
  C  42  1  0.71240300  0.24694600  0.55968600  1
  C  45  1  0.20779200  0.56145800  0.72821100  1
  C  46  1  0.18376500  0.54399300  0.70577200  1
  C  47  1  0.19350700  0.59280000  0.74222800  1
  C  48  1  0.18030800  0.61436800  0.71569900  1
  C  51  1  0.15572800  0.59143300  0.70208100  1
  C  52  1  0.17093100  0.56654700  0.68041900  1
  C  57  1  0.20152600  0.57514900  0.66262600  1
  C  58  1  0.22736600  0.59225800  0.68083800  1
  C  61  1  0.21127600  0.62068600  0.69648500  1
  C  64  1  0.23667200  0.57034300  0.70763400  1
  C  67  1  0.53716200  0.75412700  0.18939900  1
  C  68  1  0.55793000  0.77005600  0.16379900  1
  C  69  1  0.55808600  0.73845200  0.21505100  1
  C  70  1  0.58114600  0.71449900  0.20120100  1
  C  73  1  0.59943800  0.73302600  0.17631600  1
  C  74  1  0.58025800  0.74591500  0.14904500  1
  C  79  1  0.55853200  0.72070200  0.13529400  1
  C  80  1  0.53769300  0.70270900  0.15805300  1
  C  83  1  0.56066300  0.68935100  0.18357200  1
  C  86  1  0.51737200  0.72764300  0.17385900  1
  C  89  1  0.75615400  0.34488900  0.45865200  1
  C  90  1  0.73901500  0.36921900  0.43631700  1
  C  91  1  0.78074400  0.36311300  0.47978500  1
  C  92  1  0.80578900  0.37947900  0.45909800  1
  C  95  1  0.78393800  0.40191100  0.44012500  1
  C  96  1  0.76304700  0.38604100  0.41451500  1
  C  101  1  0.77623700  0.35668900  0.39688000  1
  C  102  1  0.79820900  0.33480400  0.41633900  1
  C  105  1  0.81953700  0.35012200  0.44192000  1
  C  108  1  0.77337300  0.31928800  0.43790900  1
  C  111  1  0.97641600  0.97000200  0.96280800  1
  C  112  1  0.99353600  0.94980900  0.93690300  1
  C  113  1  0.94915100  0.95111200  0.97983400  1
  C  114  1  0.92566500  0.93722700  0.95559800  1
  C  117  1  0.94916300  0.91663400  0.93694500  1
  C  118  1  0.96936300  0.93597700  0.91377300  1
  C  123  1  0.95414500  0.96600700  0.89934000  1
  C  124  1  0.93722700  0.98818600  0.92224700  1
  C  127  1  0.91295900  0.96789200  0.93968400  1
  C  130  1  0.96137400  0.99865400  0.94623500  1
  C  133  1  0.27075400  0.48618100  0.81910300  1
  C  134  1  0.24889500  0.46879900  0.84242200  1
  C  135  1  0.28820300  0.46060800  0.79874900  1
  C  136  1  0.31021900  0.44048800  0.81926400  1
  C  139  1  0.28713400  0.42502700  0.84318200  1
  C  140  1  0.26761700  0.44731600  0.86405100  1
  C  145  1  0.29152700  0.46821000  0.88115100  1
  C  146  1  0.31627300  0.48527100  0.85988700  1
  C  149  1  0.33166200  0.46660400  0.83252700  1
  C  152  1  0.29433300  0.50655600  0.83962400  1
  C  155  1  0.45465900  0.82516800  0.26417200  1
  C  156  1  0.47146500  0.84641100  0.28931300  1
  C  157  1  0.42525200  0.84215500  0.24891800  1
  C  158  1  0.40194500  0.85401200  0.27481800  1
  C  161  1  0.42492400  0.87637900  0.29220200  1
  C  162  1  0.44789500  0.85848900  0.31364600  1
  C  167  1  0.43497000  0.82819000  0.32907000  1
  C  168  1  0.41897300  0.80408300  0.30753200  1
  C  171  1  0.39273100  0.82164500  0.28996800  1
  C  174  1  0.44300200  0.79557500  0.28237700  1
  C  177  1  0.31525900  0.77779300  0.45485900  1
  C  178  1  0.33453100  0.76021700  0.42934300  1
  C  179  1  0.33916600  0.79972300  0.47261400  1
  C  180  1  0.35134100  0.82565300  0.45036800  1
  C  183  1  0.36839900  0.80675200  0.42411700  1
  C  184  1  0.34853000  0.78292500  0.40551400  1
  C  189  1  0.32092200  0.80156600  0.39170400  1
  C  190  1  0.30177500  0.82204200  0.41551900  1
  C  193  1  0.31970900  0.84093700  0.44108800  1
  C  196  1  0.28803300  0.79608500  0.43715800  1
  C  199  1  0.79365800  0.51931400  0.27110100  1
  C  200  1  0.81853700  0.53681500  0.29247100  1
  C  201  1  0.81059700  0.49368500  0.25015900  1
  C  202  1  0.82775100  0.46901500  0.27101600  1
  C  205  1  0.85073000  0.49140000  0.28882800  1
  C  206  1  0.83585500  0.51321400  0.31429400  1
  C  211  1  0.80709400  0.50046000  0.33305300  1
  C  212  1  0.78448100  0.47822400  0.31471900  1
  C  215  1  0.79889400  0.45596300  0.28944900  1
  C  218  1  0.76862900  0.50251300  0.29291900  1
  C  221  1  0.44556300  0.30423600  0.80092500  1
  C  222  1  0.42457700  0.28836400  0.82683200  1
  C  223  1  0.42732300  0.32980500  0.78091400  1
  C  224  1  0.41169500  0.35478600  0.80280800  1
  C  227  1  0.39037300  0.33201800  0.82177800  1
  C  228  1  0.40855300  0.31372200  0.84727100  1
  C  233  1  0.43667300  0.33145100  0.86234300  1
  C  234  1  0.46043500  0.34702400  0.84004000  1
  C  237  1  0.44189700  0.36909700  0.81841800  1
  C  240  1  0.47264400  0.32125500  0.81876700  1
  C  243  1  0.24537200  0.70311800  0.53968100  1
  C  244  1  0.26296100  0.68041000  0.56193600  1
  C  245  1  0.22512500  0.68414000  0.51606800  1
  C  246  1  0.20098400  0.66369000  0.53267200  1
  C  249  1  0.21930500  0.64209300  0.55589400  1
  C  250  1  0.24015200  0.65968400  0.58034600  1
  C  255  1  0.21826200  0.68155900  0.59890000  1
  C  256  1  0.19920300  0.70418900  0.57826800  1
  C  259  1  0.18124200  0.68580400  0.55281200  1
  C  262  1  0.22330200  0.72408100  0.56011600  1
  C  265  1  0.72447800  0.60840800  0.19872800  1
  C  266  1  0.74263500  0.62965400  0.17529700  1
  C  267  1  0.70811000  0.63005900  0.22322800  1
  C  268  1  0.68428300  0.65235200  0.20797500  1
  C  271  1  0.70293600  0.67178200  0.18278000  1
  C  272  1  0.72099600  0.65205800  0.15748800  1
  C  277  1  0.69629600  0.63178000  0.14154800  1
  C  278  1  0.67603900  0.61198400  0.16366100  1
  C  281  1  0.66142600  0.63131300  0.18995300  1
  C  284  1  0.69920800  0.58958000  0.18003100  1
  C  287  1  0.51052000  0.21921000  0.72193400  1
  C  288  1  0.49322300  0.19430500  0.70039900  1
  C  289  1  0.53602500  0.20163800  0.74264700  1
  C  290  1  0.56089700  0.18542500  0.72157800  1
  C  293  1  0.53888200  0.16241000  0.70355900  1
  C  294  1  0.51709800  0.17760600  0.67823100  1
  C  299  1  0.52930000  0.20695900  0.65987900  1
  C  300  1  0.55121200  0.22952400  0.67856700  1
  C  303  1  0.57354700  0.21484000  0.70365500  1
  C  306  1  0.52671000  0.24484300  0.70045200  1
  C  309  1  0.04651800  0.56760800  0.53324200  1
  C  310  1  0.06264200  0.55282300  0.56260500  1
  C  311  1  0.07158600  0.58198700  0.51095500  1
  C  312  1  0.09169700  0.60666200  0.52754900  1
  C  315  1  0.10538700  0.59018900  0.55636000  1
  C  316  1  0.08170100  0.57775800  0.58051100  1
  C  321  1  0.05774900  0.60297300  0.58967900  1
  C  322  1  0.04222900  0.62016200  0.56214500  1
  C  325  1  0.06901500  0.63233200  0.54031800  1
  C  328  1  0.02459300  0.59480700  0.54403400  1
  C  331  1  0.69069100  0.74415400  0.99982000  1
  C  332  1  0.66517500  0.76173400  0.01957800  1
  C  333  1  0.67461600  0.71820400  0.97959300  1
  C  334  1  0.65624600  0.69467800  0.99969900  1
  C  337  1  0.63293100  0.71512400  0.01789400  1
  C  338  1  0.64707500  0.73869300  0.04063600  1
  C  343  1  0.67241000  0.72351800  0.06122800  1
  C  344  1  0.69822900  0.70514900  0.04473600  1
  C  347  1  0.68035000  0.68056900  0.02395700  1
  C  350  1  0.71423700  0.72828900  0.02259500  1
  C  353  1  0.19641500  0.05117900  0.22932700  1
  C  354  1  0.17737800  0.03044900  0.20632700  1
  C  355  1  0.17485700  0.07812500  0.24137000  1
  C  356  1  0.16310500  0.09838800  0.21381900  1
  C  359  1  0.14535700  0.07565600  0.19212400  1
  C  360  1  0.16487700  0.04883500  0.17856000  1
  C  365  1  0.19318000  0.06451900  0.16190400  1
  C  366  1  0.21411500  0.08581100  0.18326400  1
  C  369  1  0.19289200  0.11096700  0.19790600  1
  C  372  1  0.22474600  0.06516200  0.21079700  1
  C  375  1  0.78202200  0.81078300  0.92991200  1
  C  376  1  0.76812100  0.83721800  0.90806900  1
  C  377  1  0.80747500  0.82278000  0.95424000  1
  C  378  1  0.83347600  0.84195300  0.93733300  1
  C  381  1  0.81229000  0.86755800  0.92240100  1
  C  382  1  0.79494500  0.85600500  0.89260800  1
  C  387  1  0.81197800  0.83078100  0.87228400  1
  C  388  1  0.82579800  0.80251100  0.88997200  1
  C  391  1  0.84775800  0.81635200  0.91515900  1
  C  394  1  0.79880600  0.78703200  0.90777400  1
  C  397  1  0.97132300  0.48792300  0.45757100  1
  C  398  1  0.98827300  0.46186200  0.43719900  1
  C  399  1  0.94556600  0.47195400  0.47898700  1
  C  400  1  0.92062700  0.45507300  0.45850200  1
  C  403  1  0.94223100  0.43094500  0.44141900  1
  C  404  1  0.96444000  0.44471500  0.41571700  1
  C  409  1  0.95262600  0.47322300  0.39591200  1
  C  410  1  0.93064000  0.49680200  0.41328500  1
  C  413  1  0.90822900  0.48369900  0.43918700  1
  C  416  1  0.95545500  0.51273600  0.43474000  1
  C  419  1  0.26593700  0.98414100  0.31895200  1
  C  420  1  0.25087600  0.95986100  0.34281800  1
  C  421  1  0.28890000  0.96913500  0.29400000  1
  C  422  1  0.31334700  0.94798100  0.31020700  1
  C  425  1  0.29097000  0.92512700  0.32744900  1
  C  426  1  0.27685200  0.93928200  0.35805900  1
  C  431  1  0.29591900  0.96488600  0.37636500  1
  C  432  1  0.31209400  0.98982900  0.35599200  1
  C  435  1  0.33161400  0.97131600  0.33166500  1
  C  438  1  0.28617100  0.00720100  0.33852500  1
  C  441  1  0.27834100  0.31742200  0.98944100  1
  C  442  1  0.29435800  0.29816200  0.96221000  1
  C  443  1  0.30139800  0.34093600  0.00649500  1
  C  444  1  0.31790400  0.36239500  0.98223100  1
  C  447  1  0.33401800  0.33709800  0.96166300  1
  C  448  1  0.31102100  0.32045300  0.93910100  1
  C  453  1  0.28335400  0.34057700  0.92634900  1
  C  454  1  0.26500600  0.36080000  0.95003600  1
  C  457  1  0.28953600  0.38045600  0.96777000  1
  C  460  1  0.25180700  0.33762400  0.97415900  1
  C  463  1  0.81672200  0.01692100  0.79219400  1
  C  464  1  0.83850500  0.03623800  0.81416600  1
  C  465  1  0.83888200  0.99573400  0.77130400  1
  C  466  1  0.85584600  0.97097400  0.79177600  1
  C  469  1  0.87556300  0.99183300  0.81434100  1
  C  470  1  0.85747800  0.01481900  0.83563900  1
  C  475  1  0.83345600  0.99481400  0.85364400  1
  C  476  1  0.81190400  0.97315300  0.83336400  1
  C  479  1  0.82700200  0.95426500  0.80619300  1
  C  482  1  0.79354100  0.99759800  0.81379800  1
  C  485  1  0.22254200  0.22258500  0.06465100  1
  C  486  1  0.24378800  0.20166000  0.08596100  1
  C  487  1  0.20606900  0.20097800  0.03895300  1
  C  488  1  0.18437700  0.17602000  0.05499400  1
  C  491  1  0.21083400  0.15778500  0.07295100  1
  C  492  1  0.22487500  0.17518400  0.10129700  1
  C  497  1  0.19788000  0.19097400  0.11998400  1
  C  498  1  0.17594900  0.21409800  0.10168800  1
  C  501  1  0.16195400  0.20017400  0.07129900  1
  C  504  1  0.19858300  0.23860800  0.08774100  1
  C  507  1  0.72899200  0.08055400  0.71522800  1
  C  508  1  0.74466900  0.10658600  0.69392700  1
  C  509  1  0.70331800  0.09547500  0.73754900  1
  C  510  1  0.67723400  0.11170300  0.71795300  1
  C  513  1  0.69777900  0.13621500  0.70003100  1
  C  514  1  0.71946300  0.12298400  0.67355700  1
  C  519  1  0.70758100  0.09418200  0.65433100  1
  C  520  1  0.68689400  0.07011700  0.67270400  1
  C  523  1  0.66493600  0.08268400  0.69925900  1
  C  526  1  0.71280100  0.05504900  0.69340300  1
  C  529  1  0.54753700  0.04658000  0.53360900  1
  C  530  1  0.57327100  0.02851300  0.55349700  1
  C  531  1  0.56421400  0.07250900  0.51288100  1
  C  532  1  0.58120300  0.09658900  0.53409400  1
  C  535  1  0.60499300  0.07425800  0.55066700  1
  C  536  1  0.59086700  0.05156700  0.57581100  1
  C  541  1  0.56228800  0.06316900  0.59571900  1
  C  542  1  0.53901300  0.08562700  0.57862700  1
  C  545  1  0.55259800  0.10872900  0.55360000  1
  C  548  1  0.52278400  0.06186000  0.55676300  1
  C  551  1  0.04646400  0.74889100  0.68845200  1
  C  552  1  0.07152300  0.76751400  0.66780600  1
  C  553  1  0.06246800  0.72279100  0.70904700  1
  C  554  1  0.08315600  0.70125600  0.68872800  1
  C  557  1  0.10599800  0.72554000  0.67466900  1
  C  558  1  0.09120700  0.74433100  0.64677900  1
  C  563  1  0.06324600  0.73172000  0.62638800  1
  C  564  1  0.04029700  0.71015100  0.64368500  1
  C  567  1  0.05965400  0.68697000  0.66431000  1
  C  570  1  0.02309500  0.73197100  0.66609200  1
  C  573  1  0.45915300  0.98332300  0.45831100  1
  C  574  1  0.47468900  0.96867800  0.42826100  1
  C  575  1  0.43968600  0.95905700  0.47848200  1
  C  576  1  0.41528900  0.94199900  0.45761100  1
  C  579  1  0.43769300  0.92736300  0.43303000  1
  C  580  1  0.44959200  0.95153500  0.40876200  1
  C  585  1  0.42650000  0.97825700  0.39974300  1
  C  586  1  0.40964200  0.99535900  0.42666800  1
  C  589  1  0.39399100  0.96984500  0.44684300  1
  C  592  1  0.43569600  0.00914900  0.44694600  1
  C  595  1  0.96155800  0.81119000  0.76998300  1
  C  596  1  0.98165600  0.82372200  0.79840200  1
  C  597  1  0.94064500  0.83705700  0.75364600  1
  C  598  1  0.92048200  0.85450200  0.77834900  1
  C  601  1  0.94689400  0.86687800  0.79999900  1
  C  602  1  0.96044300  0.84122400  0.82189100  1
  C  607  1  0.93773100  0.81468800  0.83283100  1
  C  608  1  0.91613100  0.80016500  0.80778100  1
  C  611  1  0.89934900  0.82776700  0.79166500  1
  C  614  1  0.93831900  0.78608500  0.78327200  1
  C  617  1  0.93843400  0.30377900  0.27966300  1
  C  618  1  0.91241700  0.28811600  0.30120300  1
  C  619  1  0.92184700  0.32785200  0.25659700  1
  C  620  1  0.90459800  0.35418600  0.27523800  1
  C  623  1  0.88082700  0.33333333  0.29379500  1
  C  624  1  0.89486200  0.31313300  0.32089900  1
  C  629  1  0.92325800  0.32663600  0.33968800  1
  C  630  1  0.94673300  0.34730700  0.32063000  1
  C  633  1  0.93333600  0.36796000  0.29343900  1
  C  636  1  0.96308800  0.32140000  0.30105100  1
  C  639  1  0.01591400  0.22264000  0.20684300  1
  C  640  1  0.99378000  0.20048900  0.18813100  1
  C  641  1  0.03787300  0.20153800  0.22796100  1
  C  642  1  0.05984400  0.18154100  0.20710700  1
  C  645  1  0.03616600  0.16149100  0.18811300  1
  C  646  1  0.01248000  0.17860500  0.16700600  1
  C  651  1  0.03200800  0.20010400  0.14549700  1
  C  652  1  0.05745900  0.22132900  0.16198700  1
  C  655  1  0.07724300  0.20798200  0.18942800  1
  C  658  1  0.03532800  0.24267300  0.18200600  1
  C  661  1  0.54236400  0.56411000  0.03854500  1
  C  662  1  0.57020100  0.55737400  0.06137600  1
  C  663  1  0.55441600  0.58169300  0.00896300  1
  C  664  1  0.57141200  0.61209500  0.01729300  1
  C  667  1  0.59765200  0.60298700  0.04004400  1
  C  668  1  0.58659300  0.58826800  0.07074100  1
  C  673  1  0.56113900  0.60774600  0.08697400  1
  C  674  1  0.53326200  0.61660200  0.06649000  1
  C  677  1  0.54751000  0.63262600  0.03646900  1
  C  680  1  0.51845200  0.58576300  0.05569100  1
  C  683  1  0.47565000  0.47322500  0.96967800  1
  C  684  1  0.49545700  0.45138700  0.94826600  1
  C  685  1  0.45404800  0.45124600  0.99010000  1
  C  686  1  0.43001500  0.43403400  0.96903900  1
  C  689  1  0.45126300  0.41434700  0.94677900  1
  C  690  1  0.47474200  0.43250800  0.92616100  1
  C  695  1  0.45528700  0.45638500  0.90736300  1
  C  696  1  0.43243500  0.47765400  0.92683400  1
  C  699  1  0.41329400  0.46256300  0.95397300  1
  C  702  1  0.45651900  0.49611200  0.94726200  1
  C  705  1  0.14319400  0.02940200  0.15873400  1
  C  706  1  0.14906300  0.02000900  0.12820400  1
  C  707  1  0.12434400  0.01437200  0.10786300  1
  C  708  1  0.09398300  0.02321300  0.11646900  1
  C  713  1  0.57298600  0.24399700  0.65405300  1
  C  714  1  0.59105600  0.22120200  0.63991600  1
  C  715  1  0.61227600  0.22702300  0.61778500  1
  C  716  1  0.61910200  0.25644300  0.60608000  1
  C  721  1  0.10061600  0.56989100  0.60885200  1
  C  722  1  0.11640700  0.59523200  0.62122600  1
  C  723  1  0.14170100  0.59060500  0.63879700  1
  C  724  1  0.14724500  0.56265300  0.65449400  1
  C  729  1  0.62188300  0.74872800  0.06282600  1
  C  730  1  0.61021000  0.72433800  0.08089500  1
  C  731  1  0.61828400  0.72862000  0.11122300  1
  C  732  1  0.60241000  0.75418200  0.12331100  1
  C  737  1  0.16076800  0.15006700  0.04823400  1
  C  738  1  0.14891700  0.13705500  0.07588300  1
  C  739  1  0.11856000  0.12920000  0.07801800  1
  C  740  1  0.10465200  0.11612400  0.05205000  1
  C  745  1  0.66367800  0.67106800  0.23037000  1
  C  746  1  0.63602500  0.65839000  0.24300900  1
  C  747  1  0.60734200  0.67248600  0.23614400  1
  C  748  1  0.60622900  0.70252500  0.22378400  1
  C  753  1  0.59996000  0.12609300  0.52611000  1
  C  754  1  0.61057600  0.14052500  0.55305100  1
  C  755  1  0.62626200  0.16750900  0.55331000  1
  C  756  1  0.63564100  0.18366500  0.52685400  1
  C  761  1  0.10434100  0.67613500  0.70239400  1
  C  762  1  0.12313900  0.66167900  0.68037800  1
  C  763  1  0.15383600  0.65682300  0.68765700  1
  C  764  1  0.16118900  0.64457700  0.71708500  1
  C  769  1  0.99334100  0.15424300  0.14938500  1
  C  770  1  0.98718200  0.15722900  0.11750700  1
  C  771  1  0.99261900  0.13227100  0.09742000  1
  C  772  1  0.00517400  0.10446700  0.10909400  1
  C  777  1  0.25611200  0.63870900  0.60374000  1
  C  778  1  0.26855700  0.64965600  0.63190900  1
  C  779  1  0.26670500  0.63138000  0.65875500  1
  C  780  1  0.25306400  0.60174800  0.65781800  1
  C  785  1  0.51306700  0.63637900  0.08809800  1
  C  786  1  0.50747500  0.62765700  0.11938000  1
  C  787  1  0.51356800  0.64868000  0.14368700  1
  C  788  1  0.51917600  0.68007000  0.13746900  1
  C  793  1  0.72197500  0.14960900  0.64973000  1
  C  794  1  0.69294500  0.15656700  0.63722900  1
  C  795  1  0.68791000  0.17918000  0.61634200  1
  C  796  1  0.71107400  0.19809900  0.60396800  1
  C  801  1  0.77078500  0.45640400  0.33965100  1
  C  802  1  0.79412000  0.43868800  0.35336500  1
  C  803  1  0.78909800  0.41803800  0.37621300  1
  C  804  1  0.76009100  0.41111300  0.38887400  1
  C  809  1  0.97004100  0.85939700  0.85064500  1
  C  810  1  0.94467900  0.87345400  0.86546500  1
  C  811  1  0.94758800  0.90409900  0.87261500  1
  C  812  1  0.97506500  0.91352000  0.88711200  1
  C  817  1  0.24195600  0.38192900  0.93254300  1
  C  818  1  0.23865100  0.41349600  0.94044700  1
  C  819  1  0.24266400  0.43659500  0.91786900  1
  C  820  1  0.24753000  0.42870400  0.88658400  1
  C  825  1  0.45480700  0.93239200  0.37973600  1
  C  826  1  0.42753000  0.91868000  0.36854100  1
  C  827  1  0.42913000  0.88961800  0.35671200  1
  C  828  1  0.45529400  0.88089600  0.33965100  1
  C  833  1  0.89120600  0.43637200  0.46706100  1
  C  834  1  0.87614500  0.42584300  0.44040800  1
  C  835  1  0.84989800  0.40896200  0.44056200  1
  C  836  1  0.83456400  0.39928600  0.46737100  1
  C  841  1  0.33696700  0.92692900  0.29403200  1
  C  842  1  0.35323200  0.90805300  0.31472600  1
  C  843  1  0.36089000  0.87859700  0.30584500  1
  C  844  1  0.37222500  0.87391100  0.27551900  1
  C  849  1  0.86078300  0.86116200  0.94996700  1
  C  850  1  0.87709400  0.87648000  0.92630600  1
  C  851  1  0.88460000  0.90695200  0.93083400  1
  C  852  1  0.89777000  0.91532200  0.95938300  1
  C  857  1  0.38947200  0.38229200  0.79783900  1
  C  858  1  0.38170100  0.39707000  0.82593100  1
  C  859  1  0.35131100  0.40366200  0.83190900  1
  C  860  1  0.33290600  0.41554200  0.80803200  1
  C  865  1  0.86849400  0.31049500  0.34511400  1
  C  866  1  0.86052300  0.33966500  0.35669100  1
  C  867  1  0.83887500  0.34449400  0.37867900  1
  C  868  1  0.82113000  0.32109900  0.39232400  1
  C  873  1  0.40656900  0.48795500  0.90438900  1
  C  874  1  0.38977800  0.46266000  0.89259400  1
  C  875  1  0.35813200  0.46458400  0.89220800  1
  C  876  1  0.34444100  0.49188800  0.88095500  1
  C  881  1  0.36808600  0.76771700  0.38010900  1
  C  882  1  0.35696000  0.76141500  0.35006000  1
  C  883  1  0.37602700  0.76567100  0.32405000  1
  C  884  1  0.40642200  0.77721800  0.32733000  1
  C  889  1  0.87974200  0.03138200  0.85786200  1
  C  890  1  0.87216400  0.03623900  0.88926600  1
  C  891  1  0.89297600  0.02737000  0.91258000  1
  C  892  1  0.92212700  0.01500700  0.90482100  1
  C  897  1  0.90847500  0.50925200  0.38774100  1
  C  898  1  0.89080400  0.48523600  0.37507500  1
  C  899  1  0.86940600  0.48887700  0.35255400  1
  C  900  1  0.86170200  0.51730000  0.33905100  1
  C  905  1  0.33134500  0.31176300  0.91148600  1
  C  906  1  0.34374000  0.33772800  0.89631700  1
  C  907  1  0.37311000  0.33638800  0.88511500  1
  C  908  1  0.38476000  0.30864700  0.87296400  1
  C  913  1  0.39395600  0.91488500  0.46569600  1
  C  914  1  0.37609800  0.90500000  0.44026700  1
  C  915  1  0.37591200  0.87397500  0.43393800  1
  C  916  1  0.37200700  0.85323700  0.45859400  1
  C  921  1  0.88537300  0.38315900  0.26552800  1
  C  922  1  0.87501900  0.39939200  0.29158900  1
  C  923  1  0.85771500  0.42543200  0.29068800  1
  C  924  1  0.84751900  0.43978500  0.26349200  1
  C  929  1  0.49230400  0.41013900  0.90499300  1
  C  930  1  0.49918700  0.41690900  0.87381200  1
  C  931  1  0.49585500  0.39408900  0.85091600  1
  C  932  1  0.48530800  0.36417400  0.85868900  1
  C  937  1  0.27527700  0.91081700  0.37936400  1
  C  938  1  0.30483200  0.89865500  0.38555100  1
  C  939  1  0.30858900  0.86732800  0.38218400  1
  C  940  1  0.28660800  0.84813500  0.39660600  1
  C  945  1  0.71977600  0.69406200  0.07096400  1
  C  946  1  0.73405800  0.66499800  0.07343900  1
  C  947  1  0.74455700  0.65401400  0.10241300  1
  C  948  1  0.73598400  0.66934400  0.13029500  1
  C  953  1  0.52533800  0.10663300  0.60415200  1
  C  954  1  0.54862000  0.12432300  0.61791600  1
  C  955  1  0.54328500  0.14563600  0.64004000  1
  C  956  1  0.51428000  0.15219900  0.65291800  1
  C  961  1  0.11963600  0.61808900  0.50877400  1
  C  962  1  0.12325900  0.64878500  0.49862900  1
  C  963  1  0.15275200  0.66249500  0.49747500  1
  C  964  1  0.17838900  0.64717900  0.51098500  1
  C  969  1  0.64763600  0.12985400  0.72732100  1
  C  970  1  0.63152000  0.13991400  0.70110000  1
  C  971  1  0.60509900  0.15657000  0.70195900  1
  C  972  1  0.59033900  0.16617200  0.72913200  1
  C  977  1  0.11836000  0.74191300  0.62359800  1
  C  978  1  0.12373500  0.71095700  0.61425100  1
  C  979  1  0.15301700  0.70025900  0.61026100  1
  C  980  1  0.17488500  0.72032300  0.59771400  1
  C  985  1  0.61354000  0.58888400  0.09256700  1
  C  986  1  0.62437700  0.61862900  0.09972500  1
  C  987  1  0.63244200  0.62365100  0.12960600  1
  C  988  1  0.65007000  0.60036900  0.14380700  1
  C  993  1  0.58792100  0.62740400  0.98976500  1
  C  994  1  0.61789800  0.61792600  0.98000400  1
  C  995  1  0.64221400  0.63965900  0.97978300  1
  C  996  1  0.63586200  0.67144900  0.98161000  1
  C  1001  1  0.08538700  0.15878200  0.21577000  1
  C  1002  1  0.10158500  0.14768400  0.18982200  1
  C  1003  1  0.13193700  0.14020200  0.19237300  1
  C  1004  1  0.14078700  0.12470100  0.21933600  1
  C  1009  1  0.01924000  0.69311100  0.62066300  1
  C  1010  1  0.01834100  0.70002600  0.58862900  1
  C  1011  1  0.02174200  0.67618400  0.56682700  1
  C  1012  1  0.02131800  0.64508000  0.57623400  1
  C  1017  1  0.24253100  0.15208500  0.12188100  1
  C  1018  1  0.25008100  0.15745200  0.15309100  1
  C  1019  1  0.25039800  0.13275700  0.17442400  1
  C  1020  1  0.23964200  0.10305600  0.16543700  1
  C  1025  1  0.79980800  0.94764600  0.85471100  1
  C  1026  1  0.82377100  0.92941500  0.86714700  1
  C  1027  1  0.82061500  0.89798100  0.86480300  1
  C  1028  1  0.79190700  0.88523000  0.87298000  1
  C  1033  1  0.95957000  0.37063500  0.34462700  1
  C  1034  1  0.93582500  0.38936200  0.35614600  1
  C  1035  1  0.93972800  0.41086500  0.37838000  1
  C  1036  1  0.96822300  0.41820600  0.39186200  1
  C  1041  1  0.89245100  0.77834200  0.82326000  1
  C  1042  1  0.86113700  0.77718100  0.81388800  1
  C  1043  1  0.83709400  0.77906800  0.83576600  1
  C  1044  1  0.84370200  0.78137600  0.86765700  1
  C  1049  1  0.38569100  0.01818400  0.41324600  1
  C  1050  1  0.35570700  0.02037200  0.42606600  1
  C  1051  1  0.32955500  0.01583500  0.40729800  1
  C  1052  1  0.33277200  0.01117200  0.37515600  1
  C  1057  1  0.40347800  0.41289000  0.97925900  1
  C  1058  1  0.38465500  0.40342500  0.95456600  1
  C  1059  1  0.35364600  0.39991600  0.95926200  1
  C  1060  1  0.34388900  0.38599900  0.98703200  1
  C  1065  1  0.89973300  0.88289700  0.77389200  1
  C  1066  1  0.88686200  0.89366500  0.80175700  1
  C  1067  1  0.88568300  0.92491300  0.80644600  1
  C  1068  1  0.87664100  0.94403700  0.78171400  1
  C  1073  1  0.08328600  0.22812400  0.13813300  1
  C  1074  1  0.09699100  0.20095300  0.12613000  1
  C  1075  1  0.12860800  0.19754900  0.12846100  1
  C  1076  1  0.14744200  0.22280000  0.12111800  1
  C  1081  1  0.61725700  0.04772800  0.59998500  1
  C  1082  1  0.62425100  0.07620900  0.61373100  1
  C  1083  1  0.64569400  0.08035300  0.63598600  1
  C  1084  1  0.66446400  0.05685500  0.64792800  1
  C  1089  1  0.99820900  0.98392500  0.98551100  1
  C  1090  1  0.02815700  0.99432700  0.97804800  1
  C  1091  1  0.04288600  0.01593100  0.99694000  1
  C  1092  1  0.02707600  0.02836700  0.02241900  1
  C  1097  1  0.73482500  0.32770000  0.47962600  1
  C  1098  1  0.70230600  0.32756000  0.47884700  1
  C  1099  1  0.68588500  0.30758000  0.49830900  1
  C  1100  1  0.70191100  0.28802400  0.51877100  1
  C  1105  1  0.25129000  0.50525500  0.79770100  1
  C  1106  1  0.22816100  0.49197000  0.77908000  1
  C  1107  1  0.21239300  0.50978500  0.75741800  1
  C  1108  1  0.21962300  0.54126300  0.75382300  1
  C  1113  1  0.47678800  0.81397500  0.23994100  1
  C  1114  1  0.50861000  0.82092100  0.23878200  1
  C  1115  1  0.52846300  0.80289700  0.22092400  1
  C  1116  1  0.51670300  0.77772800  0.20416900  1
  C  1121  1  0.26789500  0.72139900  0.52095900  1
  C  1122  1  0.28957500  0.70710100  0.50138400  1
  C  1123  1  0.30596200  0.72459800  0.47994100  1
  C  1124  1  0.30106500  0.75666200  0.47815100  1
  C  1129  1  0.74508100  0.58609600  0.21544700  1
  C  1130  1  0.77734000  0.58308300  0.21197700  1
  C  1131  1  0.79361700  0.56131100  0.22947600  1
  C  1132  1  0.77786400  0.54248300  0.25075000  1
  C  1137  1  0.48962200  0.23683800  0.74295500  1
  C  1138  1  0.45713900  0.23887000  0.74192300  1
  C  1139  1  0.44177000  0.26036800  0.76076900  1
  C  1140  1  0.45890700  0.27979600  0.78043300  1
  C  1145  1  0.99305200  0.50488700  0.47835300  1
  C  1146  1  0.02472700  0.49874600  0.48261400  1
  C  1147  1  0.04241700  0.51793000  0.50163500  1
  C  1148  1  0.02864800  0.54363000  0.51597000  1
  C  1153  1  0.75602100  0.79598400  0.94704600  1
  C  1154  1  0.73691900  0.81230200  0.96766200  1
  C  1155  1  0.71374300  0.79677700  0.98390900  1
  C  1156  1  0.70959700  0.76481200  0.97959500  1
  C  1161  1  0.24168700  0.00089900  0.30119800  1
  C  1162  1  0.22023500  0.98491100  0.28291700  1
  C  1163  1  0.20346900  0.00077000  0.26055900  1
  C  1164  1  0.20829400  0.03268400  0.25602400  1
  C  1169  1  0.23973100  0.24752500  0.04806900  1
  C  1170  1  0.27197000  0.25168300  0.04774100  1
  C  1171  1  0.28494600  0.27492600  0.02952100  1
  C  1172  1  0.26580800  0.29450500  0.01198600  1
  C  1177  1  0.75351500  0.06636300  0.73480500  1
  C  1178  1  0.77187900  0.08362500  0.75532000  1
  C  1179  1  0.79386000  0.06878100  0.77360300  1
  C  1180  1  0.79718100  0.03649900  0.77172500  1
  C  1185  1  0.48438400  0.99683500  0.47727300  1
  C  1186  1  0.50720400  0.97936500  0.49253400  1
  C  1187  1  0.52949800  0.99435000  0.51052300  1
  C  1188  1  0.52908400  0.02676000  0.51251800  1
  C  1193  1  0.98380100  0.79774000  0.74735800  1
  C  1194  1  0.00586000  0.81531300  0.73107500  1
  C  1195  1  0.02731800  0.80062400  0.71183300  1
  C  1196  1  0.02690800  0.76826600  0.70926100  1
  C  1201  1  0.99594100  0.24230100  0.22705100  1
  C  1202  1  0.97582600  0.22953800  0.24918200  1
  C  1203  1  0.95597000  0.24852300  0.26593200  1
  C  1204  1  0.95643200  0.28067800  0.26124400  1
  C  1209  1  0.49535600  0.49197300  0.99101300  1
  C  1210  1  0.52777200  0.49031800  0.99369300  1
  C  1211  1  0.54360200  0.51184000  0.01173300  1
  C  1212  1  0.52717400  0.53520000  0.02720000  1
  C  1217  1  0.04138100  0.04849900  0.39109500  1
  C  1218  1  0.05858900  0.02575000  0.41349700  1
  C  1219  1  0.06467900  0.07347400  0.37781700  1
  C  1220  1  0.07995600  0.09248500  0.40449700  1
  C  1223  1  0.09590900  0.06766500  0.42549400  1
  C  1224  1  0.07403100  0.04343700  0.44037700  1
  C  1229  1  0.04794500  0.06237200  0.45759500  1
  C  1230  1  0.02921800  0.08556400  0.43649400  1
  C  1233  1  0.05301100  0.10857900  0.42223600  1
  C  1236  1  0.01552900  0.06634800  0.40962800  1
  C  1239  1  0.68687100  0.26403600  0.88330900  1
  C  1240  1  0.66159200  0.27984200  0.90545100  1
  C  1241  1  0.67073900  0.23908800  0.86100100  1
  C  1242  1  0.65445800  0.21297200  0.88059000  1
  C  1245  1  0.63075700  0.23373100  0.89936000  1
  C  1246  1  0.64500900  0.25459900  0.92597500  1
  C  1251  1  0.67408800  0.24180900  0.94423300  1
  C  1252  1  0.69727500  0.22108100  0.92490400  1
  C  1255  1  0.68376800  0.19984700  0.89827600  1
  C  1258  1  0.71240300  0.24694600  0.90443500  1
  C  1261  1  0.20779200  0.56145800  0.07296010  1
  C  1262  1  0.18376500  0.54399300  0.05052110  1
  C  1263  1  0.19350700  0.59280000  0.08697710  1
  C  1264  1  0.18030800  0.61436800  0.06044810  1
  C  1267  1  0.15572800  0.59143300  0.04683010  1
  C  1268  1  0.17093100  0.56654700  0.02516810  1
  C  1273  1  0.20152600  0.57514900  0.00737513  1
  C  1274  1  0.22736600  0.59225800  0.02558710  1
  C  1277  1  0.21127600  0.62068600  0.04123410  1
  C  1280  1  0.23667200  0.57034300  0.05238310  1
  C  1283  1  0.53716200  0.75412700  0.53414800  1
  C  1284  1  0.55793000  0.77005600  0.50854800  1
  C  1285  1  0.55808600  0.73845200  0.55980000  1
  C  1286  1  0.58114600  0.71449900  0.54595000  1
  C  1289  1  0.59943800  0.73302600  0.52106500  1
  C  1290  1  0.58025800  0.74591500  0.49379400  1
  C  1295  1  0.55853200  0.72070200  0.48004300  1
  C  1296  1  0.53769300  0.70270900  0.50280200  1
  C  1299  1  0.56066300  0.68935100  0.52832100  1
  C  1302  1  0.51737200  0.72764300  0.51860800  1
  C  1305  1  0.75615400  0.34488900  0.80340100  1
  C  1306  1  0.73901500  0.36921900  0.78106600  1
  C  1307  1  0.78074400  0.36311300  0.82453400  1
  C  1308  1  0.80578900  0.37947900  0.80384700  1
  C  1311  1  0.78393800  0.40191100  0.78487400  1
  C  1312  1  0.76304700  0.38604100  0.75926400  1
  C  1317  1  0.77623700  0.35668900  0.74162900  1
  C  1318  1  0.79820900  0.33480400  0.76108800  1
  C  1321  1  0.81953700  0.35012200  0.78666900  1
  C  1324  1  0.77337300  0.31928800  0.78265800  1
  C  1327  1  0.97641600  0.97000200  0.30755700  1
  C  1328  1  0.99353600  0.94980900  0.28165200  1
  C  1329  1  0.94915100  0.95111200  0.32458300  1
  C  1330  1  0.92566500  0.93722700  0.30034700  1
  C  1333  1  0.94916300  0.91663400  0.28169400  1
  C  1334  1  0.96936300  0.93597700  0.25852200  1
  C  1339  1  0.95414500  0.96600700  0.24408900  1
  C  1340  1  0.93722700  0.98818600  0.26699600  1
  C  1343  1  0.91295900  0.96789200  0.28443300  1
  C  1346  1  0.96137400  0.99865400  0.29098400  1
  C  1349  1  0.27075400  0.48618100  0.16385200  1
  C  1350  1  0.24889500  0.46879900  0.18717100  1
  C  1351  1  0.28820300  0.46060800  0.14349800  1
  C  1352  1  0.31021900  0.44048800  0.16401300  1
  C  1355  1  0.28713400  0.42502700  0.18793100  1
  C  1356  1  0.26761700  0.44731600  0.20880000  1
  C  1361  1  0.29152700  0.46821000  0.22590000  1
  C  1362  1  0.31627300  0.48527100  0.20463600  1
  C  1365  1  0.33166200  0.46660400  0.17727600  1
  C  1368  1  0.29433300  0.50655600  0.18437300  1
  C  1371  1  0.45465900  0.82516800  0.60892100  1
  C  1372  1  0.47146500  0.84641100  0.63406200  1
  C  1373  1  0.42525200  0.84215500  0.59366700  1
  C  1374  1  0.40194500  0.85401200  0.61956700  1
  C  1377  1  0.42492400  0.87637900  0.63695100  1
  C  1378  1  0.44789500  0.85848900  0.65839500  1
  C  1383  1  0.43497000  0.82819000  0.67381900  1
  C  1384  1  0.41897300  0.80408300  0.65228100  1
  C  1387  1  0.39273100  0.82164500  0.63471700  1
  C  1390  1  0.44300200  0.79557500  0.62712600  1
  C  1393  1  0.31525900  0.77779300  0.79960800  1
  C  1394  1  0.33453100  0.76021700  0.77409200  1
  C  1395  1  0.33916600  0.79972300  0.81736300  1
  C  1396  1  0.35134100  0.82565300  0.79511700  1
  C  1399  1  0.36839900  0.80675200  0.76886600  1
  C  1400  1  0.34853000  0.78292500  0.75026300  1
  C  1405  1  0.32092200  0.80156600  0.73645300  1
  C  1406  1  0.30177500  0.82204200  0.76026800  1
  C  1409  1  0.31970900  0.84093700  0.78583700  1
  C  1412  1  0.28803300  0.79608500  0.78190700  1
  C  1415  1  0.79365800  0.51931400  0.61585000  1
  C  1416  1  0.81853700  0.53681500  0.63722000  1
  C  1417  1  0.81059700  0.49368500  0.59490800  1
  C  1418  1  0.82775100  0.46901500  0.61576500  1
  C  1421  1  0.85073000  0.49140000  0.63357700  1
  C  1422  1  0.83585500  0.51321400  0.65904300  1
  C  1427  1  0.80709400  0.50046000  0.67780200  1
  C  1428  1  0.78448100  0.47822400  0.65946800  1
  C  1431  1  0.79889400  0.45596300  0.63419800  1
  C  1434  1  0.76862900  0.50251300  0.63766800  1
  C  1437  1  0.44556300  0.30423600  0.14567400  1
  C  1438  1  0.42457700  0.28836400  0.17158100  1
  C  1439  1  0.42732300  0.32980500  0.12566300  1
  C  1440  1  0.41169500  0.35478600  0.14755700  1
  C  1443  1  0.39037300  0.33201800  0.16652700  1
  C  1444  1  0.40855300  0.31372200  0.19202000  1
  C  1449  1  0.43667300  0.33145100  0.20709200  1
  C  1450  1  0.46043500  0.34702400  0.18478900  1
  C  1453  1  0.44189700  0.36909700  0.16316700  1
  C  1456  1  0.47264400  0.32125500  0.16351600  1
  C  1459  1  0.24537200  0.70311800  0.88443000  1
  C  1460  1  0.26296100  0.68041000  0.90668500  1
  C  1461  1  0.22512500  0.68414000  0.86081700  1
  C  1462  1  0.20098400  0.66369000  0.87742100  1
  C  1465  1  0.21930500  0.64209300  0.90064300  1
  C  1466  1  0.24015200  0.65968400  0.92509500  1
  C  1471  1  0.21826200  0.68155900  0.94364900  1
  C  1472  1  0.19920300  0.70418900  0.92301700  1
  C  1475  1  0.18124200  0.68580400  0.89756100  1
  C  1478  1  0.22330200  0.72408100  0.90486500  1
  C  1481  1  0.72447800  0.60840800  0.54347700  1
  C  1482  1  0.74263500  0.62965400  0.52004600  1
  C  1483  1  0.70811000  0.63005900  0.56797700  1
  C  1484  1  0.68428300  0.65235200  0.55272400  1
  C  1487  1  0.70293600  0.67178200  0.52752900  1
  C  1488  1  0.72099600  0.65205800  0.50223700  1
  C  1493  1  0.69629600  0.63178000  0.48629700  1
  C  1494  1  0.67603900  0.61198400  0.50841000  1
  C  1497  1  0.66142600  0.63131300  0.53470200  1
  C  1500  1  0.69920800  0.58958000  0.52478000  1
  C  1503  1  0.51052000  0.21921000  0.06668310  1
  C  1504  1  0.49322300  0.19430500  0.04514810  1
  C  1505  1  0.53602500  0.20163800  0.08739610  1
  C  1506  1  0.56089700  0.18542500  0.06632710  1
  C  1509  1  0.53888200  0.16241000  0.04830810  1
  C  1510  1  0.51709800  0.17760600  0.02298010  1
  C  1515  1  0.52930000  0.20695900  0.00462813  1
  C  1516  1  0.55121200  0.22952400  0.02331610  1
  C  1519  1  0.57354700  0.21484000  0.04840410  1
  C  1522  1  0.52671000  0.24484300  0.04520110  1
  C  1525  1  0.04651800  0.56760800  0.87799100  1
  C  1526  1  0.06264200  0.55282300  0.90735400  1
  C  1527  1  0.07158600  0.58198700  0.85570400  1
  C  1528  1  0.09169700  0.60666200  0.87229800  1
  C  1531  1  0.10538700  0.59018900  0.90110900  1
  C  1532  1  0.08170100  0.57775800  0.92526000  1
  C  1537  1  0.05774900  0.60297300  0.93442800  1
  C  1538  1  0.04222900  0.62016200  0.90689400  1
  C  1541  1  0.06901500  0.63233200  0.88506700  1
  C  1544  1  0.02459300  0.59480700  0.88878300  1
  C  1547  1  0.69069100  0.74415400  0.34456900  1
  C  1548  1  0.66517500  0.76173400  0.36432700  1
  C  1549  1  0.67461600  0.71820400  0.32434200  1
  C  1550  1  0.65624600  0.69467800  0.34444800  1
  C  1553  1  0.63293100  0.71512400  0.36264300  1
  C  1554  1  0.64707500  0.73869300  0.38538500  1
  C  1559  1  0.67241000  0.72351800  0.40597700  1
  C  1560  1  0.69822900  0.70514900  0.38948500  1
  C  1563  1  0.68035000  0.68056900  0.36870600  1
  C  1566  1  0.71423700  0.72828900  0.36734400  1
  C  1569  1  0.19641500  0.05117900  0.57407600  1
  C  1570  1  0.17737800  0.03044900  0.55107600  1
  C  1571  1  0.17485700  0.07812500  0.58611900  1
  C  1572  1  0.16310500  0.09838800  0.55856800  1
  C  1575  1  0.14535700  0.07565600  0.53687300  1
  C  1576  1  0.16487700  0.04883500  0.52330900  1
  C  1581  1  0.19318000  0.06451900  0.50665300  1
  C  1582  1  0.21411500  0.08581100  0.52801300  1
  C  1585  1  0.19289200  0.11096700  0.54265500  1
  C  1588  1  0.22474600  0.06516200  0.55554600  1
  C  1591  1  0.78202200  0.81078300  0.27466100  1
  C  1592  1  0.76812100  0.83721800  0.25281800  1
  C  1593  1  0.80747500  0.82278000  0.29898900  1
  C  1594  1  0.83347600  0.84195300  0.28208200  1
  C  1597  1  0.81229000  0.86755800  0.26715000  1
  C  1598  1  0.79494500  0.85600500  0.23735700  1
  C  1603  1  0.81197800  0.83078100  0.21703300  1
  C  1604  1  0.82579800  0.80251100  0.23472100  1
  C  1607  1  0.84775800  0.81635200  0.25990800  1
  C  1610  1  0.79880600  0.78703200  0.25252300  1
  C  1613  1  0.97132300  0.48792300  0.80232000  1
  C  1614  1  0.98827300  0.46186200  0.78194800  1
  C  1615  1  0.94556600  0.47195400  0.82373600  1
  C  1616  1  0.92062700  0.45507300  0.80325100  1
  C  1619  1  0.94223100  0.43094500  0.78616800  1
  C  1620  1  0.96444000  0.44471500  0.76046600  1
  C  1625  1  0.95262600  0.47322300  0.74066100  1
  C  1626  1  0.93064000  0.49680200  0.75803400  1
  C  1629  1  0.90822900  0.48369900  0.78393600  1
  C  1632  1  0.95545500  0.51273600  0.77948900  1
  C  1635  1  0.26593700  0.98414100  0.66370100  1
  C  1636  1  0.25087600  0.95986100  0.68756700  1
  C  1637  1  0.28890000  0.96913500  0.63874900  1
  C  1638  1  0.31334700  0.94798100  0.65495600  1
  C  1641  1  0.29097000  0.92512700  0.67219800  1
  C  1642  1  0.27685200  0.93928200  0.70280800  1
  C  1647  1  0.29591900  0.96488600  0.72111400  1
  C  1648  1  0.31209400  0.98982900  0.70074100  1
  C  1651  1  0.33161400  0.97131600  0.67641400  1
  C  1654  1  0.28617100  0.00720100  0.68327400  1
  C  1657  1  0.27834100  0.31742200  0.33419000  1
  C  1658  1  0.29435800  0.29816200  0.30695900  1
  C  1659  1  0.30139800  0.34093600  0.35124400  1
  C  1660  1  0.31790400  0.36239500  0.32698000  1
  C  1663  1  0.33401800  0.33709800  0.30641200  1
  C  1664  1  0.31102100  0.32045300  0.28385000  1
  C  1669  1  0.28335400  0.34057700  0.27109800  1
  C  1670  1  0.26500600  0.36080000  0.29478500  1
  C  1673  1  0.28953600  0.38045600  0.31251900  1
  C  1676  1  0.25180700  0.33762400  0.31890800  1
  C  1679  1  0.81672200  0.01692100  0.13694300  1
  C  1680  1  0.83850500  0.03623800  0.15891500  1
  C  1681  1  0.83888200  0.99573400  0.11605300  1
  C  1682  1  0.85584600  0.97097400  0.13652500  1
  C  1685  1  0.87556300  0.99183300  0.15909000  1
  C  1686  1  0.85747800  0.01481900  0.18038800  1
  C  1691  1  0.83345600  0.99481400  0.19839300  1
  C  1692  1  0.81190400  0.97315300  0.17811300  1
  C  1695  1  0.82700200  0.95426500  0.15094200  1
  C  1698  1  0.79354100  0.99759800  0.15854700  1
  C  1701  1  0.22254200  0.22258500  0.40940000  1
  C  1702  1  0.24378800  0.20166000  0.43071000  1
  C  1703  1  0.20606900  0.20097800  0.38370200  1
  C  1704  1  0.18437700  0.17602000  0.39974300  1
  C  1707  1  0.21083400  0.15778500  0.41770000  1
  C  1708  1  0.22487500  0.17518400  0.44604600  1
  C  1713  1  0.19788000  0.19097400  0.46473300  1
  C  1714  1  0.17594900  0.21409800  0.44643700  1
  C  1717  1  0.16195400  0.20017400  0.41604800  1
  C  1720  1  0.19858300  0.23860800  0.43249000  1
  C  1723  1  0.72899200  0.08055400  0.05997710  1
  C  1724  1  0.74466900  0.10658600  0.03867610  1
  C  1725  1  0.70331800  0.09547500  0.08229810  1
  C  1726  1  0.67723400  0.11170300  0.06270210  1
  C  1729  1  0.69777900  0.13621500  0.04478010  1
  C  1730  1  0.71946300  0.12298400  0.01830610  1
  C  1735  1  0.70758100  0.09418200  0.99908000  1
  C  1736  1  0.68689400  0.07011700  0.01745310  1
  C  1739  1  0.66493600  0.08268400  0.04400810  1
  C  1742  1  0.71280100  0.05504900  0.03815210  1
  C  1745  1  0.54753700  0.04658000  0.87835800  1
  C  1746  1  0.57327100  0.02851300  0.89824600  1
  C  1747  1  0.56421400  0.07250900  0.85763000  1
  C  1748  1  0.58120300  0.09658900  0.87884300  1
  C  1751  1  0.60499300  0.07425800  0.89541600  1
  C  1752  1  0.59086700  0.05156700  0.92056000  1
  C  1757  1  0.56228800  0.06316900  0.94046800  1
  C  1758  1  0.53901300  0.08562700  0.92337600  1
  C  1761  1  0.55259800  0.10872900  0.89834900  1
  C  1764  1  0.52278400  0.06186000  0.90151200  1
  C  1767  1  0.04646400  0.74889100  0.03320110  1
  C  1768  1  0.07152300  0.76751400  0.01255510  1
  C  1769  1  0.06246800  0.72279100  0.05379610  1
  C  1770  1  0.08315600  0.70125600  0.03347710  1
  C  1773  1  0.10599800  0.72554000  0.01941810  1
  C  1774  1  0.09120700  0.74433100  0.99152800  1
  C  1779  1  0.06324600  0.73172000  0.97113700  1
  C  1780  1  0.04029700  0.71015100  0.98843400  1
  C  1783  1  0.05965400  0.68697000  0.00905913  1
  C  1786  1  0.02309500  0.73197100  0.01084110  1
  C  1789  1  0.45915300  0.98332300  0.80306000  1
  C  1790  1  0.47468900  0.96867800  0.77301000  1
  C  1791  1  0.43968600  0.95905700  0.82323100  1
  C  1792  1  0.41528900  0.94199900  0.80236000  1
  C  1795  1  0.43769300  0.92736300  0.77777900  1
  C  1796  1  0.44959200  0.95153500  0.75351100  1
  C  1801  1  0.42650000  0.97825700  0.74449200  1
  C  1802  1  0.40964200  0.99535900  0.77141700  1
  C  1805  1  0.39399100  0.96984500  0.79159200  1
  C  1808  1  0.43569600  0.00914900  0.79169500  1
  C  1811  1  0.96155800  0.81119000  0.11473200  1
  C  1812  1  0.98165600  0.82372200  0.14315100  1
  C  1813  1  0.94064500  0.83705700  0.09839510  1
  C  1814  1  0.92048200  0.85450200  0.12309800  1
  C  1817  1  0.94689400  0.86687800  0.14474800  1
  C  1818  1  0.96044300  0.84122400  0.16664000  1
  C  1823  1  0.93773100  0.81468800  0.17758000  1
  C  1824  1  0.91613100  0.80016500  0.15253000  1
  C  1827  1  0.89934900  0.82776700  0.13641400  1
  C  1830  1  0.93831900  0.78608500  0.12802100  1
  C  1833  1  0.93843400  0.30377900  0.62441200  1
  C  1834  1  0.91241700  0.28811600  0.64595200  1
  C  1835  1  0.92184700  0.32785200  0.60134600  1
  C  1836  1  0.90459800  0.35418600  0.61998700  1
  C  1839  1  0.88082700  0.33333333  0.63854400  1
  C  1840  1  0.89486200  0.31313300  0.66564800  1
  C  1845  1  0.92325800  0.32663600  0.68443700  1
  C  1846  1  0.94673300  0.34730700  0.66537900  1
  C  1849  1  0.93333600  0.36796000  0.63818800  1
  C  1852  1  0.96308800  0.32140000  0.64580000  1
  C  1855  1  0.01591400  0.22264000  0.55159200  1
  C  1856  1  0.99378000  0.20048900  0.53288000  1
  C  1857  1  0.03787300  0.20153800  0.57271000  1
  C  1858  1  0.05984400  0.18154100  0.55185600  1
  C  1861  1  0.03616600  0.16149100  0.53286200  1
  C  1862  1  0.01248000  0.17860500  0.51175500  1
  C  1867  1  0.03200800  0.20010400  0.49024600  1
  C  1868  1  0.05745900  0.22132900  0.50673600  1
  C  1871  1  0.07724300  0.20798200  0.53417700  1
  C  1874  1  0.03532800  0.24267300  0.52675500  1
  C  1877  1  0.54236400  0.56411000  0.38329400  1
  C  1878  1  0.57020100  0.55737400  0.40612500  1
  C  1879  1  0.55441600  0.58169300  0.35371200  1
  C  1880  1  0.57141200  0.61209500  0.36204200  1
  C  1883  1  0.59765200  0.60298700  0.38479300  1
  C  1884  1  0.58659300  0.58826800  0.41549000  1
  C  1889  1  0.56113900  0.60774600  0.43172300  1
  C  1890  1  0.53326200  0.61660200  0.41123900  1
  C  1893  1  0.54751000  0.63262600  0.38121800  1
  C  1896  1  0.51845200  0.58576300  0.40044000  1
  C  1899  1  0.47565000  0.47322500  0.31442700  1
  C  1900  1  0.49545700  0.45138700  0.29301500  1
  C  1901  1  0.45404800  0.45124600  0.33484900  1
  C  1902  1  0.43001500  0.43403400  0.31378800  1
  C  1905  1  0.45126300  0.41434700  0.29152800  1
  C  1906  1  0.47474200  0.43250800  0.27091000  1
  C  1911  1  0.45528700  0.45638500  0.25211200  1
  C  1912  1  0.43243500  0.47765400  0.27158300  1
  C  1915  1  0.41329400  0.46256300  0.29872200  1
  C  1918  1  0.45651900  0.49611200  0.29201100  1
  C  1921  1  0.14319400  0.02940200  0.50348300  1
  C  1922  1  0.14906300  0.02000900  0.47295300  1
  C  1923  1  0.12434400  0.01437200  0.45261200  1
  C  1924  1  0.09398300  0.02321300  0.46121800  1
  C  1929  1  0.57298600  0.24399700  0.99880200  1
  C  1930  1  0.59105600  0.22120200  0.98466500  1
  C  1931  1  0.61227600  0.22702300  0.96253400  1
  C  1932  1  0.61910200  0.25644300  0.95082900  1
  C  1937  1  0.10061600  0.56989100  0.95360100  1
  C  1938  1  0.11640700  0.59523200  0.96597500  1
  C  1939  1  0.14170100  0.59060500  0.98354600  1
  C  1940  1  0.14724500  0.56265300  0.99924300  1
  C  1945  1  0.62188300  0.74872800  0.40757500  1
  C  1946  1  0.61021000  0.72433800  0.42564400  1
  C  1947  1  0.61828400  0.72862000  0.45597200  1
  C  1948  1  0.60241000  0.75418200  0.46806000  1
  C  1953  1  0.16076800  0.15006700  0.39298300  1
  C  1954  1  0.14891700  0.13705500  0.42063200  1
  C  1955  1  0.11856000  0.12920000  0.42276700  1
  C  1956  1  0.10465200  0.11612400  0.39679900  1
  C  1961  1  0.66367800  0.67106800  0.57511900  1
  C  1962  1  0.63602500  0.65839000  0.58775800  1
  C  1963  1  0.60734200  0.67248600  0.58089300  1
  C  1964  1  0.60622900  0.70252500  0.56853300  1
  C  1969  1  0.59996000  0.12609300  0.87085900  1
  C  1970  1  0.61057600  0.14052500  0.89780000  1
  C  1971  1  0.62626200  0.16750900  0.89805900  1
  C  1972  1  0.63564100  0.18366500  0.87160300  1
  C  1977  1  0.10434100  0.67613500  0.04714310  1
  C  1978  1  0.12313900  0.66167900  0.02512710  1
  C  1979  1  0.15383600  0.65682300  0.03240610  1
  C  1980  1  0.16118900  0.64457700  0.06183410  1
  C  1985  1  0.99334100  0.15424300  0.49413400  1
  C  1986  1  0.98718200  0.15722900  0.46225600  1
  C  1987  1  0.99261900  0.13227100  0.44216900  1
  C  1988  1  0.00517400  0.10446700  0.45384300  1
  C  1993  1  0.25611200  0.63870900  0.94848900  1
  C  1994  1  0.26855700  0.64965600  0.97665800  1
  C  1995  1  0.26670500  0.63138000  0.00350413  1
  C  1996  1  0.25306400  0.60174800  0.00256713  1
  C  2001  1  0.51306700  0.63637900  0.43284700  1
  C  2002  1  0.50747500  0.62765700  0.46412900  1
  C  2003  1  0.51356800  0.64868000  0.48843600  1
  C  2004  1  0.51917600  0.68007000  0.48221800  1
  C  2009  1  0.72197500  0.14960900  0.99447900  1
  C  2010  1  0.69294500  0.15656700  0.98197800  1
  C  2011  1  0.68791000  0.17918000  0.96109100  1
  C  2012  1  0.71107400  0.19809900  0.94871700  1
  C  2017  1  0.77078500  0.45640400  0.68440000  1
  C  2018  1  0.79412000  0.43868800  0.69811400  1
  C  2019  1  0.78909800  0.41803800  0.72096200  1
  C  2020  1  0.76009100  0.41111300  0.73362300  1
  C  2025  1  0.97004100  0.85939700  0.19539400  1
  C  2026  1  0.94467900  0.87345400  0.21021400  1
  C  2027  1  0.94758800  0.90409900  0.21736400  1
  C  2028  1  0.97506500  0.91352000  0.23186100  1
  C  2033  1  0.24195600  0.38192900  0.27729200  1
  C  2034  1  0.23865100  0.41349600  0.28519600  1
  C  2035  1  0.24266400  0.43659500  0.26261800  1
  C  2036  1  0.24753000  0.42870400  0.23133300  1
  C  2041  1  0.45480700  0.93239200  0.72448500  1
  C  2042  1  0.42753000  0.91868000  0.71329000  1
  C  2043  1  0.42913000  0.88961800  0.70146100  1
  C  2044  1  0.45529400  0.88089600  0.68440000  1
  C  2049  1  0.89120600  0.43637200  0.81181000  1
  C  2050  1  0.87614500  0.42584300  0.78515700  1
  C  2051  1  0.84989800  0.40896200  0.78531100  1
  C  2052  1  0.83456400  0.39928600  0.81212000  1
  C  2057  1  0.33696700  0.92692900  0.63878100  1
  C  2058  1  0.35323200  0.90805300  0.65947500  1
  C  2059  1  0.36089000  0.87859700  0.65059400  1
  C  2060  1  0.37222500  0.87391100  0.62026800  1
  C  2065  1  0.86078300  0.86116200  0.29471600  1
  C  2066  1  0.87709400  0.87648000  0.27105500  1
  C  2067  1  0.88460000  0.90695200  0.27558300  1
  C  2068  1  0.89777000  0.91532200  0.30413200  1
  C  2073  1  0.38947200  0.38229200  0.14258800  1
  C  2074  1  0.38170100  0.39707000  0.17068000  1
  C  2075  1  0.35131100  0.40366200  0.17665800  1
  C  2076  1  0.33290600  0.41554200  0.15278100  1
  C  2081  1  0.86849400  0.31049500  0.68986300  1
  C  2082  1  0.86052300  0.33966500  0.70144000  1
  C  2083  1  0.83887500  0.34449400  0.72342800  1
  C  2084  1  0.82113000  0.32109900  0.73707300  1
  C  2089  1  0.40656900  0.48795500  0.24913800  1
  C  2090  1  0.38977800  0.46266000  0.23734300  1
  C  2091  1  0.35813200  0.46458400  0.23695700  1
  C  2092  1  0.34444100  0.49188800  0.22570400  1
  C  2097  1  0.36808600  0.76771700  0.72485800  1
  C  2098  1  0.35696000  0.76141500  0.69480900  1
  C  2099  1  0.37602700  0.76567100  0.66879900  1
  C  2100  1  0.40642200  0.77721800  0.67207900  1
  C  2105  1  0.87974200  0.03138200  0.20261100  1
  C  2106  1  0.87216400  0.03623900  0.23401500  1
  C  2107  1  0.89297600  0.02737000  0.25732900  1
  C  2108  1  0.92212700  0.01500700  0.24957000  1
  C  2113  1  0.90847500  0.50925200  0.73249000  1
  C  2114  1  0.89080400  0.48523600  0.71982400  1
  C  2115  1  0.86940600  0.48887700  0.69730300  1
  C  2116  1  0.86170200  0.51730000  0.68380000  1
  C  2121  1  0.33134500  0.31176300  0.25623500  1
  C  2122  1  0.34374000  0.33772800  0.24106600  1
  C  2123  1  0.37311000  0.33638800  0.22986400  1
  C  2124  1  0.38476000  0.30864700  0.21771300  1
  C  2129  1  0.39395600  0.91488500  0.81044500  1
  C  2130  1  0.37609800  0.90500000  0.78501600  1
  C  2131  1  0.37591200  0.87397500  0.77868700  1
  C  2132  1  0.37200700  0.85323700  0.80334300  1
  C  2137  1  0.88537300  0.38315900  0.61027700  1
  C  2138  1  0.87501900  0.39939200  0.63633800  1
  C  2139  1  0.85771500  0.42543200  0.63543700  1
  C  2140  1  0.84751900  0.43978500  0.60824100  1
  C  2145  1  0.49230400  0.41013900  0.24974200  1
  C  2146  1  0.49918700  0.41690900  0.21856100  1
  C  2147  1  0.49585500  0.39408900  0.19566500  1
  C  2148  1  0.48530800  0.36417400  0.20343800  1
  C  2153  1  0.27527700  0.91081700  0.72411300  1
  C  2154  1  0.30483200  0.89865500  0.73030000  1
  C  2155  1  0.30858900  0.86732800  0.72693300  1
  C  2156  1  0.28660800  0.84813500  0.74135500  1
  C  2161  1  0.71977600  0.69406200  0.41571300  1
  C  2162  1  0.73405800  0.66499800  0.41818800  1
  C  2163  1  0.74455700  0.65401400  0.44716200  1
  C  2164  1  0.73598400  0.66934400  0.47504400  1
  C  2169  1  0.52533800  0.10663300  0.94890100  1
  C  2170  1  0.54862000  0.12432300  0.96266500  1
  C  2171  1  0.54328500  0.14563600  0.98478900  1
  C  2172  1  0.51428000  0.15219900  0.99766700  1
  C  2177  1  0.11963600  0.61808900  0.85352300  1
  C  2178  1  0.12325900  0.64878500  0.84337800  1
  C  2179  1  0.15275200  0.66249500  0.84222400  1
  C  2180  1  0.17838900  0.64717900  0.85573400  1
  C  2185  1  0.64763600  0.12985400  0.07207010  1
  C  2186  1  0.63152000  0.13991400  0.04584910  1
  C  2187  1  0.60509900  0.15657000  0.04670810  1
  C  2188  1  0.59033900  0.16617200  0.07388110  1
  C  2193  1  0.11836000  0.74191300  0.96834700  1
  C  2194  1  0.12373500  0.71095700  0.95900000  1
  C  2195  1  0.15301700  0.70025900  0.95501000  1
  C  2196  1  0.17488500  0.72032300  0.94246300  1
  C  2201  1  0.61354000  0.58888400  0.43731600  1
  C  2202  1  0.62437700  0.61862900  0.44447400  1
  C  2203  1  0.63244200  0.62365100  0.47435500  1
  C  2204  1  0.65007000  0.60036900  0.48855600  1
  C  2209  1  0.58792100  0.62740400  0.33451400  1
  C  2210  1  0.61789800  0.61792600  0.32475300  1
  C  2211  1  0.64221400  0.63965900  0.32453200  1
  C  2212  1  0.63586200  0.67144900  0.32635900  1
  C  2217  1  0.08538700  0.15878200  0.56051900  1
  C  2218  1  0.10158500  0.14768400  0.53457100  1
  C  2219  1  0.13193700  0.14020200  0.53712200  1
  C  2220  1  0.14078700  0.12470100  0.56408500  1
  C  2225  1  0.01924000  0.69311100  0.96541200  1
  C  2226  1  0.01834100  0.70002600  0.93337800  1
  C  2227  1  0.02174200  0.67618400  0.91157600  1
  C  2228  1  0.02131800  0.64508000  0.92098300  1
  C  2233  1  0.24253100  0.15208500  0.46663000  1
  C  2234  1  0.25008100  0.15745200  0.49784000  1
  C  2235  1  0.25039800  0.13275700  0.51917300  1
  C  2236  1  0.23964200  0.10305600  0.51018600  1
  C  2241  1  0.79980800  0.94764600  0.19946000  1
  C  2242  1  0.82377100  0.92941500  0.21189600  1
  C  2243  1  0.82061500  0.89798100  0.20955200  1
  C  2244  1  0.79190700  0.88523000  0.21772900  1
  C  2249  1  0.95957000  0.37063500  0.68937600  1
  C  2250  1  0.93582500  0.38936200  0.70089500  1
  C  2251  1  0.93972800  0.41086500  0.72312900  1
  C  2252  1  0.96822300  0.41820600  0.73661100  1
  C  2257  1  0.89245100  0.77834200  0.16800900  1
  C  2258  1  0.86113700  0.77718100  0.15863700  1
  C  2259  1  0.83709400  0.77906800  0.18051500  1
  C  2260  1  0.84370200  0.78137600  0.21240600  1
  C  2265  1  0.38569100  0.01818400  0.75799500  1
  C  2266  1  0.35570700  0.02037200  0.77081500  1
  C  2267  1  0.32955500  0.01583500  0.75204700  1
  C  2268  1  0.33277200  0.01117200  0.71990500  1
  C  2273  1  0.40347800  0.41289000  0.32400800  1
  C  2274  1  0.38465500  0.40342500  0.29931500  1
  C  2275  1  0.35364600  0.39991600  0.30401100  1
  C  2276  1  0.34388900  0.38599900  0.33178100  1
  C  2281  1  0.89973300  0.88289700  0.11864100  1
  C  2282  1  0.88686200  0.89366500  0.14650600  1
  C  2283  1  0.88568300  0.92491300  0.15119500  1
  C  2284  1  0.87664100  0.94403700  0.12646300  1
  C  2289  1  0.08328600  0.22812400  0.48288200  1
  C  2290  1  0.09699100  0.20095300  0.47087900  1
  C  2291  1  0.12860800  0.19754900  0.47321000  1
  C  2292  1  0.14744200  0.22280000  0.46586700  1
  C  2297  1  0.61725700  0.04772800  0.94473400  1
  C  2298  1  0.62425100  0.07620900  0.95848000  1
  C  2299  1  0.64569400  0.08035300  0.98073500  1
  C  2300  1  0.66446400  0.05685500  0.99267700  1
  C  2305  1  0.99820900  0.98392500  0.33026000  1
  C  2306  1  0.02815700  0.99432700  0.32279700  1
  C  2307  1  0.04288600  0.01593100  0.34168900  1
  C  2308  1  0.02707600  0.02836700  0.36716800  1
  C  2313  1  0.73482500  0.32770000  0.82437500  1
  C  2314  1  0.70230600  0.32756000  0.82359600  1
  C  2315  1  0.68588500  0.30758000  0.84305800  1
  C  2316  1  0.70191100  0.28802400  0.86352000  1
  C  2321  1  0.25129000  0.50525500  0.14245000  1
  C  2322  1  0.22816100  0.49197000  0.12382900  1
  C  2323  1  0.21239300  0.50978500  0.10216700  1
  C  2324  1  0.21962300  0.54126300  0.09857210  1
  C  2329  1  0.47678800  0.81397500  0.58469000  1
  C  2330  1  0.50861000  0.82092100  0.58353100  1
  C  2331  1  0.52846300  0.80289700  0.56567300  1
  C  2332  1  0.51670300  0.77772800  0.54891800  1
  C  2337  1  0.26789500  0.72139900  0.86570800  1
  C  2338  1  0.28957500  0.70710100  0.84613300  1
  C  2339  1  0.30596200  0.72459800  0.82469000  1
  C  2340  1  0.30106500  0.75666200  0.82290000  1
  C  2345  1  0.74508100  0.58609600  0.56019600  1
  C  2346  1  0.77734000  0.58308300  0.55672600  1
  C  2347  1  0.79361700  0.56131100  0.57422500  1
  C  2348  1  0.77786400  0.54248300  0.59549900  1
  C  2353  1  0.48962200  0.23683800  0.08770410  1
  C  2354  1  0.45713900  0.23887000  0.08667210  1
  C  2355  1  0.44177000  0.26036800  0.10551800  1
  C  2356  1  0.45890700  0.27979600  0.12518200  1
  C  2361  1  0.99305200  0.50488700  0.82310200  1
  C  2362  1  0.02472700  0.49874600  0.82736300  1
  C  2363  1  0.04241700  0.51793000  0.84638400  1
  C  2364  1  0.02864800  0.54363000  0.86071900  1
  C  2369  1  0.75602100  0.79598400  0.29179500  1
  C  2370  1  0.73691900  0.81230200  0.31241100  1
  C  2371  1  0.71374300  0.79677700  0.32865800  1
  C  2372  1  0.70959700  0.76481200  0.32434400  1
  C  2377  1  0.24168700  0.00089900  0.64594700  1
  C  2378  1  0.22023500  0.98491100  0.62766600  1
  C  2379  1  0.20346900  0.00077000  0.60530800  1
  C  2380  1  0.20829400  0.03268400  0.60077300  1
  C  2385  1  0.23973100  0.24752500  0.39281800  1
  C  2386  1  0.27197000  0.25168300  0.39249000  1
  C  2387  1  0.28494600  0.27492600  0.37427000  1
  C  2388  1  0.26580800  0.29450500  0.35673500  1
  C  2393  1  0.75351500  0.06636300  0.07955410  1
  C  2394  1  0.77187900  0.08362500  0.10006900  1
  C  2395  1  0.79386000  0.06878100  0.11835200  1
  C  2396  1  0.79718100  0.03649900  0.11647400  1
  C  2401  1  0.48438400  0.99683500  0.82202200  1
  C  2402  1  0.50720400  0.97936500  0.83728300  1
  C  2403  1  0.52949800  0.99435000  0.85527200  1
  C  2404  1  0.52908400  0.02676000  0.85726700  1
  C  2409  1  0.98380100  0.79774000  0.09210710  1
  C  2410  1  0.00586000  0.81531300  0.07582410  1
  C  2411  1  0.02731800  0.80062400  0.05658210  1
  C  2412  1  0.02690800  0.76826600  0.05401010  1
  C  2417  1  0.99594100  0.24230100  0.57180000  1
  C  2418  1  0.97582600  0.22953800  0.59393100  1
  C  2419  1  0.95597000  0.24852300  0.61068100  1
  C  2420  1  0.95643200  0.28067800  0.60599300  1
  C  2425  1  0.49535600  0.49197300  0.33576200  1
  C  2426  1  0.52777200  0.49031800  0.33844200  1
  C  2427  1  0.54360200  0.51184000  0.35648200  1
  C  2428  1  0.52717400  0.53520000  0.37194900  1
  N  709  1  0.09000900  0.02677100  0.14722200  1
  N  712  1  0.11277400  0.02892000  0.16663900  1
  N  717  1  0.60104700  0.27851600  0.62025200  1
  N  720  1  0.57983500  0.27280000  0.64230200  1
  N  725  1  0.12909600  0.53888400  0.64431000  1
  N  728  1  0.10812500  0.54208300  0.62200700  1
  N  733  1  0.60354300  0.77934600  0.10396000  1
  N  736  1  0.61672600  0.77711900  0.07614900  1
  N  741  1  0.11824600  0.12456900  0.02465800  1
  N  744  1  0.14330700  0.14245700  0.02296700  1
  N  749  1  0.63484100  0.71597000  0.22271500  1
  N  752  1  0.66127200  0.70164200  0.22467100  1
  N  757  1  0.62546400  0.16878100  0.50060100  1
  N  760  1  0.60891600  0.14241100  0.50025600  1
  N  765  1  0.13882700  0.65241000  0.73834000  1
  N  768  1  0.11401000  0.66976700  0.73195500  1
  N  773  1  0.00318300  0.10137600  0.14009600  1
  N  776  1  0.99695600  0.12432900  0.15848000  1
  N  781  1  0.25021200  0.59102800  0.62826400  1
  N  784  1  0.25068500  0.60796200  0.60333800  1
  N  789  1  0.51603200  0.68684600  0.10675100  1
  N  792  1  0.51414000  0.66725000  0.08397500  1
  N  797  1  0.73946600  0.19078200  0.61636300  1
  N  800  1  0.74447600  0.16851100  0.63748900  1
  N  805  1  0.73747100  0.42867000  0.37493100  1
  N  808  1  0.74238700  0.44952300  0.35234000  1
  N  813  1  0.00012300  0.89637500  0.87806200  1
  N  816  1  0.99778400  0.87261200  0.85851400  1
  N  821  1  0.24211000  0.39842200  0.88049100  1
  N  824  1  0.23920100  0.37709300  0.90159200  1
  N  829  1  0.48120500  0.89762500  0.34661700  1
  N  832  1  0.48128800  0.92045900  0.36722000  1
  N  837  1  0.84971600  0.40974300  0.49335900  1
  N  840  1  0.87573100  0.42683600  0.49321600  1
  N  845  1  0.36196100  0.89631700  0.25547000  1
  N  848  1  0.34332900  0.91957600  0.26380900  1
  N  853  1  0.88733300  0.89671500  0.98294100  1
  N  856  1  0.86772800  0.87310900  0.97859300  1
  N  861  1  0.34279500  0.40574000  0.77950300  1
  N  864  1  0.36776200  0.38793200  0.77532900  1
  N  869  1  0.82913300  0.29262700  0.38051300  1
  N  872  1  0.85096000  0.28774400  0.35887200  1
  N  877  1  0.36293300  0.51713300  0.88660900  1
  N  880  1  0.39080500  0.51526200  0.90012100  1
  N  885  1  0.41669600  0.77545800  0.35699000  1
  N  888  1  0.39921200  0.77133200  0.38113600  1
  N  893  1  0.92985200  0.01903000  0.87470400  1
  N  896  1  0.91038500  0.02669300  0.85313200  1
  N  901  1  0.87923400  0.54067900  0.35179300  1
  N  904  1  0.90067900  0.53698800  0.37410500  1
  N  909  1  0.36972700  0.28313300  0.88418000  1
  N  912  1  0.34605400  0.28473000  0.90389700  1
  N  917  1  0.38414000  0.86441700  0.48564800  1
  N  920  1  0.39687700  0.89245100  0.48796400  1
  N  925  1  0.85788200  0.42356100  0.23805600  1
  N  928  1  0.87522100  0.39764900  0.23899100  1
  N  933  1  0.48652100  0.35840800  0.88951200  1
  N  936  1  0.48967700  0.37944000  0.91074600  1
  N  941  1  0.25786500  0.86165200  0.39740600  1
  N  944  1  0.25226900  0.89005400  0.38639500  1
  N  949  1  0.72602700  0.69852800  0.12559500  1
  N  952  1  0.71952500  0.70965200  0.09842000  1
  N  957  1  0.49181000  0.13423100  0.63927700  1
  N  960  1  0.49686600  0.11335100  0.61675800  1
  N  965  1  0.17412300  0.61652800  0.51502500  1
  N  968  1  0.14716400  0.60328800  0.51308700  1
  N  973  1  0.60645700  0.15602600  0.75467800  1
  N  976  1  0.63275400  0.13935000  0.75384900  1
  N  981  1  0.16821300  0.75099200  0.60239600  1
  N  984  1  0.14267900  0.76090900  0.61658600  1
  N  989  1  0.64486700  0.57115200  0.13315500  1
  N  992  1  0.62541600  0.56561800  0.11022700  1
  N  997  1  0.60485300  0.67752100  0.97967300  1
  N  1000  1  0.58270100  0.65772800  0.98472900  1
  N  1005  1  0.12236900  0.13055400  0.24444800  1
  N  1008  1  0.09742500  0.14851900  0.24311900  1
  N  1013  1  0.01263200  0.64146000  0.60631900  1
  N  1016  1  0.01232500  0.66330400  0.62699900  1
  N  1021  1  0.23975900  0.09891300  0.13448100  1
  N  1024  1  0.24157700  0.12148600  0.11474000  1
  N  1029  1  0.76767800  0.90472700  0.86689900  1
  N  1032  1  0.77161500  0.93313900  0.85551500  1
  N  1037  1  0.99138500  0.39987700  0.37997500  1
  N  1040  1  0.98737700  0.37787500  0.35834600  1
  N  1045  1  0.87357100  0.77453800  0.87441200  1
  N  1048  1  0.89573800  0.77294300  0.85406300  1
  N  1053  1  0.36140700  0.01796600  0.36442000  1
  N  1056  1  0.38556900  0.02165500  0.38199800  1
  N  1061  1  0.36472600  0.38964700  0.01066800  1
  N  1064  1  0.39163700  0.40443600  0.00741400  1
  N  1069  1  0.88358700  0.93141000  0.75347600  1
  N  1072  1  0.89672200  0.90366500  0.75012300  1
  N  1077  1  0.13288800  0.25035700  0.12721600  1
  N  1080  1  0.10394600  0.25231000  0.13802200  1
  N  1085  1  0.65749600  0.02899900  0.63408100  1
  N  1088  1  0.63577700  0.02479900  0.61212500  1
  N  1093  1  0.99898700  0.01614700  0.02852100  1
  N  1096  1  0.98532700  0.99616300  0.01113400  1
  N  1101  1  0.73303700  0.29013800  0.51826600  1
  N  1104  1  0.74820400  0.30836900  0.50017600  1
  N  1109  1  0.24161400  0.55246700  0.77318900  1
  N  1112  1  0.25629800  0.53585900  0.79358200  1
  N  1117  1  0.48562200  0.77420000  0.20448100  1
  N  1120  1  0.46712100  0.79102600  0.22101900  1
  N  1125  1  0.28100300  0.76881500  0.49888800  1
  N  1128  1  0.26536000  0.75245800  0.51861500  1
  N  1133  1  0.74692800  0.54682500  0.25249200  1
  N  1136  1  0.73176900  0.56689400  0.23620400  1
  N  1141  1  0.48981500  0.27561800  0.78018700  1
  N  1144  1  0.50396500  0.25603400  0.76288100  1
  N  1149  1  0.99793300  0.54715600  0.51148800  1
  N  1152  1  0.98144700  0.52914400  0.49425000  1
  N  1157  1  0.72900100  0.75105600  0.95927100  1
  N  1160  1  0.75029300  0.76545100  0.94395700  1
  N  1165  1  0.22812400  0.04659200  0.27578100  1
  N  1168  1  0.24377400  0.03178000  0.29663100  1
  N  1173  1  0.23508000  0.28920100  0.01388300  1
  N  1176  1  0.22305400  0.26744200  0.03063000  1
  N  1181  1  0.77871900  0.02170700  0.75130700  1
  N  1184  1  0.75857200  0.03555700  0.73406700  1
  N  1189  1  0.50716900  0.04155800  0.49592600  1
  N  1192  1  0.48651700  0.02780400  0.47956000  1
  N  1197  1  0.00517400  0.75333600  0.72611900  1
  N  1200  1  0.98529200  0.76681800  0.74383300  1
  N  1205  1  0.97697700  0.29114000  0.24002300  1
  N  1208  1  0.99510200  0.27339000  0.22391200  1
  N  1213  1  0.49601100  0.53415200  0.02460000  1
  N  1216  1  0.48122100  0.51395900  0.00812200  1
  N  1925  1  0.09000900  0.02677100  0.49197100  1
  N  1928  1  0.11277400  0.02892000  0.51138800  1
  N  1933  1  0.60104700  0.27851600  0.96500100  1
  N  1936  1  0.57983500  0.27280000  0.98705100  1
  N  1941  1  0.12909600  0.53888400  0.98905900  1
  N  1944  1  0.10812500  0.54208300  0.96675600  1
  N  1949  1  0.60354300  0.77934600  0.44870900  1
  N  1952  1  0.61672600  0.77711900  0.42089800  1
  N  1957  1  0.11824600  0.12456900  0.36940700  1
  N  1960  1  0.14330700  0.14245700  0.36771600  1
  N  1965  1  0.63484100  0.71597000  0.56746400  1
  N  1968  1  0.66127200  0.70164200  0.56942000  1
  N  1973  1  0.62546400  0.16878100  0.84535000  1
  N  1976  1  0.60891600  0.14241100  0.84500500  1
  N  1981  1  0.13882700  0.65241000  0.08308910  1
  N  1984  1  0.11401000  0.66976700  0.07670410  1
  N  1989  1  0.00318300  0.10137600  0.48484500  1
  N  1992  1  0.99695600  0.12432900  0.50322900  1
  N  1997  1  0.25021200  0.59102800  0.97301300  1
  N  2000  1  0.25068500  0.60796200  0.94808700  1
  N  2005  1  0.51603200  0.68684600  0.45150000  1
  N  2008  1  0.51414000  0.66725000  0.42872400  1
  N  2013  1  0.73946600  0.19078200  0.96111200  1
  N  2016  1  0.74447600  0.16851100  0.98223800  1
  N  2021  1  0.73747100  0.42867000  0.71968000  1
  N  2024  1  0.74238700  0.44952300  0.69708900  1
  N  2029  1  0.00012300  0.89637500  0.22281100  1
  N  2032  1  0.99778400  0.87261200  0.20326300  1
  N  2037  1  0.24211000  0.39842200  0.22524000  1
  N  2040  1  0.23920100  0.37709300  0.24634100  1
  N  2045  1  0.48120500  0.89762500  0.69136600  1
  N  2048  1  0.48128800  0.92045900  0.71196900  1
  N  2053  1  0.84971600  0.40974300  0.83810800  1
  N  2056  1  0.87573100  0.42683600  0.83796500  1
  N  2061  1  0.36196100  0.89631700  0.60021900  1
  N  2064  1  0.34332900  0.91957600  0.60855800  1
  N  2069  1  0.88733300  0.89671500  0.32769000  1
  N  2072  1  0.86772800  0.87310900  0.32334200  1
  N  2077  1  0.34279500  0.40574000  0.12425200  1
  N  2080  1  0.36776200  0.38793200  0.12007800  1
  N  2085  1  0.82913300  0.29262700  0.72526200  1
  N  2088  1  0.85096000  0.28774400  0.70362100  1
  N  2093  1  0.36293300  0.51713300  0.23135800  1
  N  2096  1  0.39080500  0.51526200  0.24487000  1
  N  2101  1  0.41669600  0.77545800  0.70173900  1
  N  2104  1  0.39921200  0.77133200  0.72588500  1
  N  2109  1  0.92985200  0.01903000  0.21945300  1
  N  2112  1  0.91038500  0.02669300  0.19788100  1
  N  2117  1  0.87923400  0.54067900  0.69654200  1
  N  2120  1  0.90067900  0.53698800  0.71885400  1
  N  2125  1  0.36972700  0.28313300  0.22892900  1
  N  2128  1  0.34605400  0.28473000  0.24864600  1
  N  2133  1  0.38414000  0.86441700  0.83039700  1
  N  2136  1  0.39687700  0.89245100  0.83271300  1
  N  2141  1  0.85788200  0.42356100  0.58280500  1
  N  2144  1  0.87522100  0.39764900  0.58374000  1
  N  2149  1  0.48652100  0.35840800  0.23426100  1
  N  2152  1  0.48967700  0.37944000  0.25549500  1
  N  2157  1  0.25786500  0.86165200  0.74215500  1
  N  2160  1  0.25226900  0.89005400  0.73114400  1
  N  2165  1  0.72602700  0.69852800  0.47034400  1
  N  2168  1  0.71952500  0.70965200  0.44316900  1
  N  2173  1  0.49181000  0.13423100  0.98402600  1
  N  2176  1  0.49686600  0.11335100  0.96150700  1
  N  2181  1  0.17412300  0.61652800  0.85977400  1
  N  2184  1  0.14716400  0.60328800  0.85783600  1
  N  2189  1  0.60645700  0.15602600  0.09942710  1
  N  2192  1  0.63275400  0.13935000  0.09859810  1
  N  2197  1  0.16821300  0.75099200  0.94714500  1
  N  2200  1  0.14267900  0.76090900  0.96133500  1
  N  2205  1  0.64486700  0.57115200  0.47790400  1
  N  2208  1  0.62541600  0.56561800  0.45497600  1
  N  2213  1  0.60485300  0.67752100  0.32442200  1
  N  2216  1  0.58270100  0.65772800  0.32947800  1
  N  2221  1  0.12236900  0.13055400  0.58919700  1
  N  2224  1  0.09742500  0.14851900  0.58786800  1
  N  2229  1  0.01263200  0.64146000  0.95106800  1
  N  2232  1  0.01232500  0.66330400  0.97174800  1
  N  2237  1  0.23975900  0.09891300  0.47923000  1
  N  2240  1  0.24157700  0.12148600  0.45948900  1
  N  2245  1  0.76767800  0.90472700  0.21164800  1
  N  2248  1  0.77161500  0.93313900  0.20026400  1
  N  2253  1  0.99138500  0.39987700  0.72472400  1
  N  2256  1  0.98737700  0.37787500  0.70309500  1
  N  2261  1  0.87357100  0.77453800  0.21916100  1
  N  2264  1  0.89573800  0.77294300  0.19881200  1
  N  2269  1  0.36140700  0.01796600  0.70916900  1
  N  2272  1  0.38556900  0.02165500  0.72674700  1
  N  2277  1  0.36472600  0.38964700  0.35541700  1
  N  2280  1  0.39163700  0.40443600  0.35216300  1
  N  2285  1  0.88358700  0.93141000  0.09822510  1
  N  2288  1  0.89672200  0.90366500  0.09487210  1
  N  2293  1  0.13288800  0.25035700  0.47196500  1
  N  2296  1  0.10394600  0.25231000  0.48277100  1
  N  2301  1  0.65749600  0.02899900  0.97883000  1
  N  2304  1  0.63577700  0.02479900  0.95687400  1
  N  2309  1  0.99898700  0.01614700  0.37327000  1
  N  2312  1  0.98532700  0.99616300  0.35588300  1
  N  2317  1  0.73303700  0.29013800  0.86301500  1
  N  2320  1  0.74820400  0.30836900  0.84492500  1
  N  2325  1  0.24161400  0.55246700  0.11793800  1
  N  2328  1  0.25629800  0.53585900  0.13833100  1
  N  2333  1  0.48562200  0.77420000  0.54923000  1
  N  2336  1  0.46712100  0.79102600  0.56576800  1
  N  2341  1  0.28100300  0.76881500  0.84363700  1
  N  2344  1  0.26536000  0.75245800  0.86336400  1
  N  2349  1  0.74692800  0.54682500  0.59724100  1
  N  2352  1  0.73176900  0.56689400  0.58095300  1
  N  2357  1  0.48981500  0.27561800  0.12493600  1
  N  2360  1  0.50396500  0.25603400  0.10763000  1
  N  2365  1  0.99793300  0.54715600  0.85623700  1
  N  2368  1  0.98144700  0.52914400  0.83899900  1
  N  2373  1  0.72900100  0.75105600  0.30402000  1
  N  2376  1  0.75029300  0.76545100  0.28870600  1
  N  2381  1  0.22812400  0.04659200  0.62053000  1
  N  2384  1  0.24377400  0.03178000  0.64138000  1
  N  2389  1  0.23508000  0.28920100  0.35863200  1
  N  2392  1  0.22305400  0.26744200  0.37537900  1
  N  2397  1  0.77871900  0.02170700  0.09605610  1
  N  2400  1  0.75857200  0.03555700  0.07881610  1
  N  2405  1  0.50716900  0.04155800  0.84067500  1
  N  2408  1  0.48651700  0.02780400  0.82430900  1
  N  2413  1  0.00517400  0.75333600  0.07086810  1
  N  2416  1  0.98529200  0.76681800  0.08858210  1
  N  2421  1  0.97697700  0.29114000  0.58477200  1
  N  2424  1  0.99510200  0.27339000  0.56866100  1
  N  2429  1  0.49601100  0.53415200  0.36934900  1
  N  2432  1  0.48122100  0.51395900  0.35287100  1
