# generated using pymatgen
data_H32C45N4
_symmetry_space_group_name_H-M   'P 1'
_cell_length_a   45.22310000
_cell_length_b   75.29450000
_cell_length_c   75.29450000
_cell_angle_alpha   90.00000000
_cell_angle_beta   90.00000000
_cell_angle_gamma   90.00000000
_symmetry_Int_Tables_number   1
_chemical_formula_structural   H32C45N4
_chemical_formula_sum   'H1024 C1440 N128'
_cell_volume   256381.59015327
_cell_formula_units_Z   32
loop_
 _symmetry_equiv_pos_site_id
 _symmetry_equiv_pos_as_xyz
  1  'x, y, z'
loop_
 _atom_site_type_symbol
 _atom_site_label
 _atom_site_symmetry_multiplicity
 _atom_site_fract_x
 _atom_site_fract_y
 _atom_site_fract_z
 _atom_site_occupancy
  H  25  1  0.26232200  0.14331700  0.35011300  1
  H  26  1  0.26899100  0.11479900  0.33823200  1
  H  27  1  0.24235200  0.06484900  0.30424700  1
  H  28  1  0.20705200  0.04464100  0.29390000  1
  H  29  1  0.14071200  0.08377600  0.29738700  1
  H  30  1  0.17782800  0.14645800  0.32665800  1
  H  31  1  0.15893600  0.09035700  0.33920500  1
  H  32  1  0.07500000  0.11210700  0.34974400  1
  H  33  1  0.08013500  0.13157900  0.32537400  1
  H  34  1  0.21913700  0.12257300  0.28600500  1
  H  35  1  0.12368200  0.14659800  0.26937700  1
  H  36  1  0.16500100  0.15157000  0.25091900  1
  H  39  1  0.25404700  0.09878200  0.30845800  1
  H  40  1  0.24336900  0.08747600  0.32817300  1
  H  42  1  0.10160000  0.12743700  0.29348500  1
  H  43  1  0.11693000  0.14642800  0.30406500  1
  H  72  1  0.26221800  0.86614500  0.77261900  1
  H  73  1  0.26901800  0.89461100  0.78461700  1
  H  74  1  0.24244000  0.94455700  0.81865400  1
  H  75  1  0.20715500  0.96482600  0.82891700  1
  H  76  1  0.14067300  0.92578400  0.82527500  1
  H  77  1  0.17764200  0.86310200  0.79597400  1
  H  78  1  0.15889600  0.91930800  0.78360700  1
  H  79  1  0.07500900  0.89758000  0.77287500  1
  H  80  1  0.08013300  0.87796000  0.79711600  1
  H  81  1  0.21891000  0.88704300  0.83683400  1
  H  82  1  0.12361700  0.86246400  0.85297700  1
  H  83  1  0.16483600  0.85753100  0.87152900  1
  H  86  1  0.25396500  0.91056100  0.81446500  1
  H  87  1  0.24359200  0.92194600  0.79474000  1
  H  89  1  0.10150300  0.88182600  0.82902700  1
  H  90  1  0.11699500  0.86296000  0.81831200  1
  H  119  1  0.26229700  0.71625800  0.20005700  1
  H  120  1  0.26913500  0.72830400  0.17160300  1
  H  121  1  0.24229900  0.76205100  0.12150700  1
  H  122  1  0.20698400  0.77229400  0.10124800  1
  H  123  1  0.14056000  0.76869700  0.14033200  1
  H  124  1  0.17741900  0.73924800  0.20292300  1
  H  125  1  0.15892400  0.72697300  0.14683300  1
  H  126  1  0.07500000  0.71621900  0.16850200  1
  H  127  1  0.08004100  0.74049600  0.18810100  1
  H  128  1  0.21877600  0.78029000  0.17900200  1
  H  129  1  0.12350200  0.79636700  0.20364400  1
  H  130  1  0.16467300  0.81496200  0.20852800  1
  H  133  1  0.25387900  0.75800900  0.15552100  1
  H  134  1  0.24359200  0.73823000  0.14420200  1
  H  136  1  0.10141700  0.77243100  0.18424700  1
  H  137  1  0.11684600  0.76169800  0.20312100  1
  H  166  1  0.26217600  0.29368900  0.92284300  1
  H  167  1  0.26885600  0.28180700  0.95136100  1
  H  168  1  0.24207300  0.24798100  0.00141400  1
  H  169  1  0.20677800  0.23755400  0.02156300  1
  H  170  1  0.14053000  0.24096700  0.98236500  1
  H  171  1  0.17761300  0.27031300  0.91974700  1
  H  172  1  0.15886100  0.28291800  0.97572700  1
  H  173  1  0.07485000  0.29338100  0.95403700  1
  H  174  1  0.07988700  0.26889700  0.93468500  1
  H  175  1  0.21901900  0.22971500  0.94350900  1
  H  176  1  0.12339400  0.21276800  0.91996300  1
  H  177  1  0.16474200  0.19435300  0.91494700  1
  H  180  1  0.25385300  0.25209500  0.96745500  1
  H  181  1  0.24317200  0.27183500  0.97871400  1
  H  183  1  0.10141100  0.23698800  0.93905500  1
  H  184  1  0.11649400  0.24745000  0.91992900  1
  H  213  1  0.75650500  0.86603100  0.35110900  1
  H  214  1  0.74972800  0.89487000  0.34005900  1
  H  215  1  0.77559100  0.94557500  0.30693600  1
  H  216  1  0.81054400  0.96568600  0.29595600  1
  H  217  1  0.87633600  0.92609800  0.29739600  1
  H  218  1  0.83999100  0.86311800  0.32629700  1
  H  219  1  0.85888900  0.91811300  0.34056800  1
  H  220  1  0.94412000  0.89701300  0.34850700  1
  H  221  1  0.93896300  0.87935200  0.32282600  1
  H  222  1  0.79712000  0.88570000  0.28787300  1
  H  223  1  0.89377600  0.86862600  0.26605500  1
  H  224  1  0.85144600  0.86265000  0.24877100  1
  H  227  1  0.76353500  0.91162900  0.31057100  1
  H  228  1  0.77541400  0.92234600  0.33036800  1
  H  230  1  0.91554800  0.88641500  0.29146200  1
  H  231  1  0.90325800  0.86588000  0.30046400  1
  H  260  1  0.75621600  0.14348500  0.77189300  1
  H  261  1  0.74946500  0.11472500  0.78314600  1
  H  262  1  0.77562200  0.06413100  0.81635300  1
  H  263  1  0.81071000  0.04400000  0.82714800  1
  H  264  1  0.87656800  0.08353300  0.82529100  1
  H  265  1  0.84005100  0.14641200  0.79627200  1
  H  266  1  0.85890000  0.09135900  0.78232000  1
  H  267  1  0.94401400  0.11251900  0.77408100  1
  H  268  1  0.93889900  0.13036900  0.79963600  1
  H  269  1  0.79731200  0.12379300  0.83502900  1
  H  270  1  0.89392000  0.14160300  0.85635000  1
  H  271  1  0.85165400  0.14752700  0.87370700  1
  H  274  1  0.76364300  0.09811500  0.81268200  1
  H  275  1  0.77511300  0.08727100  0.79286600  1
  H  277  1  0.91570500  0.12362300  0.83108800  1
  H  278  1  0.90311400  0.14400500  0.82189000  1
  H  307  1  0.75595900  0.29401500  0.20010500  1
  H  308  1  0.74923200  0.28270300  0.17136000  1
  H  309  1  0.77557300  0.24950800  0.12079500  1
  H  310  1  0.81071000  0.23884500  0.10062400  1
  H  311  1  0.87669200  0.24099100  0.14007800  1
  H  312  1  0.84011100  0.27002600  0.20293400  1
  H  313  1  0.85889600  0.28371500  0.14767200  1
  H  314  1  0.94375000  0.29245100  0.16898300  1
  H  315  1  0.93864700  0.26713600  0.18718900  1
  H  316  1  0.79759300  0.23086800  0.17998100  1
  H  317  1  0.89407200  0.21049700  0.19911800  1
  H  318  1  0.85198300  0.19288100  0.20478200  1
  H  321  1  0.76366300  0.25320800  0.15475900  1
  H  322  1  0.77493200  0.27305000  0.14389100  1
  H  324  1  0.91587700  0.23556300  0.18096500  1
  H  325  1  0.90267000  0.24505600  0.20106900  1
  H  354  1  0.75521400  0.71657900  0.92261400  1
  H  355  1  0.74860000  0.72850700  0.95112200  1
  H  356  1  0.77565900  0.76214300  0.00121200  1
  H  357  1  0.81104200  0.77229800  0.02146100  1
  H  358  1  0.87739700  0.76867700  0.98233700  1
  H  359  1  0.84023200  0.73938300  0.91968700  1
  H  360  1  0.85904100  0.72698600  0.97572900  1
  H  361  1  0.94293400  0.71637200  0.95395200  1
  H  362  1  0.93781500  0.74072400  0.93445700  1
  H  363  1  0.79896600  0.78027200  0.94354500  1
  H  364  1  0.89440800  0.79671800  0.91938400  1
  H  365  1  0.85314000  0.81523200  0.91442200  1
  H  368  1  0.76400100  0.75813900  0.96722200  1
  H  369  1  0.77428800  0.73833000  0.97849500  1
  H  371  1  0.91644800  0.77262800  0.93857400  1
  H  372  1  0.90104900  0.76203500  0.91961000  1
  H  401  1  0.77278700  0.87631200  0.76061000  1
  H  402  1  0.77867500  0.90644600  0.76819900  1
  H  403  1  0.81686600  0.95415300  0.80339400  1
  H  404  1  0.85222900  0.96703000  0.82256700  1
  H  405  1  0.88780300  0.91640500  0.83309100  1
  H  406  1  0.83757200  0.86185400  0.79798800  1
  H  407  1  0.89190100  0.91411300  0.78857200  1
  H  408  1  0.96114000  0.87686400  0.78847700  1
  H  409  1  0.93483500  0.85872500  0.80861100  1
  H  410  1  0.79879800  0.89655900  0.82977500  1
  H  411  1  0.86738700  0.85632200  0.85824700  1
  H  412  1  0.82165100  0.86262300  0.87204100  1
  H  415  1  0.78872100  0.92462800  0.79663700  1
  H  416  1  0.81622700  0.92903600  0.78038200  1
  H  418  1  0.90566100  0.86661100  0.83677700  1
  H  419  1  0.88343800  0.85241800  0.82349300  1
  H  448  1  0.77302300  0.13340400  0.36264000  1
  H  449  1  0.77894300  0.10325100  0.35510700  1
  H  450  1  0.81672200  0.05553900  0.31971500  1
  H  451  1  0.85185300  0.04267400  0.30037400  1
  H  452  1  0.88728400  0.09331400  0.28972800  1
  H  453  1  0.83738400  0.14783800  0.32499400  1
  H  454  1  0.89181900  0.09560600  0.33430700  1
  H  455  1  0.96123500  0.13274900  0.33396600  1
  H  456  1  0.93477300  0.15085000  0.31390300  1
  H  457  1  0.79832000  0.11308300  0.29349700  1
  H  458  1  0.86596900  0.15390000  0.26503800  1
  H  459  1  0.81988400  0.14784500  0.25164100  1
  H  462  1  0.78867300  0.08506400  0.32663100  1
  H  463  1  0.81637500  0.08064500  0.34276100  1
  H  465  1  0.90496000  0.14305800  0.28592200  1
  H  466  1  0.88321100  0.15730500  0.29943500  1
  H  495  1  0.77369800  0.30633700  0.93272400  1
  H  496  1  0.77965700  0.29888500  0.96289700  1
  H  497  1  0.81716500  0.26344800  0.01066000  1
  H  498  1  0.85218700  0.24405100  0.02354300  1
  H  499  1  0.88733700  0.23313000  0.97289300  1
  H  500  1  0.83766700  0.26842100  0.91833200  1
  H  501  1  0.89183700  0.27796400  0.97042600  1
  H  502  1  0.96183400  0.27692200  0.93367900  1
  H  503  1  0.93548700  0.25667900  0.91570300  1
  H  504  1  0.79821400  0.23728500  0.95293400  1
  H  505  1  0.86589900  0.20824800  0.91255100  1
  H  506  1  0.81947100  0.19520700  0.91836300  1
  H  509  1  0.78909700  0.27041700  0.98114600  1
  H  510  1  0.81701600  0.28642800  0.98550000  1
  H  512  1  0.90515700  0.22888500  0.92368500  1
  H  513  1  0.88399100  0.24237100  0.90909800  1
  H  542  1  0.77358300  0.70334500  0.18969500  1
  H  543  1  0.77952500  0.71088600  0.15954900  1
  H  544  1  0.81715100  0.74636900  0.11186900  1
  H  545  1  0.85233900  0.76566100  0.09901000  1
  H  546  1  0.88755300  0.77644000  0.14967200  1
  H  547  1  0.83767400  0.74113700  0.20418200  1
  H  548  1  0.89194900  0.73176400  0.15204700  1
  H  549  1  0.96173900  0.73251300  0.18893700  1
  H  550  1  0.93532300  0.75265900  0.20700200  1
  H  551  1  0.79832900  0.77243300  0.16960500  1
  H  552  1  0.86589400  0.80115900  0.21027700  1
  H  553  1  0.81953700  0.81428000  0.20446600  1
  H  556  1  0.78904200  0.73941900  0.14139400  1
  H  557  1  0.81685300  0.72335900  0.13696700  1
  H  559  1  0.90514400  0.78053500  0.19912700  1
  H  560  1  0.88381000  0.76699100  0.21356900  1
  H  589  1  0.24630800  0.13310500  0.76075500  1
  H  590  1  0.24042600  0.10299700  0.76844400  1
  H  591  1  0.20167400  0.05535600  0.80347900  1
  H  592  1  0.16599500  0.04248300  0.82243500  1
  H  593  1  0.13012800  0.09310200  0.83264200  1
  H  594  1  0.18080100  0.14762200  0.79764800  1
  H  595  1  0.12640700  0.09541000  0.78829200  1
  H  596  1  0.05763900  0.13298800  0.78771600  1
  H  597  1  0.08396400  0.15110500  0.80785000  1
  H  598  1  0.21925400  0.11277200  0.82981300  1
  H  599  1  0.15095100  0.15361700  0.85764900  1
  H  600  1  0.19641300  0.14720100  0.87168900  1
  H  603  1  0.22989400  0.08490700  0.79689400  1
  H  604  1  0.20276200  0.08041000  0.78043900  1
  H  606  1  0.11275200  0.14331100  0.83615400  1
  H  607  1  0.13528800  0.15728900  0.82283300  1
  H  636  1  0.24631400  0.87632000  0.36167300  1
  H  637  1  0.24052300  0.90643600  0.35395800  1
  H  638  1  0.20168300  0.95412500  0.31901800  1
  H  639  1  0.16594900  0.96702500  0.30011300  1
  H  640  1  0.12997700  0.91643000  0.28992800  1
  H  641  1  0.18057200  0.86187000  0.32489200  1
  H  642  1  0.12643800  0.91406000  0.33432300  1
  H  643  1  0.05754000  0.87656400  0.33485000  1
  H  644  1  0.08376900  0.85845900  0.31464800  1
  H  645  1  0.21910800  0.89671400  0.29265700  1
  H  646  1  0.15056700  0.85606900  0.26473900  1
  H  647  1  0.19598300  0.86253100  0.25064500  1
  H  650  1  0.22990300  0.92453900  0.32551200  1
  H  651  1  0.20288500  0.92905400  0.34203100  1
  H  653  1  0.11251800  0.86627700  0.28633600  1
  H  654  1  0.13505800  0.85226900  0.29962200  1
  H  683  1  0.24569500  0.70438000  0.93283800  1
  H  684  1  0.23982200  0.71196900  0.96298100  1
  H  685  1  0.20133400  0.74697700  0.01073000  1
  H  686  1  0.16578300  0.76599400  0.02365200  1
  H  687  1  0.13003300  0.77645200  0.97305600  1
  H  688  1  0.18041300  0.74148000  0.91844100  1
  H  689  1  0.12611100  0.73207300  0.97071300  1
  H  690  1  0.05711800  0.73170800  0.93328400  1
  H  691  1  0.08345200  0.75183700  0.91514600  1
  H  692  1  0.21909600  0.77342700  0.95320900  1
  H  693  1  0.15044500  0.80168600  0.91286300  1
  H  694  1  0.19605100  0.81561700  0.91922700  1
  H  697  1  0.22951300  0.74039000  0.98117300  1
  H  698  1  0.20223200  0.72400100  0.98559200  1
  H  700  1  0.11233400  0.78009900  0.92303100  1
  H  701  1  0.13478000  0.76683500  0.90894900  1
  H  730  1  0.24614400  0.30523900  0.18961400  1
  H  731  1  0.24016300  0.29759500  0.15949200  1
  H  732  1  0.20138900  0.26255600  0.11186000  1
  H  733  1  0.16572100  0.24357500  0.09900600  1
  H  734  1  0.12997100  0.23332500  0.14964800  1
  H  735  1  0.18064800  0.26833300  0.20414400  1
  H  736  1  0.12625000  0.27774000  0.15196500  1
  H  737  1  0.05738800  0.27821000  0.18946700  1
  H  738  1  0.08371800  0.25805500  0.20759700  1
  H  739  1  0.21909500  0.23622200  0.16928600  1
  H  740  1  0.15079500  0.20827800  0.21006200  1
  H  741  1  0.19629100  0.19427600  0.20362800  1
  H  744  1  0.22964400  0.26915500  0.14139000  1
  H  745  1  0.20246600  0.28559400  0.13693200  1
  H  747  1  0.11258000  0.22977000  0.19978700  1
  H  748  1  0.13506900  0.24310100  0.21378300  1
  H  777  1  0.75099500  0.65908900  0.84486100  1
  H  778  1  0.76222800  0.62868200  0.84190800  1
  H  779  1  0.74257000  0.56932300  0.82357800  1
  H  780  1  0.71285900  0.54662500  0.81172000  1
  H  781  1  0.64911500  0.58421100  0.79599400  1
  H  782  1  0.67037900  0.65121500  0.81792700  1
  H  783  1  0.65650500  0.60302500  0.84278800  1
  H  784  1  0.56777400  0.61972200  0.83972100  1
  H  785  1  0.57463400  0.62785600  0.80969800  1
  H  786  1  0.72224000  0.62948700  0.78859200  1
  H  787  1  0.63080600  0.62771400  0.75523500  1
  H  788  1  0.67466200  0.63716200  0.74116900  1
  H  791  1  0.75434900  0.60332800  0.81921700  1
  H  792  1  0.73716800  0.59816000  0.83980900  1
  H  794  1  0.60762800  0.61226200  0.78318600  1
  H  795  1  0.61002500  0.63565000  0.78584700  1
  H  824  1  0.75095100  0.35053100  0.27761000  1
  H  825  1  0.76222800  0.38092500  0.28063800  1
  H  826  1  0.74268100  0.44025000  0.29911100  1
  H  827  1  0.71295000  0.46295500  0.31093600  1
  H  828  1  0.64906200  0.42538900  0.32651200  1
  H  829  1  0.67034800  0.35838600  0.30456400  1
  H  830  1  0.65653000  0.40676900  0.27978700  1
  H  831  1  0.56783600  0.38994200  0.28265500  1
  H  832  1  0.57464000  0.38163500  0.31262300  1
  H  833  1  0.72217300  0.38018700  0.33398700  1
  H  834  1  0.63056100  0.38171700  0.36718300  1
  H  835  1  0.67441000  0.37236600  0.38132200  1
  H  838  1  0.75435400  0.40622200  0.30342400  1
  H  839  1  0.73728300  0.41145100  0.28281700  1
  H  841  1  0.60742400  0.39714300  0.33923400  1
  H  842  1  0.60999800  0.37376900  0.33649500  1
  H  871  1  0.75084900  0.22102100  0.71559100  1
  H  872  1  0.76206900  0.22404700  0.68518800  1
  H  873  1  0.74243100  0.24254600  0.62588200  1
  H  874  1  0.71269100  0.25440200  0.60319800  1
  H  875  1  0.64884800  0.26995700  0.64080500  1
  H  876  1  0.67022000  0.24796100  0.70778600  1
  H  877  1  0.65639500  0.22321500  0.65925400  1
  H  878  1  0.56777900  0.22586100  0.67625900  1
  H  879  1  0.57450800  0.25579400  0.68473200  1
  H  880  1  0.72193700  0.27743600  0.68591800  1
  H  881  1  0.63016900  0.31047000  0.68461400  1
  H  882  1  0.67398100  0.32470600  0.69381300  1
  H  885  1  0.75415900  0.24681600  0.65989500  1
  H  886  1  0.73703300  0.22622400  0.65467300  1
  H  888  1  0.60706600  0.28252000  0.66925300  1
  H  889  1  0.60980100  0.27970000  0.69261100  1
  H  918  1  0.75073200  0.78877200  0.40707300  1
  H  919  1  0.76191400  0.78579500  0.43748500  1
  H  920  1  0.74232000  0.76727500  0.49679000  1
  H  921  1  0.71264500  0.75535000  0.51946100  1
  H  922  1  0.64889700  0.73968800  0.48184800  1
  H  923  1  0.67027100  0.76163700  0.41484600  1
  H  924  1  0.65630900  0.78644600  0.46334400  1
  H  925  1  0.56773400  0.78369800  0.44628600  1
  H  926  1  0.57456100  0.75376000  0.43783500  1
  H  927  1  0.72200100  0.73225600  0.43674000  1
  H  928  1  0.63032000  0.69914400  0.43809600  1
  H  929  1  0.67417800  0.68492000  0.42896700  1
  H  932  1  0.75412200  0.76302300  0.46278900  1
  H  933  1  0.73683800  0.78357600  0.46798600  1
  H  935  1  0.60709900  0.72708500  0.45335200  1
  H  936  1  0.60999400  0.72988000  0.42999800  1
  H  965  1  0.26673500  0.35066700  0.84488900  1
  H  966  1  0.25552700  0.38107500  0.84184200  1
  H  967  1  0.27540600  0.44041600  0.82347500  1
  H  968  1  0.30523400  0.46308400  0.81167900  1
  H  969  1  0.36920800  0.42546500  0.79635100  1
  H  970  1  0.34767900  0.35851900  0.81830500  1
  H  971  1  0.36119400  0.40735500  0.84299300  1
  H  972  1  0.44968400  0.39002400  0.84098800  1
  H  973  1  0.44328000  0.38120300  0.81113600  1
  H  974  1  0.29623100  0.38051800  0.78855400  1
  H  975  1  0.38857800  0.38133600  0.75611300  1
  H  976  1  0.34484600  0.37243600  0.74156900  1
  H  979  1  0.26367100  0.40641100  0.81916600  1
  H  980  1  0.28064900  0.41160500  0.83981000  1
  H  982  1  0.41151100  0.39647000  0.78410500  1
  H  983  1  0.40809300  0.37316800  0.78712400  1
  H  1012  1  0.26659200  0.65866800  0.27736300  1
  H  1013  1  0.25549300  0.62824500  0.28045300  1
  H  1014  1  0.27542800  0.56900000  0.29913600  1
  H  1015  1  0.30529800  0.54640900  0.31103100  1
  H  1016  1  0.36917400  0.58415700  0.32624000  1
  H  1017  1  0.34744600  0.65098600  0.30408700  1
  H  1018  1  0.36111400  0.60132800  0.27971000  1
  H  1019  1  0.44920400  0.61943400  0.28081100  1
  H  1020  1  0.44281800  0.62935600  0.31031600  1
  H  1021  1  0.29570100  0.62760500  0.33418400  1
  H  1022  1  0.38903600  0.63069900  0.36551000  1
  H  1023  1  0.34501900  0.63851200  0.38034600  1
  H  1026  1  0.26360900  0.60299100  0.30320800  1
  H  1027  1  0.28075000  0.59773700  0.28262700  1
  H  1029  1  0.41231800  0.61534300  0.33805500  1
  H  1030  1  0.40701100  0.63834800  0.33389400  1
  H  1059  1  0.26702500  0.78853000  0.71579600  1
  H  1060  1  0.25569200  0.78542800  0.68541800  1
  H  1061  1  0.27528400  0.76693300  0.62609100  1
  H  1062  1  0.30508500  0.75516100  0.60338900  1
  H  1063  1  0.36914100  0.73981700  0.64095000  1
  H  1064  1  0.34785800  0.76183200  0.70789900  1
  H  1065  1  0.36134200  0.78652600  0.65941200  1
  H  1066  1  0.45008000  0.78397700  0.67619900  1
  H  1067  1  0.44351700  0.75402900  0.68466900  1
  H  1068  1  0.29613200  0.73220300  0.68611500  1
  H  1069  1  0.38803600  0.69929800  0.68472800  1
  H  1070  1  0.34425100  0.68500900  0.69401600  1
  H  1073  1  0.26369100  0.76264600  0.66013000  1
  H  1074  1  0.28061300  0.78329200  0.65487200  1
  H  1076  1  0.41095800  0.72724900  0.66930100  1
  H  1077  1  0.40833400  0.73010600  0.69265700  1
  H  1106  1  0.26700700  0.22133200  0.40687700  1
  H  1107  1  0.25569000  0.22437400  0.43726500  1
  H  1108  1  0.27535100  0.24270000  0.49663400  1
  H  1109  1  0.30513800  0.25445700  0.51935000  1
  H  1110  1  0.36905900  0.27000400  0.48179100  1
  H  1111  1  0.34779800  0.24806200  0.41480200  1
  H  1112  1  0.36145700  0.22328600  0.46308700  1
  H  1113  1  0.45020200  0.22613900  0.44637600  1
  H  1114  1  0.44347700  0.25614200  0.43811900  1
  H  1115  1  0.29593100  0.27755400  0.43660900  1
  H  1116  1  0.38758700  0.31070400  0.43813700  1
  H  1117  1  0.34373200  0.32487400  0.42878000  1
  H  1120  1  0.26368400  0.24709200  0.46260300  1
  H  1121  1  0.28064900  0.22644700  0.46780400  1
  H  1123  1  0.41066400  0.28277400  0.45358800  1
  H  1124  1  0.40815700  0.28000800  0.43021600  1
  H  1153  1  0.28328200  0.35805400  0.26728800  1
  H  1154  1  0.28371600  0.38959500  0.26900500  1
  H  1155  1  0.31459200  0.44564100  0.29569500  1
  H  1156  1  0.34474400  0.46292600  0.31502600  1
  H  1157  1  0.38220300  0.41619900  0.33573200  1
  H  1158  1  0.34873300  0.35552600  0.30687900  1
  H  1159  1  0.39169200  0.40291100  0.28790000  1
  H  1160  1  0.47064500  0.37887100  0.30540600  1
  H  1161  1  0.44573500  0.36684700  0.33022400  1
  H  1162  1  0.29611900  0.38912000  0.32784200  1
  H  1163  1  0.36353800  0.36320300  0.37044000  1
  H  1164  1  0.31237400  0.36434800  0.37696100  1
  H  1167  1  0.28972400  0.41389900  0.29314600  1
  H  1168  1  0.31852100  0.41655200  0.27737600  1
  H  1170  1  0.40489100  0.37795800  0.35183200  1
  H  1171  1  0.39506200  0.35729600  0.34208300  1
  H  1200  1  0.28313900  0.65161400  0.85546300  1
  H  1201  1  0.28362500  0.62007200  0.85378600  1
  H  1202  1  0.31449000  0.56400600  0.82713700  1
  H  1203  1  0.34462700  0.54670500  0.80780600  1
  H  1204  1  0.38202400  0.59342200  0.78703200  1
  H  1205  1  0.34849000  0.65412600  0.81581000  1
  H  1206  1  0.39153900  0.60685500  0.83487900  1
  H  1207  1  0.47048800  0.63077900  0.81719900  1
  H  1208  1  0.44556700  0.64264400  0.79231800  1
  H  1209  1  0.29587300  0.62066500  0.79499500  1
  H  1210  1  0.36334800  0.64602400  0.75209400  1
  H  1211  1  0.31213300  0.64501400  0.74567200  1
  H  1214  1  0.28960900  0.59574600  0.82966300  1
  H  1215  1  0.31842800  0.59312100  0.84542400  1
  H  1217  1  0.40467800  0.63132500  0.77080600  1
  H  1218  1  0.39497100  0.65210200  0.78035400  1
  H  1247  1  0.28328900  0.79898800  0.41489600  1
  H  1248  1  0.28391700  0.79744600  0.44644700  1
  H  1249  1  0.31488800  0.77092700  0.50258600  1
  H  1250  1  0.34497200  0.75156200  0.51989200  1
  H  1251  1  0.38197500  0.73055100  0.47317500  1
  H  1252  1  0.34826200  0.75910000  0.41243800  1
  H  1253  1  0.39158300  0.77844000  0.45942800  1
  H  1254  1  0.47039700  0.76050000  0.43553500  1
  H  1255  1  0.44541000  0.73547600  0.42401500  1
  H  1256  1  0.29570100  0.73864600  0.44571500  1
  H  1257  1  0.36334800  0.69496500  0.42189800  1
  H  1258  1  0.31208400  0.68859400  0.42295400  1
  H  1261  1  0.28984800  0.77341700  0.47088400  1
  H  1262  1  0.31881500  0.78910200  0.47336800  1
  H  1264  1  0.40463000  0.71411800  0.43593900  1
  H  1265  1  0.39486900  0.72319300  0.41496000  1
  H  1294  1  0.28355900  0.21069400  0.70786900  1
  H  1295  1  0.28407200  0.21232100  0.67632300  1
  H  1296  1  0.31486600  0.23896200  0.62022700  1
  H  1297  1  0.34491700  0.25833300  0.60292600  1
  H  1298  1  0.38214600  0.27922500  0.64963300  1
  H  1299  1  0.34872200  0.25046600  0.71034800  1
  H  1300  1  0.39174700  0.23128800  0.66319800  1
  H  1301  1  0.47076000  0.24913500  0.68692500  1
  H  1302  1  0.44585900  0.27410100  0.69864300  1
  H  1303  1  0.29603200  0.27110200  0.67712200  1
  H  1304  1  0.36362600  0.31436400  0.70173600  1
  H  1305  1  0.31235800  0.32069500  0.70089400  1
  H  1308  1  0.28995400  0.23641400  0.65196200  1
  H  1309  1  0.31887500  0.22071500  0.64937100  1
  H  1311  1  0.40488400  0.29552300  0.68711400  1
  H  1312  1  0.39536700  0.28619300  0.70802100  1
  H  1341  1  0.73520200  0.65143900  0.26733100  1
  H  1342  1  0.73478400  0.61989400  0.26906700  1
  H  1343  1  0.70390600  0.56385200  0.29579300  1
  H  1344  1  0.67369800  0.54657900  0.31509700  1
  H  1345  1  0.63617100  0.59331700  0.33574300  1
  H  1346  1  0.66973100  0.65396900  0.30691100  1
  H  1347  1  0.62668400  0.60630700  0.28808100  1
  H  1348  1  0.54798300  0.63094200  0.30513800  1
  H  1349  1  0.57292200  0.64316100  0.32984600  1
  H  1350  1  0.72229900  0.62046200  0.32793600  1
  H  1351  1  0.65465700  0.64628100  0.37046100  1
  H  1352  1  0.70579400  0.64511500  0.37708300  1
  H  1355  1  0.72877200  0.59559300  0.29323400  1
  H  1356  1  0.69999700  0.59293500  0.27744900  1
  H  1358  1  0.61333300  0.63181500  0.35167600  1
  H  1359  1  0.62356200  0.65240600  0.34192300  1
  H  1388  1  0.73511100  0.35817700  0.85532000  1
  H  1389  1  0.73468000  0.38972200  0.85358900  1
  H  1390  1  0.70379800  0.44576800  0.82686900  1
  H  1391  1  0.67363200  0.46303600  0.80753300  1
  H  1392  1  0.63623900  0.41629000  0.78682300  1
  H  1393  1  0.66975300  0.35564100  0.81567000  1
  H  1394  1  0.62672600  0.40314700  0.83457800  1
  H  1395  1  0.54793700  0.37877000  0.81729200  1
  H  1396  1  0.57288000  0.36665600  0.79252900  1
  H  1397  1  0.72235500  0.38913400  0.79471500  1
  H  1398  1  0.65479000  0.36347700  0.75204500  1
  H  1399  1  0.70595100  0.36461900  0.74549000  1
  H  1402  1  0.72870800  0.41403400  0.82942700  1
  H  1403  1  0.69989300  0.41666900  0.84518900  1
  H  1405  1  0.61345700  0.37798200  0.77080100  1
  H  1406  1  0.62352500  0.35734300  0.78051200  1
  H  1435  1  0.73472200  0.21083500  0.41460800  1
  H  1436  1  0.73437900  0.21255900  0.44614800  1
  H  1437  1  0.70366300  0.23925200  0.50222900  1
  H  1438  1  0.67355700  0.25858300  0.51954100  1
  H  1439  1  0.63608000  0.27935200  0.47284700  1
  H  1440  1  0.66938800  0.25050800  0.41214300  1
  H  1441  1  0.62655800  0.23147200  0.45941800  1
  H  1442  1  0.54753200  0.24914400  0.43558300  1
  H  1443  1  0.57242900  0.27401300  0.42365100  1
  H  1444  1  0.72215300  0.27138400  0.44559700  1
  H  1445  1  0.65469900  0.31416600  0.42002000  1
  H  1446  1  0.70591200  0.32060000  0.42101900  1
  H  1449  1  0.72848900  0.23671600  0.47047200  1
  H  1450  1  0.69967400  0.22095600  0.47312500  1
  H  1452  1  0.61338400  0.29555100  0.43482600  1
  H  1453  1  0.62303400  0.28589100  0.41409100  1
  H  1482  1  0.73509100  0.79878700  0.70805000  1
  H  1483  1  0.73470700  0.79705900  0.67650500  1
  H  1484  1  0.70387300  0.77038000  0.62044300  1
  H  1485  1  0.67369800  0.75107600  0.60314200  1
  H  1486  1  0.63612200  0.73039800  0.64985200  1
  H  1487  1  0.66958500  0.75922800  0.71054400  1
  H  1488  1  0.62665300  0.77816700  0.66306400  1
  H  1489  1  0.54775100  0.76079400  0.68724900  1
  H  1490  1  0.57267000  0.73602600  0.69938000  1
  H  1491  1  0.72220600  0.73822500  0.67694200  1
  H  1492  1  0.65473200  0.69570800  0.70293800  1
  H  1493  1  0.70587600  0.68914300  0.70176900  1
  H  1496  1  0.72869700  0.77290700  0.65220000  1
  H  1497  1  0.69994600  0.78870700  0.64953500  1
  H  1499  1  0.61338600  0.71433700  0.68824800  1
  H  1500  1  0.62334300  0.72413500  0.70886600  1
  H  1510  1  0.16944400  0.01051900  0.25780200  1
  H  1512  1  0.09680800  0.99129100  0.30075800  1
  H  1513  1  0.11262800  0.02162400  0.30057700  1
  H  1515  1  0.17440700  0.98251500  0.24494500  1
  H  1516  1  0.14122600  0.97022400  0.24559200  1
  H  1517  1  0.17033200  0.96532600  0.26064700  1
  H  1519  1  0.17033400  0.03882000  0.27003800  1
  H  1521  1  0.09275700  0.96470300  0.27261700  1
  H  1527  1  0.16957300  0.99902100  0.86481600  1
  H  1529  1  0.09686300  0.01821800  0.82189100  1
  H  1530  1  0.11262500  0.98787500  0.82211300  1
  H  1532  1  0.17461500  0.02704100  0.87762000  1
  H  1533  1  0.14144700  0.03934400  0.87698500  1
  H  1534  1  0.17052100  0.04421100  0.86189800  1
  H  1536  1  0.17025400  0.97065500  0.85272200  1
  H  1538  1  0.09291200  0.04483900  0.85001100  1
  H  1544  1  0.16959500  0.80831500  0.06718100  1
  H  1546  1  0.09665000  0.76557300  0.04790300  1
  H  1547  1  0.11239000  0.76572000  0.07825100  1
  H  1549  1  0.17475100  0.82114100  0.03918000  1
  H  1550  1  0.14159000  0.82060100  0.02686600  1
  H  1551  1  0.17056900  0.80545200  0.02198800  1
  H  1553  1  0.17011500  0.79622500  0.09553000  1
  H  1555  1  0.09285500  0.79374700  0.02133800  1
  H  1561  1  0.16928400  0.20126800  0.05553300  1
  H  1563  1  0.09665500  0.24418900  0.07485200  1
  H  1564  1  0.11244300  0.24405200  0.04451200  1
  H  1566  1  0.17432900  0.18839100  0.08351900  1
  H  1567  1  0.14115600  0.18898800  0.09582000  1
  H  1568  1  0.17022600  0.20406500  0.10073000  1
  H  1570  1  0.17008500  0.21350200  0.02725400  1
  H  1572  1  0.09269200  0.21593500  0.10141900  1
  H  1578  1  0.84734400  0.99921900  0.25798300  1
  H  1580  1  0.92043300  0.01862200  0.30059200  1
  H  1581  1  0.90434600  0.98834400  0.30073100  1
  H  1583  1  0.84244800  0.02713900  0.24492700  1
  H  1584  1  0.87571400  0.03935700  0.24536000  1
  H  1585  1  0.84680000  0.04442900  0.26049400  1
  H  1587  1  0.84555100  0.97125500  0.27095100  1
  H  1589  1  0.92420100  0.04509300  0.27206900  1
  H  1595  1  0.84789000  0.01045600  0.86485200  1
  H  1597  1  0.92088200  0.99111400  0.82215100  1
  H  1598  1  0.90472600  0.02137900  0.82203600  1
  H  1600  1  0.84312700  0.98253100  0.87792400  1
  H  1601  1  0.87641300  0.97033500  0.87743600  1
  H  1602  1  0.84744300  0.96524700  0.86234700  1
  H  1604  1  0.84607000  0.03846700  0.85194200  1
  H  1606  1  0.92487100  0.96464900  0.85058800  1
  H  1612  1  0.84737300  0.20160700  0.06697600  1
  H  1614  1  0.92100300  0.24391300  0.04764600  1
  H  1615  1  0.90508700  0.24398300  0.07796100  1
  H  1617  1  0.84219600  0.18868400  0.03901100  1
  H  1618  1  0.87541800  0.18901500  0.02674900  1
  H  1619  1  0.84666900  0.20429400  0.02177100  1
  H  1621  1  0.84641100  0.21412700  0.09515400  1
  H  1623  1  0.92436000  0.21557700  0.02110700  1
  H  1629  1  0.84818000  0.80817300  0.05553200  1
  H  1631  1  0.92140100  0.76561900  0.07485800  1
  H  1632  1  0.90575000  0.76574600  0.04448700  1
  H  1634  1  0.84283100  0.82096000  0.08354100  1
  H  1635  1  0.87596200  0.82050800  0.09588700  1
  H  1636  1  0.84709000  0.80527100  0.10072500  1
  H  1638  1  0.84796500  0.79616900  0.02714200  1
  H  1640  1  0.92485300  0.79380000  0.10146000  1
  H  1646  1  0.69103200  0.51005300  0.76670200  1
  H  1648  1  0.60675200  0.49170600  0.80167200  1
  H  1649  1  0.62432900  0.52155700  0.80386800  1
  H  1651  1  0.69725200  0.48223800  0.75349800  1
  H  1652  1  0.66351100  0.47081600  0.75077800  1
  H  1653  1  0.68818400  0.46477500  0.76810800  1
  H  1655  1  0.69283400  0.53694900  0.78266100  1
  H  1657  1  0.60747100  0.46659400  0.77303700  1
  H  1663  1  0.69095500  0.49951300  0.35590600  1
  H  1665  1  0.60679400  0.51790100  0.32085300  1
  H  1666  1  0.62435600  0.48804300  0.31866200  1
  H  1668  1  0.69716800  0.52732100  0.36912400  1
  H  1669  1  0.66342500  0.53874800  0.37181800  1
  H  1670  1  0.68814400  0.54479400  0.35451400  1
  H  1672  1  0.69279200  0.47261900  0.33996100  1
  H  1674  1  0.60746900  0.54299200  0.34953300  1
  H  1680  1  0.69077600  0.29942800  0.56670100  1
  H  1682  1  0.60670300  0.26435300  0.54822600  1
  H  1683  1  0.62420100  0.26215200  0.57809400  1
  H  1685  1  0.69706700  0.31264400  0.53889800  1
  H  1686  1  0.66334700  0.31534700  0.52744900  1
  H  1687  1  0.68807100  0.29804200  0.52141400  1
  H  1689  1  0.69259100  0.28344700  0.59356800  1
  H  1691  1  0.60739600  0.29308200  0.52317300  1
  H  1697  1  0.69075600  0.71025100  0.55597900  1
  H  1699  1  0.60681200  0.74542900  0.57448000  1
  H  1700  1  0.62432900  0.74762800  0.54461100  1
  H  1702  1  0.69701400  0.69701300  0.58377400  1
  H  1703  1  0.66328100  0.69432900  0.59521400  1
  H  1704  1  0.68804500  0.71160700  0.60127200  1
  H  1706  1  0.69265300  0.72629300  0.52914500  1
  H  1708  1  0.60744600  0.71663600  0.59953100  1
  H  1714  1  0.32743500  0.49962600  0.76681100  1
  H  1716  1  0.41137600  0.51802600  0.80204200  1
  H  1717  1  0.39383400  0.48815900  0.80417800  1
  H  1719  1  0.32120100  0.52744900  0.75363400  1
  H  1720  1  0.35494500  0.53888200  0.75097600  1
  H  1721  1  0.33018100  0.54491300  0.76826200  1
  H  1723  1  0.32559000  0.47271600  0.78268100  1
  H  1725  1  0.41077300  0.54312600  0.77328100  1
  H  1731  1  0.32755000  0.50999700  0.35595000  1
  H  1733  1  0.41151300  0.49158000  0.32073900  1
  H  1734  1  0.39394700  0.52144000  0.31857300  1
  H  1736  1  0.32134500  0.48218100  0.36916200  1
  H  1737  1  0.35509700  0.47075400  0.37182200  1
  H  1738  1  0.33032700  0.46470800  0.35454400  1
  H  1740  1  0.32566600  0.53689200  0.34003400  1
  H  1742  1  0.41095200  0.46650900  0.34948800  1
  H  1748  1  0.32718900  0.71043300  0.56677700  1
  H  1750  1  0.41158900  0.74539800  0.54859600  1
  H  1751  1  0.39396000  0.74751000  0.57844600  1
  H  1753  1  0.32096900  0.69733100  0.53891000  1
  H  1754  1  0.35473000  0.69460700  0.52751000  1
  H  1755  1  0.33012800  0.71198400  0.52150000  1
  H  1757  1  0.32550000  0.72614400  0.59378700  1
  H  1759  1  0.41083200  0.71680100  0.52341500  1
  H  1765  1  0.32714000  0.29927700  0.55598300  1
  H  1767  1  0.41159700  0.26438000  0.57420000  1
  H  1768  1  0.39393600  0.26220200  0.54436100  1
  H  1770  1  0.32094200  0.31243300  0.58382600  1
  H  1771  1  0.35471300  0.31519000  0.59520900  1
  H  1772  1  0.33013200  0.29781700  0.60126100  1
  H  1774  1  0.32539100  0.28344200  0.52903000  1
  H  1776  1  0.41085200  0.29300300  0.59933700  1
  H  1782  1  0.26652500  0.16834400  0.38398500  1
  H  1784  1  0.25912700  0.22622000  0.35667000  1
  H  1785  1  0.22337000  0.20386600  0.34962400  1
  H  1787  1  0.32170700  0.17605000  0.38870500  1
  H  1788  1  0.30220400  0.18427500  0.40742300  1
  H  1789  1  0.32807100  0.19777000  0.39626500  1
  H  1791  1  0.21982600  0.16035700  0.37114100  1
  H  1793  1  0.31715200  0.22704800  0.36571600  1
  H  1799  1  0.26621600  0.84144900  0.73886400  1
  H  1801  1  0.25895000  0.78341300  0.76586600  1
  H  1802  1  0.22296100  0.80564300  0.77288700  1
  H  1804  1  0.32151700  0.83385500  0.73423400  1
  H  1805  1  0.30212200  0.82570800  0.71544000  1
  H  1806  1  0.32798300  0.81218100  0.72656100  1
  H  1808  1  0.21915000  0.84915700  0.75149000  1
  H  1810  1  0.31715900  0.78282400  0.75697700  1
  H  1816  1  0.26582000  0.68201200  0.22447800  1
  H  1818  1  0.25832200  0.70886200  0.28257000  1
  H  1819  1  0.22249000  0.71599000  0.26029000  1
  H  1821  1  0.32104800  0.67733600  0.23215400  1
  H  1822  1  0.30162700  0.65851500  0.24021100  1
  H  1823  1  0.32742600  0.66959700  0.25381100  1
  H  1825  1  0.21903200  0.69483900  0.21661200  1
  H  1827  1  0.31647100  0.69998800  0.28321200  1
  H  1833  1  0.26615000  0.32775000  0.89789800  1
  H  1835  1  0.25882400  0.30040300  0.84003300  1
  H  1836  1  0.22308300  0.29333700  0.86238900  1
  H  1838  1  0.32130100  0.33248800  0.89022000  1
  H  1839  1  0.30183300  0.35120100  0.88195500  1
  H  1840  1  0.32772600  0.34001900  0.86849700  1
  H  1842  1  0.21958500  0.31480400  0.90594200  1
  H  1844  1  0.31682300  0.30945900  0.83921100  1
  H  1850  1  0.75200300  0.84128300  0.38327600  1
  H  1852  1  0.75937800  0.78291500  0.35701500  1
  H  1853  1  0.79552700  0.80502000  0.34987500  1
  H  1855  1  0.69659300  0.83376000  0.38783400  1
  H  1856  1  0.71587600  0.82586600  0.40677700  1
  H  1857  1  0.69009500  0.81218500  0.39577900  1
  H  1859  1  0.79990600  0.84835500  0.37119300  1
  H  1861  1  0.70101400  0.78250800  0.36575000  1
  H  1867  1  0.75186200  0.16830200  0.73907000  1
  H  1869  1  0.75916800  0.22648300  0.76574100  1
  H  1870  1  0.79515600  0.20428600  0.77287500  1
  H  1872  1  0.69654500  0.17589200  0.73441200  1
  H  1873  1  0.71594000  0.18390400  0.71556200  1
  H  1874  1  0.69011000  0.19752000  0.72660000  1
  H  1876  1  0.79919800  0.16091600  0.75145700  1
  H  1878  1  0.70096300  0.22703200  0.75686100  1
  H  1884  1  0.75172700  0.32710600  0.22483800  1
  H  1886  1  0.75927200  0.30044900  0.28301700  1
  H  1887  1  0.79519100  0.29332800  0.26077700  1
  H  1889  1  0.69644100  0.33176200  0.23249200  1
  H  1890  1  0.71585600  0.35060800  0.24049800  1
  H  1891  1  0.69006800  0.33955700  0.25413300  1
  H  1893  1  0.79893500  0.31467100  0.21734100  1
  H  1895  1  0.70103100  0.30929100  0.28362100  1
  H  1901  1  0.75110500  0.68213200  0.89781400  1
  H  1903  1  0.75911000  0.70928300  0.83989200  1
  H  1904  1  0.79464300  0.71638000  0.86235300  1
  H  1906  1  0.69601900  0.67741400  0.88994000  1
  H  1907  1  0.71554400  0.65866000  0.88181800  1
  H  1908  1  0.68982300  0.66981100  0.86821700  1
  H  1910  1  0.79736900  0.69507600  0.90599000  1
  H  1912  1  0.70108000  0.70030700  0.83890100  1
  H  1918  1  0.74349200  0.84474500  0.74418800  1
  H  1920  1  0.76774100  0.78361100  0.75733800  1
  H  1921  1  0.80178100  0.80667300  0.76515200  1
  H  1923  1  0.68851100  0.83344800  0.74311500  1
  H  1924  1  0.70422200  0.83135600  0.72162200  1
  H  1925  1  0.68446900  0.81357000  0.73110900  1
  H  1927  1  0.80117700  0.84910300  0.74855900  1
  H  1929  1  0.70794400  0.78103300  0.75519700  1
  H  1935  1  0.74337700  0.16495600  0.37847200  1
  H  1937  1  0.76761000  0.22615200  0.36557800  1
  H  1938  1  0.80182300  0.20314400  0.35787900  1
  H  1940  1  0.68831400  0.17622000  0.37937000  1
  H  1941  1  0.70385100  0.17825500  0.40091500  1
  H  1942  1  0.68415500  0.19606200  0.39142700  1
  H  1944  1  0.80135600  0.16082700  0.37445900  1
  H  1946  1  0.70765200  0.22860900  0.36747000  1
  H  1952  1  0.74387700  0.32191800  0.90118400  1
  H  1954  1  0.76809500  0.30917400  0.83995300  1
  H  1955  1  0.80232900  0.30144200  0.86293900  1
  H  1957  1  0.68880500  0.32283500  0.88992600  1
  H  1958  1  0.70433900  0.34438500  0.88794400  1
  H  1959  1  0.68464200  0.33494100  0.87011500  1
  H  1961  1  0.80195600  0.31795000  0.90523000  1
  H  1963  1  0.70810100  0.31100900  0.83754700  1
  H  1969  1  0.74360700  0.68752700  0.22138800  1
  H  1971  1  0.76806400  0.70054500  0.28252800  1
  H  1972  1  0.80216600  0.70823600  0.25945200  1
  H  1974  1  0.68862200  0.68660200  0.23269700  1
  H  1975  1  0.70417400  0.66506800  0.23479700  1
  H  1976  1  0.68450200  0.67461600  0.25258300  1
  H  1978  1  0.80152700  0.69161900  0.21714200  1
  H  1980  1  0.70812100  0.69860200  0.28509600  1
  H  1986  1  0.27551400  0.16478100  0.74403300  1
  H  1988  1  0.25050700  0.22583600  0.75704000  1
  H  1989  1  0.21669000  0.20264400  0.76483000  1
  H  1991  1  0.33035100  0.17627200  0.74303300  1
  H  1992  1  0.31475100  0.17831000  0.72150700  1
  H  1993  1  0.33427800  0.19616400  0.73103600  1
  H  1995  1  0.21811700  0.16015400  0.74831300  1
  H  1997  1  0.31031500  0.22866500  0.75500200  1
  H  2003  1  0.27511400  0.84479600  0.37846200  1
  H  2005  1  0.25006000  0.78367400  0.36579400  1
  H  2006  1  0.21624000  0.80682900  0.35790800  1
  H  2008  1  0.32997500  0.83327200  0.37950200  1
  H  2009  1  0.31436400  0.83139000  0.40104100  1
  H  2010  1  0.33384500  0.81345500  0.39163400  1
  H  2012  1  0.21768900  0.84937800  0.37422900  1
  H  2014  1  0.30987300  0.78088300  0.36777000  1
  H  2020  1  0.27465600  0.68786000  0.90135600  1
  H  2022  1  0.25019500  0.70078100  0.84020000  1
  H  2023  1  0.21616700  0.70859500  0.86327100  1
  H  2025  1  0.32962200  0.68683600  0.89001800  1
  H  2026  1  0.31400100  0.66531300  0.88799000  1
  H  2027  1  0.33367000  0.67478900  0.87016400  1
  H  2029  1  0.21715400  0.69211000  0.90575100  1
  H  2031  1  0.31002800  0.69876500  0.83759700  1
  H  2037  1  0.27517600  0.32207300  0.22125800  1
  H  2039  1  0.25057600  0.30874000  0.28230500  1
  H  2040  1  0.21668100  0.30097700  0.25914500  1
  H  2042  1  0.33007000  0.32310800  0.23264600  1
  H  2043  1  0.31439300  0.34460400  0.23480700  1
  H  2044  1  0.33405100  0.33502300  0.25258300  1
  H  2046  1  0.21788300  0.31764100  0.21664700  1
  H  2048  1  0.31031300  0.31089600  0.28504900  1
  H  2054  1  0.26573600  0.16411800  0.19991200  1
  H  2056  1  0.22952000  0.19488500  0.25181600  1
  H  2057  1  0.24148100  0.21118100  0.22594900  1
  H  2059  1  0.27002800  0.13682100  0.21436500  1
  H  2060  1  0.23655800  0.13372900  0.22588100  1
  H  2061  1  0.27023800  0.13689300  0.23772600  1
  H  2063  1  0.27825800  0.19675800  0.18884100  1
  H  2065  1  0.21851000  0.16857300  0.26611500  1
  H  2071  1  0.26686600  0.84538700  0.92226100  1
  H  2073  1  0.22832600  0.81491200  0.87078300  1
  H  2074  1  0.24007000  0.79856700  0.89666800  1
  H  2076  1  0.27230600  0.87249600  0.90750500  1
  H  2077  1  0.23876500  0.87610100  0.89621100  1
  H  2078  1  0.27199400  0.87221500  0.88414000  1
  H  2080  1  0.27822100  0.81282500  0.93350900  1
  H  2082  1  0.22043200  0.84130300  0.85574200  1
  H  2088  1  0.26613800  0.86598600  0.22049500  1
  H  2090  1  0.22885200  0.81428100  0.25114300  1
  H  2091  1  0.24060500  0.84018300  0.26745200  1
  H  2093  1  0.27120700  0.85132200  0.19331800  1
  H  2094  1  0.23771300  0.83991200  0.18993800  1
  H  2095  1  0.27115400  0.82795800  0.19353100  1
  H  2097  1  0.27800600  0.87720000  0.25304400  1
  H  2099  1  0.22004300  0.79941700  0.22479100  1
  H  2105  1  0.26511900  0.14328900  0.90199600  1
  H  2107  1  0.22975900  0.19532800  0.87110200  1
  H  2108  1  0.24207100  0.16950500  0.85482000  1
  H  2110  1  0.26855500  0.15755600  0.92940200  1
  H  2111  1  0.23510800  0.16916500  0.93220300  1
  H  2112  1  0.26898700  0.18091200  0.92943800  1
  H  2114  1  0.27836000  0.13235100  0.86931300  1
  H  2116  1  0.21673100  0.20902200  0.89733300  1
  H  2122  1  0.75550400  0.84416700  0.19873000  1
  H  2124  1  0.78506800  0.81427200  0.25267200  1
  H  2125  1  0.77111100  0.79734900  0.22746800  1
  H  2127  1  0.75892000  0.87248000  0.21080800  1
  H  2128  1  0.79088600  0.87354800  0.22409900  1
  H  2129  1  0.75511200  0.87392000  0.23400400  1
  H  2131  1  0.73748400  0.81067800  0.18984600  1
  H  2133  1  0.81043800  0.84052400  0.26080100  1
  H  2139  1  0.75498200  0.16548700  0.92377500  1
  H  2141  1  0.78531600  0.19548000  0.87004900  1
  H  2142  1  0.77143100  0.21234900  0.89528500  1
  H  2144  1  0.75783700  0.13722000  0.91152300  1
  H  2145  1  0.79001900  0.13600600  0.89843700  1
  H  2146  1  0.75442000  0.13591300  0.88829800  1
  H  2148  1  0.73739100  0.19895100  0.93280700  1
  H  2150  1  0.80983600  0.16926300  0.86150300  1
  H  2156  1  0.75461200  0.14253500  0.22157100  1
  H  2158  1  0.78562500  0.19590000  0.25192800  1
  H  2159  1  0.77210100  0.17050000  0.26860800  1
  H  2161  1  0.75611000  0.15525700  0.19346300  1
  H  2162  1  0.78860600  0.16803100  0.19199300  1
  H  2163  1  0.75329900  0.17852600  0.19248100  1
  H  2165  1  0.73794000  0.13296100  0.25481900  1
  H  2167  1  0.80835100  0.20554200  0.22576500  1
  H  2173  1  0.75127800  0.86581700  0.90174400  1
  H  2175  1  0.78937300  0.81418100  0.87133300  1
  H  2176  1  0.77739700  0.83998300  0.85492100  1
  H  2178  1  0.74635100  0.85125200  0.92897400  1
  H  2179  1  0.77994700  0.83997300  0.93243300  1
  H  2180  1  0.74663400  0.82788700  0.92884600  1
  H  2182  1  0.73947200  0.87685600  0.86907600  1
  H  2184  1  0.79850400  0.79950400  0.89776200  1
  H  2190  1  0.78187700  0.66897200  0.70470800  1
  H  2192  1  0.72863200  0.69051800  0.75618900  1
  H  2193  1  0.73810800  0.71004900  0.73187200  1
  H  2195  1  0.78960600  0.64062900  0.71689100  1
  H  2196  1  0.75825900  0.63373300  0.72895500  1
  H  2197  1  0.79095900  0.64025100  0.74029400  1
  H  2199  1  0.78748700  0.70381200  0.69825800  1
  H  2201  1  0.74284400  0.66092400  0.77177800  1
  H  2207  1  0.78221100  0.34050800  0.41758900  1
  H  2209  1  0.72786100  0.31909400  0.36647500  1
  H  2210  1  0.73745800  0.29957800  0.39078400  1
  H  2212  1  0.79015200  0.36877600  0.40528300  1
  H  2213  1  0.75871200  0.37580000  0.39338200  1
  H  2214  1  0.79113400  0.36908500  0.38187100  1
  H  2216  1  0.78743900  0.30571700  0.42415300  1
  H  2218  1  0.74222700  0.34846600  0.35075300  1
  H  2224  1  0.78267800  0.36065300  0.72569700  1
  H  2226  1  0.72689200  0.31013700  0.74718800  1
  H  2227  1  0.73683600  0.33447300  0.76659600  1
  H  2229  1  0.79079800  0.34806200  0.69757000  1
  H  2230  1  0.75912300  0.33644100  0.69045600  1
  H  2231  1  0.79112700  0.32464400  0.69739600  1
  H  2233  1  0.78749200  0.36758800  0.76032300  1
  H  2235  1  0.74113000  0.29414400  0.71797900  1
  H  2241  1  0.78247400  0.64885300  0.39698900  1
  H  2243  1  0.72712000  0.69955700  0.37553200  1
  H  2244  1  0.73694700  0.67522600  0.35608700  1
  H  2246  1  0.79057400  0.66136100  0.42515300  1
  H  2247  1  0.75897500  0.67306600  0.43225200  1
  H  2248  1  0.79109600  0.68477900  0.42536400  1
  H  2250  1  0.78739000  0.64201600  0.36233400  1
  H  2252  1  0.74162400  0.71546800  0.40484300  1
  H  2258  1  0.23490400  0.33986500  0.70624400  1
  H  2260  1  0.29383900  0.31874800  0.75560500  1
  H  2261  1  0.28331100  0.29936600  0.73135600  1
  H  2263  1  0.22624300  0.36775300  0.71922700  1
  H  2264  1  0.25834400  0.37524900  0.73016300  1
  H  2265  1  0.22735100  0.36784500  0.74263600  1
  H  2267  1  0.23101300  0.30542200  0.69895200  1
  H  2269  1  0.28010700  0.34758200  0.77201200  1
  H  2275  1  0.23375200  0.67011800  0.41514700  1
  H  2277  1  0.29773500  0.69169800  0.36839700  1
  H  2278  1  0.28552000  0.71059200  0.39260200  1
  H  2280  1  0.22406000  0.64309400  0.40080500  1
  H  2281  1  0.25746600  0.63502000  0.39191700  1
  H  2282  1  0.22912600  0.64294300  0.37760200  1
  H  2284  1  0.23094800  0.70395300  0.42391700  1
  H  2286  1  0.28977200  0.66442100  0.35168200  1
  H  2292  1  0.23570500  0.64888100  0.72589600  1
  H  2294  1  0.29095100  0.69962200  0.74737400  1
  H  2295  1  0.28106700  0.67531100  0.76683000  1
  H  2297  1  0.22776600  0.66134400  0.69768800  1
  H  2298  1  0.25938700  0.67305800  0.69063800  1
  H  2299  1  0.22721100  0.68476100  0.69744800  1
  H  2301  1  0.23064800  0.64213700  0.76062100  1
  H  2303  1  0.27674400  0.71552700  0.71795900  1
  H  2309  1  0.23637900  0.36143500  0.39710600  1
  H  2311  1  0.28956200  0.30992200  0.37558100  1
  H  2312  1  0.28011100  0.33423300  0.35603900  1
  H  2314  1  0.22864700  0.34927000  0.42545800  1
  H  2315  1  0.25998000  0.33719300  0.43235700  1
  H  2316  1  0.22726400  0.32586700  0.42584400  1
  H  2318  1  0.23078000  0.36786700  0.36225300  1
  H  2320  1  0.27535100  0.29436000  0.40517400  1
  H  2326  1  0.04170300  0.08839800  0.38094400  1
  H  2328  1  0.01585100  0.07865300  0.31940400  1
  H  2329  1  0.06388900  0.07112100  0.32964000  1
  H  2331  1  0.99569700  0.09997800  0.38858100  1
  H  2332  1  0.96602000  0.09142300  0.37611900  1
  H  2333  1  0.98107900  0.11266500  0.37100800  1
  H  2335  1  0.08954000  0.06716300  0.37101900  1
  H  2337  1  0.97879400  0.10130000  0.32360100  1
  H  2343  1  0.04169400  0.92149200  0.74182700  1
  H  2345  1  0.01588500  0.93088200  0.80342600  1
  H  2346  1  0.06393500  0.93844900  0.79323000  1
  H  2348  1  0.99565500  0.91000000  0.73412500  1
  H  2349  1  0.96600500  0.91849000  0.74665400  1
  H  2350  1  0.98103000  0.89720300  0.75161600  1
  H  2352  1  0.08955700  0.94264500  0.75186500  1
  H  2354  1  0.97878600  0.90829700  0.79911800  1
  H  2360  1  0.04151100  0.68515600  0.14428400  1
  H  2362  1  0.01634700  0.74688300  0.13514700  1
  H  2363  1  0.06439000  0.73659400  0.12775200  1
  H  2365  1  0.99518000  0.67747300  0.15533300  1
  H  2366  1  0.96576600  0.69023700  0.14690400  1
  H  2367  1  0.98064500  0.69485800  0.16830700  1
  H  2369  1  0.08972900  0.69508600  0.12353100  1
  H  2371  1  0.97872600  0.74273900  0.15719700  1
  H  2377  1  0.04107600  0.32463700  0.97847900  1
  H  2379  1  0.01649900  0.26277700  0.98728700  1
  H  2380  1  0.06450600  0.27317000  0.99462500  1
  H  2382  1  0.99452800  0.33229800  0.96776700  1
  H  2383  1  0.96531900  0.31931400  0.97610900  1
  H  2384  1  0.98009000  0.31502400  0.95460800  1
  H  2386  1  0.08954200  0.31484000  0.99885700  1
  H  2388  1  0.97842700  0.26682500  0.96562800  1
  H  2394  1  0.97609000  0.91843100  0.38174500  1
  H  2396  1  0.00299500  0.93184200  0.32105000  1
  H  2397  1  0.95482400  0.93893300  0.33149500  1
  H  2399  1  0.02175300  0.90607100  0.38884100  1
  H  2400  1  0.05176800  0.91531100  0.37718700  1
  H  2401  1  0.03653700  0.89454800  0.37053000  1
  H  2403  1  0.92847300  0.94039600  0.37283200  1
  H  2405  1  0.03918100  0.90797600  0.32446800  1
  H  2411  1  0.97591100  0.09101800  0.74102700  1
  H  2413  1  0.00310500  0.07776400  0.80171400  1
  H  2414  1  0.95490800  0.07060900  0.79135400  1
  H  2416  1  0.02149800  0.10346700  0.73386100  1
  H  2417  1  0.05159200  0.09424600  0.74545900  1
  H  2418  1  0.03635600  0.11499500  0.75214600  1
  H  2420  1  0.92842200  0.06895000  0.75008600  1
  H  2422  1  0.03915000  0.10170400  0.79816100  1
  H  2428  1  0.97599700  0.32504400  0.14702900  1
  H  2430  1  0.00278900  0.26415500  0.13443300  1
  H  2431  1  0.95465400  0.27453800  0.12719800  1
  H  2433  1  0.02168500  0.33225900  0.15932800  1
  H  2434  1  0.05167200  0.32046300  0.15023100  1
  H  2435  1  0.03644000  0.31408700  0.17108100  1
  H  2437  1  0.92842900  0.31585000  0.12509200  1
  H  2439  1  0.03901300  0.26779000  0.15813900  1
  H  2445  1  0.97593500  0.68522600  0.97718900  1
  H  2447  1  0.00245700  0.74653800  0.98775600  1
  H  2448  1  0.95436900  0.73634300  0.99529800  1
  H  2450  1  0.02169500  0.67765700  0.96519500  1
  H  2451  1  0.05159300  0.68981900  0.97390700  1
  H  2452  1  0.03642000  0.69542000  0.95281900  1
  H  2454  1  0.92839800  0.69512900  0.99891600  1
  H  2456  1  0.03905600  0.74237000  0.96461600  1
  H  2462  1  0.53434200  0.60382100  0.88327800  1
  H  2464  1  0.51365100  0.58122300  0.82449800  1
  H  2465  1  0.56254500  0.58012800  0.83572300  1
  H  2467  1  0.48431900  0.60798600  0.89033300  1
  H  2468  1  0.45798100  0.59685100  0.87720200  1
  H  2469  1  0.46861900  0.61899400  0.87198600  1
  H  2471  1  0.58640400  0.58850200  0.87841200  1
  H  2473  1  0.46334300  0.58885800  0.82682100  1
  H  2479  1  0.53428500  0.40627400  0.23934800  1
  H  2481  1  0.51386400  0.42838300  0.29834800  1
  H  2482  1  0.56272200  0.42953600  0.28706700  1
  H  2484  1  0.48422600  0.40218200  0.23233700  1
  H  2485  1  0.45797000  0.41325000  0.24558400  1
  H  2486  1  0.46855300  0.39105600  0.25062100  1
  H  2488  1  0.58639700  0.42152900  0.24426900  1
  H  2490  1  0.46348900  0.42087600  0.29598700  1
  H  2496  1  0.53415900  0.18268700  0.65956000  1
  H  2498  1  0.51372700  0.24183300  0.63784200  1
  H  2499  1  0.56262200  0.23059300  0.63668900  1
  H  2501  1  0.48408900  0.17564900  0.66360900  1
  H  2502  1  0.45791700  0.18888600  0.65245600  1
  H  2503  1  0.46821000  0.19388800  0.67470400  1
  H  2505  1  0.58628000  0.18771500  0.64439300  1
  H  2507  1  0.46314200  0.23913600  0.64485700  1
  H  2513  1  0.53403500  0.82697000  0.46295300  1
  H  2515  1  0.51348800  0.76782300  0.48463800  1
  H  2516  1  0.56241000  0.77904100  0.48581200  1
  H  2518  1  0.48397600  0.83403700  0.45889700  1
  H  2519  1  0.45779700  0.82081800  0.47007000  1
  H  2520  1  0.46802900  0.81581100  0.44781300  1
  H  2522  1  0.58611400  0.82192000  0.47810500  1
  H  2524  1  0.46284300  0.77061900  0.47769700  1
  H  2530  1  0.48344100  0.40668600  0.88307500  1
  H  2532  1  0.50284500  0.42864700  0.82391500  1
  H  2533  1  0.45440300  0.43030300  0.83567800  1
  H  2535  1  0.53344700  0.40196500  0.88959700  1
  H  2536  1  0.55984700  0.41252500  0.87605700  1
  H  2537  1  0.54796800  0.39052400  0.87116800  1
  H  2539  1  0.43134200  0.42257400  0.87847100  1
  H  2541  1  0.55189300  0.41933200  0.82497100  1
  H  2547  1  0.48328400  0.60199600  0.23961400  1
  H  2549  1  0.50274600  0.58096000  0.29910000  1
  H  2550  1  0.45437900  0.57892900  0.28730500  1
  H  2552  1  0.53320100  0.60704300  0.23313800  1
  H  2553  1  0.55971200  0.59671300  0.24677600  1
  H  2554  1  0.54754300  0.61869800  0.25148000  1
  H  2556  1  0.43139300  0.58568100  0.24441700  1
  H  2558  1  0.55159400  0.59048600  0.29802300  1
  H  2564  1  0.48358900  0.82669600  0.65999600  1
  H  2566  1  0.50325400  0.76777200  0.63748100  1
  H  2567  1  0.45466800  0.77938300  0.63615000  1
  H  2569  1  0.53365500  0.83337400  0.66440700  1
  H  2570  1  0.55998800  0.81996800  0.65361400  1
  H  2571  1  0.54853400  0.81493200  0.67566100  1
  H  2573  1  0.43139700  0.82209900  0.64439100  1
  H  2575  1  0.55274200  0.76911300  0.64624700  1
  H  2581  1  0.48369300  0.18294300  0.46239200  1
  H  2583  1  0.50377600  0.24176900  0.48505000  1
  H  2584  1  0.45503500  0.23034700  0.48618500  1
  H  2586  1  0.53376300  0.17608200  0.45817500  1
  H  2587  1  0.56004600  0.18933800  0.46920300  1
  H  2588  1  0.54911100  0.19449100  0.44709400  1
  H  2590  1  0.43151200  0.18764600  0.47777400  1
  H  2592  1  0.55370200  0.23986300  0.47706000  1
  C  1  1  0.17377900  0.12333300  0.29382300  1
  C  2  1  0.14658400  0.13153900  0.28896800  1
  C  3  1  0.12270500  0.12244100  0.31747500  1
  C  4  1  0.14725300  0.11149000  0.32188400  1
  C  5  1  0.14274300  0.09938200  0.33627000  1
  C  6  1  0.11540900  0.09825800  0.34557400  1
  C  7  1  0.09409700  0.11154200  0.34253900  1
  C  8  1  0.09739900  0.12328800  0.32839200  1
  C  9  1  0.14342400  0.14087500  0.27285800  1
  C  10  1  0.16782100  0.14388000  0.26203800  1
  C  11  1  0.19614200  0.13817700  0.26728000  1
  C  12  1  0.19864100  0.12712500  0.28256600  1
  C  13  1  0.19919700  0.12151300  0.32258800  1
  C  14  1  0.22682400  0.11303600  0.32575900  1
  C  15  1  0.21268600  0.08652900  0.30764600  1
  C  16  1  0.18341200  0.09299500  0.30515900  1
  C  17  1  0.22124500  0.06939900  0.30218800  1
  C  18  1  0.20027100  0.05745900  0.29599400  1
  C  19  1  0.17029900  0.06231600  0.29413400  1
  C  20  1  0.16246500  0.08023900  0.29839700  1
  C  21  1  0.19635500  0.13925000  0.32955400  1
  C  22  1  0.21881700  0.14743400  0.34012700  1
  C  23  1  0.24498100  0.13778400  0.34328400  1
  C  24  1  0.24901400  0.12093400  0.33623600  1
  C  37  1  0.17584000  0.11221100  0.31088400  1
  C  38  1  0.23554800  0.09620700  0.31749000  1
  C  41  1  0.12081800  0.13243900  0.30080500  1
  C  48  1  0.17363600  0.88613200  0.82885400  1
  C  49  1  0.14648800  0.87779300  0.83358200  1
  C  50  1  0.12267400  0.88706700  0.80510900  1
  C  51  1  0.14720600  0.89806800  0.80079600  1
  C  52  1  0.14271500  0.91025600  0.78647400  1
  C  53  1  0.11540700  0.91141500  0.77714900  1
  C  54  1  0.09412400  0.89808800  0.78006600  1
  C  55  1  0.09739000  0.88628100  0.79416700  1
  C  56  1  0.14331800  0.86830100  0.84960200  1
  C  57  1  0.16765400  0.86532200  0.86047900  1
  C  58  1  0.19591500  0.87125800  0.85540700  1
  C  59  1  0.19843900  0.88238000  0.84017300  1
  C  60  1  0.19911100  0.88800500  0.80012700  1
  C  61  1  0.22680000  0.89643400  0.79702200  1
  C  62  1  0.21268900  0.92293800  0.81514100  1
  C  63  1  0.18338000  0.91650700  0.81758900  1
  C  64  1  0.22129900  0.94004300  0.82065400  1
  C  65  1  0.20033500  0.95202000  0.82679700  1
  C  66  1  0.17032600  0.94721200  0.82854900  1
  C  67  1  0.16244400  0.92929100  0.82431500  1
  C  68  1  0.19621400  0.87028800  0.79312400  1
  C  69  1  0.21865900  0.86210000  0.78254700  1
  C  70  1  0.24487500  0.87170300  0.77942400  1
  C  71  1  0.24899500  0.88851300  0.78656200  1
  C  84  1  0.17575800  0.89730800  0.81182800  1
  C  85  1  0.23558300  0.91321200  0.80536900  1
  C  88  1  0.12078100  0.87692900  0.82169300  1
  C  95  1  0.17352500  0.77227200  0.17995900  1
  C  96  1  0.14639300  0.77697000  0.18833400  1
  C  97  1  0.12258400  0.74850700  0.17901200  1
  C  98  1  0.14713400  0.74420100  0.16802100  1
  C  99  1  0.14270700  0.72985100  0.15586000  1
  C  100  1  0.11542600  0.72049800  0.15469600  1
  C  101  1  0.09408000  0.72344600  0.16798000  1
  C  102  1  0.09727800  0.73758100  0.17975300  1
  C  103  1  0.14321200  0.79299200  0.19781900  1
  C  104  1  0.16750600  0.80392700  0.20072100  1
  C  105  1  0.19577400  0.79885700  0.19479100  1
  C  106  1  0.19830700  0.78362100  0.18367500  1
  C  107  1  0.19905500  0.74357900  0.17809900  1
  C  108  1  0.22680700  0.74056000  0.16970800  1
  C  109  1  0.21259300  0.75858100  0.14315600  1
  C  110  1  0.18328100  0.76100900  0.14958900  1
  C  111  1  0.22116100  0.76405100  0.12602900  1
  C  112  1  0.20019100  0.77021000  0.11406500  1
  C  113  1  0.17019400  0.77196800  0.11889600  1
  C  114  1  0.16232700  0.76773200  0.13681600  1
  C  115  1  0.19608600  0.73650600  0.19578600  1
  C  116  1  0.21862300  0.72603400  0.20401200  1
  C  117  1  0.24495700  0.72305500  0.19448400  1
  C  118  1  0.24907600  0.73019200  0.17767600  1
  C  131  1  0.17567000  0.75524600  0.16878600  1
  C  132  1  0.23553900  0.74887200  0.15290200  1
  C  135  1  0.12067500  0.76508600  0.18915800  1
  C  142  1  0.17361000  0.23742600  0.94289600  1
  C  143  1  0.14636800  0.23249500  0.93479600  1
  C  144  1  0.12249900  0.26104200  0.94379400  1
  C  145  1  0.14708500  0.26550500  0.95468900  1
  C  146  1  0.14263200  0.27994600  0.96673800  1
  C  147  1  0.11531400  0.28926500  0.96784800  1
  C  148  1  0.09394200  0.28616800  0.95461400  1
  C  149  1  0.09715500  0.27192900  0.94296900  1
  C  150  1  0.14317700  0.21630700  0.92559800  1
  C  151  1  0.16759300  0.20550100  0.92258800  1
  C  152  1  0.19597600  0.21087500  0.92806900  1
  C  153  1  0.19850000  0.22621400  0.93904300  1
  C  154  1  0.19903000  0.26620500  0.94467100  1
  C  155  1  0.22666100  0.26937100  0.95314900  1
  C  156  1  0.21247500  0.25132000  0.97968600  1
  C  157  1  0.18322700  0.24879500  0.97319500  1
  C  158  1  0.22102200  0.24584100  0.99681300  1
  C  159  1  0.20003500  0.23961100  0.00873100  1
  C  160  1  0.17009300  0.23768300  0.00383100  1
  C  161  1  0.16227200  0.24199000  0.98592100  1
  C  162  1  0.19617200  0.27317700  0.92693800  1
  C  163  1  0.21863300  0.28374700  0.91875100  1
  C  164  1  0.24483700  0.28685600  0.92837500  1
  C  165  1  0.24889100  0.27979100  0.94521700  1
  C  178  1  0.17567200  0.25451100  0.95397800  1
  C  179  1  0.23535800  0.26113800  0.97000100  1
  C  182  1  0.12054800  0.24429500  0.93392300  1
  C  189  1  0.84318000  0.88718500  0.29385100  1
  C  190  1  0.87083000  0.88069100  0.28758300  1
  C  191  1  0.89558900  0.88815900  0.31627500  1
  C  192  1  0.87067500  0.89823200  0.32186700  1
  C  193  1  0.87531400  0.90952400  0.33688100  1
  C  194  1  0.90297700  0.91047400  0.34585500  1
  C  195  1  0.92466300  0.89772100  0.34168600  1
  C  196  1  0.92140800  0.88703600  0.32671700  1
  C  197  1  0.87366900  0.87292100  0.27064900  1
  C  198  1  0.84868200  0.86937000  0.26049300  1
  C  199  1  0.82018100  0.87242300  0.26745800  1
  C  200  1  0.81778400  0.88258200  0.28335800  1
  C  201  1  0.81872100  0.88822000  0.32313900  1
  C  202  1  0.79136400  0.89675200  0.32697200  1
  C  203  1  0.80503400  0.92364300  0.30931200  1
  C  204  1  0.83402300  0.91705900  0.30609300  1
  C  205  1  0.79647600  0.94092600  0.30435500  1
  C  206  1  0.81720900  0.95280100  0.29774300  1
  C  207  1  0.84690600  0.94774300  0.29502400  1
  C  208  1  0.85473400  0.92975700  0.29897400  1
  C  209  1  0.82165300  0.87031300  0.32963300  1
  C  210  1  0.79950800  0.86197200  0.34033500  1
  C  211  1  0.77360700  0.87164400  0.34413100  1
  C  212  1  0.76949900  0.88867700  0.33755800  1
  C  225  1  0.84165700  0.89772100  0.31129400  1
  C  226  1  0.78252500  0.91385200  0.31932500  1
  C  229  1  0.89750900  0.87990200  0.29867100  1
  C  236  1  0.84333000  0.12252800  0.82888400  1
  C  237  1  0.87095100  0.12919700  0.83501700  1
  C  238  1  0.89561600  0.12151800  0.80634700  1
  C  239  1  0.87071000  0.11137600  0.80086600  1
  C  240  1  0.87530700  0.10000100  0.78590700  1
  C  241  1  0.90293700  0.09901900  0.77690100  1
  C  242  1  0.92459400  0.11182900  0.78094400  1
  C  243  1  0.92136400  0.12262100  0.79583900  1
  C  244  1  0.87384600  0.13713200  0.85186900  1
  C  245  1  0.84888100  0.14073400  0.86202700  1
  C  246  1  0.82036200  0.13737500  0.85524100  1
  C  247  1  0.81797000  0.12707000  0.83943500  1
  C  248  1  0.81872400  0.12135800  0.79967200  1
  C  249  1  0.79128000  0.11284600  0.79602300  1
  C  250  1  0.80509800  0.08602000  0.81373800  1
  C  251  1  0.83415600  0.09258500  0.81678000  1
  C  252  1  0.79656900  0.06876000  0.81879000  1
  C  253  1  0.81739200  0.05686900  0.82526400  1
  C  254  1  0.84714700  0.06189600  0.82779200  1
  C  255  1  0.85494000  0.07988500  0.82381900  1
  C  256  1  0.82164200  0.13922400  0.79306000  1
  C  257  1  0.79939900  0.14753400  0.78241100  1
  C  258  1  0.77339700  0.13788400  0.77881300  1
  C  259  1  0.76930000  0.12089700  0.78550600  1
  C  272  1  0.84174900  0.11190600  0.81149600  1
  C  273  1  0.78247000  0.09580700  0.80382100  1
  C  276  1  0.89754200  0.12998000  0.82385100  1
  C  283  1  0.84351000  0.23736600  0.17918300  1
  C  284  1  0.87105700  0.23150700  0.18620600  1
  C  285  1  0.89552700  0.26016100  0.17824500  1
  C  286  1  0.87069000  0.26541800  0.16792300  1
  C  287  1  0.87526100  0.28026300  0.15639600  1
  C  288  1  0.90283100  0.28933300  0.15538300  1
  C  289  1  0.92443700  0.28547900  0.16827900  1
  C  290  1  0.92117800  0.27075900  0.17930300  1
  C  291  1  0.87402900  0.21479100  0.19441600  1
  C  292  1  0.84918600  0.20446500  0.19782600  1
  C  293  1  0.82065200  0.21095300  0.19398800  1
  C  294  1  0.81823900  0.22665700  0.18353300  1
  C  295  1  0.81869900  0.26646300  0.17792800  1
  C  296  1  0.79116500  0.26996600  0.16945900  1
  C  297  1  0.80510400  0.25227600  0.14263900  1
  C  298  1  0.83422000  0.24935400  0.14917200  1
  C  299  1  0.79656500  0.24716500  0.12539700  1
  C  300  1  0.81741900  0.24077200  0.11348200  1
  C  301  1  0.84722700  0.23840800  0.11846700  1
  C  302  1  0.85504100  0.24239600  0.13645100  1
  C  303  1  0.82162300  0.27313000  0.19577300  1
  C  304  1  0.79923600  0.28363500  0.20412400  1
  C  305  1  0.77318500  0.28714800  0.19449100  1
  C  306  1  0.76911000  0.28042300  0.17751500  1
  C  319  1  0.84181400  0.25470100  0.16848000  1
  C  320  1  0.78240400  0.26212800  0.15243200  1
  C  323  1  0.89746700  0.24282100  0.18703500  1
  C  330  1  0.84429000  0.77237900  0.94274700  1
  C  331  1  0.87147500  0.77718700  0.93450100  1
  C  332  1  0.89528400  0.74866700  0.94361700  1
  C  333  1  0.87073000  0.74427700  0.95457300  1
  C  334  1  0.87520800  0.72987900  0.96667400  1
  C  335  1  0.90254400  0.72057700  0.96781400  1
  C  336  1  0.92385600  0.72359000  0.95452500  1
  C  337  1  0.92058500  0.73774400  0.94278800  1
  C  338  1  0.87465500  0.79326600  0.92511200  1
  C  339  1  0.85030700  0.80413500  0.92214300  1
  C  340  1  0.82200500  0.79895700  0.92792300  1
  C  341  1  0.81946400  0.78367300  0.93897400  1
  C  342  1  0.81873900  0.74367100  0.94456000  1
  C  343  1  0.79098800  0.74069600  0.95297100  1
  C  344  1  0.80532300  0.75866100  0.97953500  1
  C  345  1  0.83464000  0.76103400  0.97309200  1
  C  346  1  0.79680300  0.76409700  0.99667800  1
  C  347  1  0.81781700  0.77019000  0.00864400  1
  C  348  1  0.84780600  0.77194400  0.00379500  1
  C  349  1  0.85563400  0.76771700  0.98586400  1
  C  350  1  0.82158100  0.73665100  0.92684300  1
  C  351  1  0.79891100  0.72629200  0.91859000  1
  C  352  1  0.77263600  0.72330300  0.92818200  1
  C  353  1  0.76863000  0.73039300  0.94501400  1
  C  366  1  0.84217800  0.75531500  0.95386700  1
  C  367  1  0.78233300  0.74898300  0.96980200  1
  C  370  1  0.89719900  0.76531800  0.93359600  1
  C  377  1  0.84230200  0.88614100  0.82792600  1
  C  378  1  0.86095200  0.87322100  0.83592500  1
  C  379  1  0.89770300  0.87587600  0.81119400  1
  C  380  1  0.88321700  0.89127400  0.80452800  1
  C  381  1  0.90018400  0.90215800  0.79264400  1
  C  382  1  0.92974700  0.89782900  0.78783400  1
  C  383  1  0.94031400  0.88074500  0.79217300  1
  C  384  1  0.92471400  0.86997400  0.80394300  1
  C  385  1  0.85344700  0.86523700  0.85226900  1
  C  386  1  0.82616700  0.86863300  0.86021000  1
  C  387  1  0.80487900  0.87900100  0.85135400  1
  C  388  1  0.81378800  0.88837900  0.83583400  1
  C  389  1  0.83051800  0.88981200  0.79633400  1
  C  390  1  0.81216100  0.90245600  0.78763700  1
  C  391  1  0.83149800  0.92746700  0.80644900  1
  C  392  1  0.85140400  0.91586200  0.81532500  1
  C  393  1  0.83120800  0.94590300  0.80995800  1
  C  394  1  0.85204100  0.95353700  0.82130500  1
  C  395  1  0.87332600  0.94287800  0.82975700  1
  C  396  1  0.87210100  0.92414100  0.82709600  1
  C  397  1  0.82615100  0.87153300  0.79140300  1
  C  398  1  0.80569300  0.86614000  0.77801500  1
  C  399  1  0.78886300  0.87950300  0.76965500  1
  C  400  1  0.79217500  0.89731200  0.77422100  1
  C  413  1  0.85191500  0.89587800  0.81100600  1
  C  414  1  0.81127600  0.92141200  0.79241600  1
  C  417  1  0.88756500  0.86628200  0.82710000  1
  C  424  1  0.84177400  0.12360100  0.29514400  1
  C  425  1  0.86020500  0.13662900  0.28713600  1
  C  426  1  0.89749700  0.13377700  0.31155900  1
  C  427  1  0.88304500  0.11841000  0.31831900  1
  C  428  1  0.90010900  0.10753300  0.33016100  1
  C  429  1  0.92974200  0.11183300  0.33484200  1
  C  430  1  0.94033000  0.12889000  0.33041700  1
  C  431  1  0.92466700  0.13962200  0.31863900  1
  C  432  1  0.85222900  0.14486400  0.27100100  1
  C  433  1  0.82472000  0.14159600  0.26329400  1
  C  434  1  0.80377100  0.13093800  0.27210600  1
  C  435  1  0.81311800  0.12137700  0.28742100  1
  C  436  1  0.83046500  0.11987200  0.32675700  1
  C  437  1  0.81222200  0.10723000  0.33554000  1
  C  438  1  0.83132800  0.08222600  0.31662500  1
  C  439  1  0.85109600  0.09383900  0.30764900  1
  C  440  1  0.83098100  0.06379400  0.31309300  1
  C  441  1  0.85167600  0.05616600  0.30164700  1
  C  442  1  0.87287300  0.06683300  0.29312600  1
  C  443  1  0.87164800  0.08557000  0.29577700  1
  C  444  1  0.82608500  0.13815700  0.33165600  1
  C  445  1  0.80572100  0.14355800  0.34508600  1
  C  446  1  0.78905900  0.13020100  0.35357500  1
  C  447  1  0.79237000  0.11238400  0.34902800  1
  C  460  1  0.85166200  0.11381700  0.31198000  1
  C  461  1  0.81127800  0.08827500  0.33075300  1
  C  464  1  0.88710000  0.14343400  0.29575500  1
  C  471  1  0.84182500  0.23862600  0.94261000  1
  C  472  1  0.86028000  0.23045400  0.92969800  1
  C  473  1  0.89792200  0.25468100  0.93259500  1
  C  474  1  0.88331200  0.26167400  0.94780400  1
  C  475  1  0.90028100  0.27363600  0.95860300  1
  C  476  1  0.92999600  0.27820300  0.95439100  1
  C  477  1  0.94086500  0.27345000  0.93748900  1
  C  478  1  0.92530600  0.26154100  0.92685300  1
  C  479  1  0.85212900  0.21434000  0.92148400  1
  C  480  1  0.82444400  0.20682000  0.92464500  1
  C  481  1  0.80351000  0.21580700  0.93516600  1
  C  482  1  0.81301400  0.23108100  0.94473800  1
  C  483  1  0.83081300  0.27028500  0.94629700  1
  C  484  1  0.81270000  0.27916900  0.95893500  1
  C  485  1  0.83162600  0.26021700  0.98396400  1
  C  486  1  0.85127600  0.25114300  0.97235500  1
  C  487  1  0.83131400  0.25674100  0.00240700  1
  C  488  1  0.85191900  0.24524100  0.01004300  1
  C  489  1  0.87302800  0.23664100  0.99937800  1
  C  490  1  0.87176100  0.23923500  0.98063400  1
  C  491  1  0.82646300  0.27515500  0.92800200  1
  C  492  1  0.80614600  0.28860500  0.92258900  1
  C  493  1  0.78962100  0.29720400  0.93593500  1
  C  494  1  0.79298400  0.29272200  0.95376500  1
  C  507  1  0.85186600  0.25544500  0.95237200  1
  C  508  1  0.81174500  0.27442800  0.97790400  1
  C  511  1  0.88748700  0.23882500  0.92304300  1
  C  518  1  0.84189500  0.77099500  0.17997900  1
  C  519  1  0.86030600  0.77907000  0.19297500  1
  C  520  1  0.89787600  0.75480800  0.19003400  1
  C  521  1  0.88333700  0.74792400  0.17475000  1
  C  522  1  0.90034300  0.73602000  0.16391000  1
  C  523  1  0.93003600  0.73141300  0.16814200  1
  C  524  1  0.94082500  0.73606700  0.18509000  1
  C  525  1  0.92520500  0.74788600  0.19579200  1
  C  526  1  0.85217300  0.79515300  0.20125800  1
  C  527  1  0.82451300  0.80270600  0.19811100  1
  C  528  1  0.80360100  0.79380500  0.18750100  1
  C  529  1  0.81310700  0.77857200  0.17786500  1
  C  530  1  0.83081000  0.73935900  0.17621500  1
  C  531  1  0.81264500  0.73054300  0.16355600  1
  C  532  1  0.83162600  0.74953200  0.13857400  1
  C  533  1  0.85134400  0.75853700  0.15019800  1
  C  534  1  0.83130300  0.75305200  0.12013900  1
  C  535  1  0.85203800  0.76447400  0.11251100  1
  C  536  1  0.87322200  0.77299800  0.12318400  1
  C  537  1  0.87191800  0.77039600  0.14192700  1
  C  538  1  0.82645000  0.73443800  0.19449600  1
  C  539  1  0.80613900  0.72097400  0.19988700  1
  C  540  1  0.78954400  0.71246300  0.18651200  1
  C  541  1  0.79285800  0.71701900  0.16869700  1
  C  554  1  0.85191000  0.75419300  0.17017600  1
  C  555  1  0.81167200  0.73534800  0.14460700  1
  C  558  1  0.88742700  0.77061800  0.19965700  1
  C  565  1  0.17592100  0.12339200  0.82769600  1
  C  566  1  0.15737500  0.13647900  0.83551200  1
  C  567  1  0.12084100  0.13380300  0.81067100  1
  C  568  1  0.13520000  0.11829200  0.80416600  1
  C  569  1  0.11821400  0.10741300  0.79228500  1
  C  570  1  0.08875800  0.11185200  0.78732300  1
  C  571  1  0.07837900  0.12902000  0.79149200  1
  C  572  1  0.09392400  0.13974200  0.80332900  1
  C  573  1  0.16483100  0.14458200  0.85180500  1
  C  574  1  0.19193300  0.14107400  0.85991500  1
  C  575  1  0.21316600  0.13051200  0.85124100  1
  C  576  1  0.20430700  0.12107200  0.83574600  1
  C  577  1  0.18800700  0.11966600  0.79617300  1
  C  578  1  0.20656200  0.10701500  0.78764100  1
  C  579  1  0.18691600  0.08203700  0.80637600  1
  C  580  1  0.16683500  0.09364700  0.81510300  1
  C  581  1  0.18718800  0.06360900  0.80992300  1
  C  582  1  0.16621200  0.05597700  0.82117800  1
  C  583  1  0.14472700  0.06663300  0.82944700  1
  C  584  1  0.14597100  0.08537200  0.82677700  1
  C  585  1  0.19238000  0.13793000  0.79118400  1
  C  586  1  0.21302900  0.14330000  0.77789200  1
  C  587  1  0.23010200  0.12993000  0.76972000  1
  C  588  1  0.22681600  0.11214000  0.77436300  1
  C  601  1  0.16641800  0.11363300  0.81076300  1
  C  602  1  0.20742200  0.08807600  0.79248800  1
  C  605  1  0.13094500  0.14347500  0.82653700  1
  C  612  1  0.17575200  0.88612900  0.29479400  1
  C  613  1  0.15715500  0.87308100  0.28695800  1
  C  614  1  0.12065900  0.87575300  0.31181700  1
  C  615  1  0.13509100  0.89122100  0.31836600  1
  C  616  1  0.11818000  0.90208100  0.33030700  1
  C  617  1  0.08870900  0.89767300  0.33526300  1
  C  618  1  0.07823400  0.88055300  0.33100000  1
  C  619  1  0.09376100  0.86980800  0.31917900  1
  C  620  1  0.16449200  0.86506700  0.27060100  1
  C  621  1  0.19159000  0.86856000  0.26248400  1
  C  622  1  0.21288900  0.87905700  0.27117400  1
  C  623  1  0.20411800  0.88844700  0.28671800  1
  C  624  1  0.18792800  0.88981600  0.32631500  1
  C  625  1  0.20656900  0.90244800  0.33481200  1
  C  626  1  0.18687100  0.92745200  0.31613100  1
  C  627  1  0.16673300  0.91585800  0.30743000  1
  C  628  1  0.18714800  0.94588400  0.31259800  1
  C  629  1  0.16610900  0.95353300  0.30139900  1
  C  630  1  0.14461700  0.94289000  0.29312000  1
  C  631  1  0.14584100  0.92415100  0.29578600  1
  C  632  1  0.19223900  0.87154900  0.33131800  1
  C  633  1  0.21295400  0.86617200  0.34456700  1
  C  634  1  0.23010400  0.87951400  0.35271600  1
  C  635  1  0.22686900  0.89730400  0.34806000  1
  C  648  1  0.16630500  0.89587000  0.31175200  1
  C  649  1  0.20745000  0.92138800  0.32996900  1
  C  652  1  0.13072900  0.86609100  0.29593900  1
  C  659  1  0.17563400  0.77146000  0.94274800  1
  C  660  1  0.15698800  0.77939500  0.92978600  1
  C  661  1  0.12041000  0.75456900  0.93240100  1
  C  662  1  0.13485000  0.74797100  0.94784600  1
  C  663  1  0.11787300  0.73608500  0.95872800  1
  C  664  1  0.08834600  0.73122000  0.95435700  1
  C  665  1  0.07787200  0.73548000  0.93723500  1
  C  666  1  0.09345700  0.74726400  0.92647500  1
  C  667  1  0.16440500  0.79575000  0.92179300  1
  C  668  1  0.19159600  0.80377700  0.92523700  1
  C  669  1  0.21291600  0.79497800  0.93562700  1
  C  670  1  0.20408500  0.77944300  0.94501100  1
  C  671  1  0.18763000  0.73990500  0.94639300  1
  C  672  1  0.20614300  0.73129500  0.95901500  1
  C  673  1  0.18661300  0.74999300  0.98405400  1
  C  674  1  0.16659400  0.75880400  0.97246900  1
  C  675  1  0.18689400  0.75348100  0.00249400  1
  C  676  1  0.16596200  0.76474500  0.01015600  1
  C  677  1  0.14457600  0.77312800  0.99951900  1
  C  678  1  0.14580100  0.77049900  0.98077600  1
  C  679  1  0.19196900  0.73496700  0.92811100  1
  C  680  1  0.21263700  0.72169900  0.92270400  1
  C  681  1  0.22956600  0.71338500  0.93604500  1
  C  682  1  0.22628500  0.71796700  0.95385100  1
  C  695  1  0.16611200  0.75451200  0.95247500  1
  C  696  1  0.20700800  0.73606400  0.97797400  1
  C  699  1  0.13050800  0.77047200  0.92278800  1
  C  706  1  0.17575700  0.23830400  0.17990700  1
  C  707  1  0.15721000  0.23045800  0.19297400  1
  C  708  1  0.12060700  0.25526200  0.19029800  1
  C  709  1  0.13499900  0.26181700  0.17481900  1
  C  710  1  0.11805400  0.27374600  0.16396700  1
  C  711  1  0.08854800  0.27863800  0.16836500  1
  C  712  1  0.07811300  0.27439800  0.18550300  1
  C  713  1  0.09368800  0.26259400  0.19624300  1
  C  714  1  0.16466700  0.21414400  0.20103600  1
  C  715  1  0.19181700  0.20608000  0.19755700  1
  C  716  1  0.21303500  0.21477400  0.18700300  1
  C  717  1  0.20415500  0.23027200  0.17757700  1
  C  718  1  0.18780500  0.26983200  0.17618300  1
  C  719  1  0.20634900  0.27837100  0.16352700  1
  C  720  1  0.18668000  0.25964300  0.13855100  1
  C  721  1  0.16662000  0.25090900  0.15016900  1
  C  722  1  0.18691500  0.25610900  0.12011900  1
  C  723  1  0.16591300  0.24486800  0.11249700  1
  C  724  1  0.14448700  0.23656200  0.12316700  1
  C  725  1  0.14575300  0.23923200  0.14190400  1
  C  726  1  0.19220700  0.27480700  0.19445000  1
  C  727  1  0.21296700  0.28803800  0.19981000  1
  C  728  1  0.22992900  0.29627900  0.18643700  1
  C  729  1  0.22658300  0.29166400  0.16864400  1
  C  742  1  0.16622600  0.25523800  0.17015600  1
  C  743  1  0.20716900  0.27354300  0.14458400  1
  C  746  1  0.13074900  0.23940200  0.19996500  1
  C  753  1  0.67680300  0.62201500  0.79052600  1
  C  754  1  0.65007700  0.62313400  0.78060400  1
  C  755  1  0.62018600  0.62087000  0.80844000  1
  C  756  1  0.64531200  0.61518300  0.81826300  1
  C  757  1  0.63958900  0.60870000  0.83576800  1
  C  758  1  0.61078500  0.60888900  0.84339100  1
  C  759  1  0.58824600  0.61802200  0.83428100  1
  C  760  1  0.59245900  0.62318700  0.81668900  1
  C  761  1  0.65017700  0.62698800  0.76227200  1
  C  762  1  0.67608400  0.63261600  0.75399100  1
  C  763  1  0.70213300  0.63476200  0.76391900  1
  C  764  1  0.70286200  0.62838400  0.78171100  1
  C  765  1  0.69563200  0.62764300  0.82090400  1
  C  766  1  0.72287000  0.62156800  0.82812600  1
  C  767  1  0.71353200  0.59063900  0.81722100  1
  C  768  1  0.68631100  0.59562400  0.80914800  1
  C  769  1  0.72316200  0.57284600  0.81747600  1
  C  770  1  0.70565100  0.55945100  0.81035000  1
  C  771  1  0.67858100  0.56329100  0.80187000  1
  C  772  1  0.66920000  0.58140600  0.80154300  1
  C  773  1  0.68935200  0.64613100  0.82330500  1
  C  774  1  0.70884800  0.65791800  0.83241100  1
  C  775  1  0.73563800  0.65109600  0.83898400  1
  C  776  1  0.74237100  0.63314400  0.83708300  1
  C  789  1  0.67610800  0.61513400  0.80974900  1
  C  790  1  0.73324100  0.60319200  0.82634900  1
  C  793  1  0.62074500  0.62298700  0.78903700  1
  C  800  1  0.67670100  0.38756200  0.33198300  1
  C  801  1  0.64993400  0.38637100  0.34185700  1
  C  802  1  0.62017000  0.38865800  0.31397500  1
  C  803  1  0.64531000  0.39443000  0.30421700  1
  C  804  1  0.63961800  0.40101600  0.28674600  1
  C  805  1  0.61083600  0.40084300  0.27909600  1
  C  806  1  0.58832100  0.39157700  0.28809500  1
  C  807  1  0.59247800  0.38634900  0.30567600  1
  C  808  1  0.64996200  0.38249300  0.36018400  1
  C  809  1  0.67586700  0.37692400  0.36850700  1
  C  810  1  0.70198000  0.37484800  0.35862400  1
  C  811  1  0.70275600  0.38123900  0.34083700  1
  C  812  1  0.69560700  0.38195900  0.30161700  1
  C  813  1  0.72287000  0.38803100  0.29442400  1
  C  814  1  0.71355800  0.41894800  0.30537500  1
  C  815  1  0.68630200  0.41397000  0.31340900  1
  C  816  1  0.72323500  0.43673300  0.30517200  1
  C  817  1  0.70571000  0.45013400  0.31227800  1
  C  818  1  0.67857200  0.44630500  0.32068300  1
  C  819  1  0.66917800  0.42819000  0.32100200  1
  C  820  1  0.68933400  0.36347300  0.29920100  1
  C  821  1  0.70882400  0.35169000  0.29008300  1
  C  822  1  0.73559600  0.35851900  0.28349300  1
  C  823  1  0.74236200  0.37646200  0.28544700  1
  C  836  1  0.67607500  0.39446700  0.31276900  1
  C  837  1  0.73327800  0.40639300  0.29625800  1
  C  840  1  0.62064500  0.38647200  0.33336900  1
  C  847  1  0.67644200  0.27536900  0.67862700  1
  C  848  1  0.64962400  0.28517700  0.67994200  1
  C  849  1  0.61998900  0.25725200  0.67761500  1
  C  850  1  0.64513700  0.24756900  0.67173300  1
  C  851  1  0.63948500  0.23012200  0.66507100  1
  C  852  1  0.61073200  0.22243200  0.66524900  1
  C  853  1  0.58822200  0.23135300  0.67459100  1
  C  854  1  0.59233300  0.24890900  0.67990700  1
  C  855  1  0.64960200  0.30350300  0.68381500  1
  C  856  1  0.67553600  0.31191400  0.68920300  1
  C  857  1  0.70167300  0.30205400  0.69127700  1
  C  858  1  0.70249800  0.28426600  0.68488800  1
  C  859  1  0.69544100  0.24502200  0.68419700  1
  C  860  1  0.72269500  0.23783400  0.67810900  1
  C  861  1  0.71334400  0.24880600  0.64720100  1
  C  862  1  0.68609200  0.25683700  0.65219600  1
  C  863  1  0.72299600  0.24861200  0.62941200  1
  C  864  1  0.70547200  0.25574200  0.61602500  1
  C  865  1  0.67834200  0.26415100  0.61987100  1
  C  866  1  0.66895900  0.26444800  0.63798900  1
  C  867  1  0.68919500  0.24259900  0.70268700  1
  C  868  1  0.70872400  0.23349900  0.71446100  1
  C  869  1  0.73549200  0.22692200  0.70761600  1
  C  870  1  0.74221200  0.22886000  0.68966500  1
  C  883  1  0.67587200  0.25616300  0.67170100  1
  C  884  1  0.73306800  0.23966500  0.65973700  1
  C  887  1  0.62038000  0.27663900  0.67987400  1
  C  894  1  0.67652000  0.73428300  0.44406100  1
  C  895  1  0.64973700  0.72443800  0.44277700  1
  C  896  1  0.62002400  0.75235100  0.44499900  1
  C  897  1  0.64513100  0.76206200  0.45089900  1
  C  898  1  0.63942100  0.77951500  0.45753300  1
  C  899  1  0.61064800  0.78717500  0.45732900  1
  C  900  1  0.58816900  0.77820800  0.44800700  1
  C  901  1  0.59235000  0.76066300  0.44267800  1
  C  902  1  0.64975500  0.70609600  0.43896800  1
  C  903  1  0.67571000  0.69771700  0.43356800  1
  C  904  1  0.70187000  0.70757100  0.43153200  1
  C  905  1  0.70257900  0.72540900  0.43778200  1
  C  906  1  0.69544100  0.76464900  0.43844500  1
  C  907  1  0.72263100  0.77190900  0.44454800  1
  C  908  1  0.71330200  0.76093700  0.47545900  1
  C  909  1  0.68609200  0.75285800  0.47045900  1
  C  910  1  0.72294900  0.76114200  0.49325000  1
  C  911  1  0.70544500  0.75398600  0.50663300  1
  C  912  1  0.67838800  0.74549100  0.50278000  1
  C  913  1  0.66898800  0.74522100  0.48466500  1
  C  914  1  0.68921400  0.76703800  0.41994800  1
  C  915  1  0.70869600  0.77618400  0.40818000  1
  C  916  1  0.73540500  0.78283100  0.41503900  1
  C  917  1  0.74211700  0.78091100  0.43299300  1
  C  930  1  0.67588900  0.75350200  0.45094900  1
  C  931  1  0.73298000  0.77012000  0.46292900  1
  C  934  1  0.62047700  0.73296300  0.44275900  1
  C  941  1  0.34175500  0.38765800  0.79088100  1
  C  942  1  0.36872800  0.38617800  0.78125600  1
  C  943  1  0.39791000  0.38848600  0.80935500  1
  C  944  1  0.37268100  0.39456600  0.81883800  1
  C  945  1  0.37814100  0.40139600  0.83624400  1
  C  946  1  0.40679000  0.40122400  0.84407100  1
  C  947  1  0.42931400  0.39166100  0.83539300  1
  C  948  1  0.42540200  0.38615700  0.81787900  1
  C  949  1  0.36902400  0.38226700  0.76293800  1
  C  950  1  0.34314600  0.37709200  0.75433800  1
  C  951  1  0.31677200  0.37518500  0.76401800  1
  C  952  1  0.31579000  0.38148600  0.78183500  1
  C  953  1  0.32237100  0.38209000  0.82112900  1
  C  954  1  0.29504200  0.38817400  0.82821500  1
  C  955  1  0.30451700  0.41908600  0.81729400  1
  C  956  1  0.33183500  0.41408800  0.80934700  1
  C  957  1  0.29488300  0.43687800  0.81746400  1
  C  958  1  0.31245800  0.45025600  0.81036200  1
  C  959  1  0.33962100  0.44639800  0.80199300  1
  C  960  1  0.34903400  0.42828600  0.80177700  1
  C  961  1  0.32862000  0.36360500  0.82357200  1
  C  962  1  0.30901300  0.35182800  0.83260100  1
  C  963  1  0.28214600  0.35865400  0.83905400  1
  C  964  1  0.27542100  0.37660200  0.83708700  1
  C  977  1  0.34207300  0.39459200  0.81008400  1
  C  978  1  0.28470900  0.40655100  0.82637300  1
  C  981  1  0.39780600  0.38603300  0.78999400  1
  C  988  1  0.34176400  0.62202700  0.33144400  1
  C  989  1  0.36885600  0.62453400  0.34073500  1
  C  990  1  0.39770600  0.62162000  0.31256500  1
  C  991  1  0.37255300  0.61491800  0.30343500  1
  C  992  1  0.37799100  0.60762300  0.28621200  1
  C  993  1  0.40655800  0.60776500  0.27827400  1
  C  994  1  0.42897100  0.61774300  0.28657300  1
  C  995  1  0.42504000  0.62392400  0.30385200  1
  C  996  1  0.36940200  0.62896900  0.35892600  1
  C  997  1  0.34339100  0.63360900  0.36766400  1
  C  998  1  0.31652200  0.63427200  0.35832200  1
  C  999  1  0.31553400  0.62748200  0.34067900  1
  C  1000  1  0.32224900  0.62737100  0.30127300  1
  C  1001  1  0.29496700  0.62123500  0.29416700  1
  C  1002  1  0.30448800  0.59037900  0.30523900  1
  C  1003  1  0.33177700  0.59543000  0.31318700  1
  C  1004  1  0.29488700  0.57258100  0.30514400  1
  C  1005  1  0.31249500  0.55924800  0.31229900  1
  C  1006  1  0.33965800  0.56315500  0.32064600  1
  C  1007  1  0.34900800  0.58128400  0.32082500  1
  C  1008  1  0.32842500  0.64586100  0.29880700  1
  C  1009  1  0.30879800  0.65759800  0.28974600  1
  C  1010  1  0.28200400  0.65071500  0.28324200  1
  C  1011  1  0.27534800  0.63275900  0.28523200  1
  C  1024  1  0.34202400  0.61491600  0.31231100  1
  C  1025  1  0.28469800  0.60284900  0.29605300  1
  C  1028  1  0.39770200  0.62507900  0.33175600  1
  C  1035  1  0.34161100  0.73433500  0.67879300  1
  C  1036  1  0.36846700  0.72455900  0.68007300  1
  C  1037  1  0.39800700  0.75251500  0.67764000  1
  C  1038  1  0.37278100  0.76217700  0.67184200  1
  C  1039  1  0.37831800  0.77964200  0.66518600  1
  C  1040  1  0.40704700  0.78736700  0.66528700  1
  C  1041  1  0.42966600  0.77844700  0.67453900  1
  C  1042  1  0.42563900  0.76089600  0.67989000  1
  C  1043  1  0.36857500  0.70624000  0.68398100  1
  C  1044  1  0.34270300  0.69782100  0.68945600  1
  C  1045  1  0.31650700  0.70762900  0.69149800  1
  C  1046  1  0.31560900  0.72541000  0.68509400  1
  C  1047  1  0.32248100  0.76464800  0.68435400  1
  C  1048  1  0.29514100  0.77174300  0.67829600  1
  C  1049  1  0.30448200  0.76078000  0.64739000  1
  C  1050  1  0.33181500  0.75283800  0.65236200  1
  C  1051  1  0.29479000  0.76094000  0.62960900  1
  C  1052  1  0.31234900  0.75386100  0.61621100  1
  C  1053  1  0.33955900  0.74554000  0.62004400  1
  C  1054  1  0.34897900  0.74527100  0.63815000  1
  C  1055  1  0.32880600  0.76712200  0.70282500  1
  C  1056  1  0.30926700  0.77619400  0.71461200  1
  C  1057  1  0.28239800  0.78266500  0.70780600  1
  C  1058  1  0.27559600  0.78066500  0.68987300  1
  C  1071  1  0.34208200  0.75353700  0.67185400  1
  C  1072  1  0.28471700  0.76986600  0.65994200  1
  C  1075  1  0.39768000  0.73313300  0.67993500  1
  C  1082  1  0.34140800  0.27552900  0.44396700  1
  C  1083  1  0.36818800  0.28538900  0.44277200  1
  C  1084  1  0.39793800  0.25750500  0.44511500  1
  C  1085  1  0.37276500  0.24774600  0.45083600  1
  C  1086  1  0.37839700  0.23024500  0.45736700  1
  C  1087  1  0.40717000  0.22258200  0.45722200  1
  C  1088  1  0.42975400  0.23162000  0.44805400  1
  C  1089  1  0.42563400  0.24920400  0.44284100  1
  C  1090  1  0.36817700  0.30370700  0.43885000  1
  C  1091  1  0.34226800  0.31205500  0.43332900  1
  C  1092  1  0.31614400  0.30218300  0.43126800  1
  C  1093  1  0.31535700  0.28439500  0.43765500  1
  C  1094  1  0.32245500  0.24518400  0.43835100  1
  C  1095  1  0.29513200  0.23805700  0.44440300  1
  C  1096  1  0.30448400  0.24895400  0.47533300  1
  C  1097  1  0.33178200  0.25694400  0.47036500  1
  C  1098  1  0.29482500  0.24873000  0.49312100  1
  C  1099  1  0.31237600  0.25580100  0.50652800  1
  C  1100  1  0.33953700  0.26418300  0.50269900  1
  C  1101  1  0.34893000  0.26450800  0.48458800  1
  C  1102  1  0.32876600  0.24274400  0.41987200  1
  C  1103  1  0.30923800  0.23367400  0.40807700  1
  C  1104  1  0.28237800  0.22718500  0.41487700  1
  C  1105  1  0.27558900  0.22914800  0.43281500  1
  C  1118  1  0.34201100  0.25631200  0.45086400  1
  C  1119  1  0.28472200  0.23988700  0.46276700  1
  C  1122  1  0.39747400  0.27689800  0.44291000  1
  C  1129  1  0.34158900  0.38384200  0.33252900  1
  C  1130  1  0.36049300  0.37532200  0.34496400  1
  C  1131  1  0.40353100  0.37775900  0.32411100  1
  C  1132  1  0.38662100  0.38761600  0.31156000  1
  C  1133  1  0.40248900  0.39493600  0.29676800  1
  C  1134  1  0.43347800  0.39237400  0.29465000  1
  C  1135  1  0.44836200  0.38114200  0.30659200  1
  C  1136  1  0.43368300  0.37401500  0.32119100  1
  C  1137  1  0.34964400  0.36898700  0.36137000  1
  C  1138  1  0.31943200  0.36936300  0.36509800  1
  C  1139  1  0.29931400  0.37572300  0.35234600  1
  C  1140  1  0.31076800  0.38390400  0.33678700  1
  C  1141  1  0.33607800  0.38184700  0.30032700  1
  C  1142  1  0.31644700  0.39152000  0.28919200  1
  C  1143  1  0.33081800  0.42043400  0.30390000  1
  C  1144  1  0.35012900  0.41139800  0.31574000  1
  C  1145  1  0.32840300  0.43917500  0.30432400  1
  C  1146  1  0.34598300  0.44939400  0.31574500  1
  C  1147  1  0.36601000  0.44107700  0.32734900  1
  C  1148  1  0.36731000  0.42221500  0.32744900  1
  C  1149  1  0.33570700  0.36293900  0.29859000  1
  C  1150  1  0.31649100  0.35387300  0.28670600  1
  C  1151  1  0.29782600  0.36403000  0.27576800  1
  C  1152  1  0.29812700  0.38260300  0.27683500  1
  C  1165  1  0.35370200  0.39119200  0.31496800  1
  C  1166  1  0.31300200  0.41101300  0.29040400  1
  C  1169  1  0.39181100  0.37169400  0.34131000  1
  C  1176  1  0.34137700  0.62574800  0.79019800  1
  C  1177  1  0.36029800  0.63411800  0.77767000  1
  C  1178  1  0.40334900  0.63180400  0.79852800  1
  C  1179  1  0.38644000  0.62203800  0.81115000  1
  C  1180  1  0.40232800  0.61478800  0.82596800  1
  C  1181  1  0.43331900  0.61735600  0.82805900  1
  C  1182  1  0.44818900  0.62853800  0.81606300  1
  C  1183  1  0.43351300  0.63555100  0.80141100  1
  C  1184  1  0.34944500  0.64035300  0.76122800  1
  C  1185  1  0.31920900  0.64005700  0.75755600  1
  C  1186  1  0.29909300  0.63389300  0.77040400  1
  C  1187  1  0.31053600  0.62576300  0.78599100  1
  C  1188  1  0.33591700  0.62780500  0.82241300  1
  C  1189  1  0.31631900  0.61813800  0.83357700  1
  C  1190  1  0.33069600  0.58920700  0.81889900  1
  C  1191  1  0.34997200  0.59823600  0.80703500  1
  C  1192  1  0.32828800  0.57046500  0.81849500  1
  C  1193  1  0.34585900  0.56023700  0.80707600  1
  C  1194  1  0.36587500  0.56854900  0.79546300  1
  C  1195  1  0.36714200  0.58741000  0.79532600  1
  C  1196  1  0.33547300  0.64671800  0.82410600  1
  C  1197  1  0.31627400  0.65579000  0.83599800  1
  C  1198  1  0.29768400  0.64563500  0.84698400  1
  C  1199  1  0.29800500  0.62706100  0.84593400  1
  C  1212  1  0.35352100  0.61844600  0.80777200  1
  C  1213  1  0.31288900  0.59864200  0.83239200  1
  C  1216  1  0.39164500  0.63771700  0.78127200  1
  C  1223  1  0.34126200  0.73362600  0.44102500  1
  C  1224  1  0.36022500  0.72089300  0.43300600  1
  C  1225  1  0.40325000  0.74182000  0.43485400  1
  C  1226  1  0.38639100  0.75456900  0.44448400  1
  C  1227  1  0.40232300  0.76945300  0.45155900  1
  C  1228  1  0.43330100  0.77151100  0.44890800  1
  C  1229  1  0.44811000  0.75939200  0.43783000  1
  C  1230  1  0.43340000  0.74464900  0.43103300  1
  C  1231  1  0.34940800  0.70426900  0.42724700  1
  C  1232  1  0.31917100  0.70060200  0.42761400  1
  C  1233  1  0.29901500  0.71371300  0.43315000  1
  C  1234  1  0.31039700  0.72947900  0.44095500  1
  C  1235  1  0.33587700  0.76587000  0.43874800  1
  C  1236  1  0.31644000  0.77714100  0.44841000  1
  C  1237  1  0.33088900  0.76256100  0.47738000  1
  C  1238  1  0.35004300  0.75062200  0.46835900  1
  C  1239  1  0.32858400  0.76222500  0.49612900  1
  C  1240  1  0.34610200  0.75077400  0.50635900  1
  C  1241  1  0.36599700  0.73908800  0.49804400  1
  C  1242  1  0.36718400  0.73890400  0.47918600  1
  C  1243  1  0.33537100  0.76748200  0.41983000  1
  C  1244  1  0.31621700  0.77939000  0.41074400  1
  C  1245  1  0.29775700  0.79046900  0.42088600  1
  C  1246  1  0.29818000  0.78950900  0.43946500  1
  C  1259  1  0.35347400  0.75125400  0.44814700  1
  C  1260  1  0.31313000  0.77606200  0.46792100  1
  C  1263  1  0.39156600  0.72443000  0.42932200  1
  C  1270  1  0.34158000  0.27603600  0.68192500  1
  C  1271  1  0.36053700  0.28865800  0.69012200  1
  C  1272  1  0.40361000  0.26780600  0.68789500  1
  C  1273  1  0.38668300  0.25511100  0.67823600  1
  C  1274  1  0.40255600  0.24025200  0.67106100  1
  C  1275  1  0.43355500  0.23817900  0.67361500  1
  C  1276  1  0.44846600  0.25027600  0.68466700  1
  C  1277  1  0.43380300  0.26497400  0.69159600  1
  C  1278  1  0.34969500  0.30516300  0.69620300  1
  C  1279  1  0.31943900  0.30878700  0.69599500  1
  C  1280  1  0.29930700  0.29581000  0.69012800  1
  C  1281  1  0.31071500  0.28017700  0.68207200  1
  C  1282  1  0.33618900  0.24380100  0.68403500  1
  C  1283  1  0.31665900  0.23259100  0.67437200  1
  C  1284  1  0.33098100  0.24726200  0.64542900  1
  C  1285  1  0.35019300  0.25916800  0.65445400  1
  C  1286  1  0.32857800  0.24765300  0.62668800  1
  C  1287  1  0.34609800  0.25910000  0.61645600  1
  C  1288  1  0.36605900  0.27075100  0.62476600  1
  C  1289  1  0.36730800  0.27090000  0.64362600  1
  C  1290  1  0.33577100  0.24212200  0.70294700  1
  C  1291  1  0.31660800  0.23021600  0.71202800  1
  C  1292  1  0.29804500  0.21920400  0.70188400  1
  C  1293  1  0.29837200  0.22023000  0.68330900  1
  C  1306  1  0.35374900  0.25845300  0.67466100  1
  C  1307  1  0.31324700  0.23374100  0.65487200  1
  C  1310  1  0.39192400  0.28511900  0.69365600  1
  C  1317  1  0.67679400  0.62566700  0.33257700  1
  C  1318  1  0.65784100  0.63420800  0.34497200  1
  C  1319  1  0.61498900  0.63194200  0.32396100  1
  C  1320  1  0.63184800  0.62190400  0.31153400  1
  C  1321  1  0.61594700  0.61445800  0.29681600  1
  C  1322  1  0.58496700  0.61703400  0.29466900  1
  C  1323  1  0.57024000  0.62861400  0.30636600  1
  C  1324  1  0.58491600  0.63581600  0.32092500  1
  C  1325  1  0.66859900  0.64050600  0.36141400  1
  C  1326  1  0.69878500  0.64007800  0.36521900  1
  C  1327  1  0.71896700  0.63382200  0.35245300  1
  C  1328  1  0.70759900  0.62563400  0.33687600  1
  C  1329  1  0.68241000  0.62764700  0.30038000  1
  C  1330  1  0.70205700  0.61797200  0.28925600  1
  C  1331  1  0.68766000  0.58906400  0.30397000  1
  C  1332  1  0.66832700  0.59810600  0.31579400  1
  C  1333  1  0.69007000  0.57032600  0.30440500  1
  C  1334  1  0.67249100  0.56011100  0.31583000  1
  C  1335  1  0.65239300  0.56843400  0.32738800  1
  C  1336  1  0.65111900  0.58729800  0.32749800  1
  C  1337  1  0.68280200  0.64655700  0.29864800  1
  C  1338  1  0.70201300  0.65562100  0.28676300  1
  C  1339  1  0.72068300  0.64546200  0.27582900  1
  C  1340  1  0.72041100  0.62689000  0.27691800  1
  C  1353  1  0.66474500  0.61830900  0.31500300  1
  C  1354  1  0.70549800  0.59847900  0.29047800  1
  C  1357  1  0.62661400  0.63798900  0.34119100  1
  C  1364  1  0.67685100  0.38396700  0.79001500  1
  C  1365  1  0.65792100  0.37547700  0.77757300  1
  C  1366  1  0.61498200  0.37777500  0.79851600  1
  C  1367  1  0.63185700  0.38771100  0.81102000  1
  C  1368  1  0.61596200  0.39508200  0.82577800  1
  C  1369  1  0.58496700  0.39254600  0.82787900  1
  C  1370  1  0.57018900  0.38111500  0.81606200  1
  C  1371  1  0.58488100  0.37394100  0.80149500  1
  C  1372  1  0.66870900  0.36922600  0.76112200  1
  C  1373  1  0.69891500  0.36959800  0.75737400  1
  C  1374  1  0.71907300  0.37582400  0.77016900  1
  C  1375  1  0.70767000  0.38398700  0.78575200  1
  C  1376  1  0.68240200  0.38196300  0.82222000  1
  C  1377  1  0.70201100  0.39164100  0.83336600  1
  C  1378  1  0.68761100  0.42055200  0.81866000  1
  C  1379  1  0.66832700  0.41150800  0.80681300  1
  C  1380  1  0.68999300  0.43929300  0.81824100  1
  C  1381  1  0.67241300  0.44950300  0.80681200  1
  C  1382  1  0.65240800  0.44117700  0.79520000  1
  C  1383  1  0.65114500  0.42231400  0.79509200  1
  C  1384  1  0.68280200  0.36305400  0.82394400  1
  C  1385  1  0.70199300  0.35399100  0.83584400  1
  C  1386  1  0.72062100  0.36415100  0.84680200  1
  C  1387  1  0.72033800  0.38272400  0.84571900  1
  C  1400  1  0.66476200  0.39130300  0.80758600  1
  C  1401  1  0.70543200  0.41113600  0.83216100  1
  C  1404  1  0.62665300  0.37175100  0.78128900  1
  C  1411  1  0.67665900  0.27615300  0.44046800  1
  C  1412  1  0.65774200  0.28864500  0.43204100  1
  C  1413  1  0.61465700  0.26782800  0.43448700  1
  C  1414  1  0.63158900  0.25521200  0.44424900  1
  C  1415  1  0.61573200  0.24038700  0.45150800  1
  C  1416  1  0.58472100  0.23831700  0.44901400  1
  C  1417  1  0.56981500  0.25032200  0.43785600  1
  C  1418  1  0.58447600  0.26495400  0.43079200  1
  C  1419  1  0.66861000  0.30504900  0.42571100  1
  C  1420  1  0.69884000  0.30873400  0.42602000  1
  C  1421  1  0.71894900  0.29592500  0.43227000  1
  C  1422  1  0.70749700  0.28036600  0.44045200  1
  C  1423  1  0.68209900  0.24394300  0.43844900  1
  C  1424  1  0.70173200  0.23279200  0.44810300  1
  C  1425  1  0.68741400  0.24748300  0.47703500  1
  C  1426  1  0.66811200  0.25934200  0.46801500  1
  C  1427  1  0.68984500  0.24788700  0.49577400  1
  C  1428  1  0.67229800  0.25931200  0.50601000  1
  C  1429  1  0.65227800  0.27093100  0.49771200  1
  C  1430  1  0.65096400  0.27105300  0.47884900  1
  C  1431  1  0.68243700  0.24221700  0.41953900  1
  C  1432  1  0.70158900  0.23031000  0.41045500  1
  C  1433  1  0.72024700  0.21935200  0.42059500  1
  C  1434  1  0.72002000  0.22043200  0.43916700  1
  C  1447  1  0.66451900  0.25859400  0.44780800  1
  C  1448  1  0.70520200  0.23398500  0.46759400  1
  C  1451  1  0.62638600  0.28504500  0.42847700  1
  C  1458  1  0.67673200  0.73357400  0.68223300  1
  C  1459  1  0.65781700  0.72116500  0.69078600  1
  C  1460  1  0.61482800  0.74205500  0.68836100  1
  C  1461  1  0.63173100  0.75456700  0.67845000  1
  C  1462  1  0.61586700  0.76934800  0.67110000  1
  C  1463  1  0.58485800  0.77143700  0.67359900  1
  C  1464  1  0.57001900  0.75957800  0.68495000  1
  C  1465  1  0.58469300  0.74500500  0.69212300  1
  C  1466  1  0.66863200  0.70475600  0.69713000  1
  C  1467  1  0.69883800  0.70100300  0.69674000  1
  C  1468  1  0.71897400  0.71373700  0.69036500  1
  C  1469  1  0.70754400  0.72929300  0.68216600  1
  C  1470  1  0.68227600  0.76577000  0.68422800  1
  C  1471  1  0.70195600  0.77688600  0.67456700  1
  C  1472  1  0.68758000  0.76219300  0.64564300  1
  C  1473  1  0.66823200  0.75036900  0.65466900  1
  C  1474  1  0.69001500  0.76177200  0.62690300  1
  C  1475  1  0.67242900  0.75036400  0.61667400  1
  C  1476  1  0.65234800  0.73878700  0.62498000  1
  C  1477  1  0.65103700  0.73867400  0.64384400  1
  C  1478  1  0.68263800  0.76750600  0.70313700  1
  C  1479  1  0.70185800  0.77937900  0.71221400  1
  C  1480  1  0.72055500  0.79030700  0.70206600  1
  C  1481  1  0.72030300  0.78922300  0.68349300  1
  C  1494  1  0.66464300  0.75113800  0.67487600  1
  C  1495  1  0.70542100  0.77567200  0.65507500  1
  C  1498  1  0.62652700  0.72486400  0.69445900  1
  C  1505  1  0.14223300  0.01935700  0.27886400  1
  C  1506  1  0.15396300  0.00654300  0.26691400  1
  C  1507  1  0.14549000  0.98838400  0.26704600  1
  C  1508  1  0.12452300  0.98239000  0.27980500  1
  C  1509  1  0.11251000  0.99507800  0.29171300  1
  C  1511  1  0.12150600  0.01307600  0.29145800  1
  C  1514  1  0.15865500  0.97598800  0.25379800  1
  C  1518  1  0.15427300  0.03665100  0.27886600  1
  C  1520  1  0.11201000  0.96537700  0.27890100  1
  C  1522  1  0.14228800  0.99016100  0.84379400  1
  C  1523  1  0.15408100  0.00299000  0.85570600  1
  C  1524  1  0.14563800  0.02115400  0.85555100  1
  C  1525  1  0.12464400  0.02713900  0.84280400  1
  C  1526  1  0.11258600  0.01443900  0.83092600  1
  C  1528  1  0.12155300  0.99643500  0.83120100  1
  C  1531  1  0.15884800  0.03356300  0.86877100  1
  C  1535  1  0.15427800  0.97285000  0.84385500  1
  C  1537  1  0.11214100  0.04415600  0.84370300  1
  C  1539  1  0.14215600  0.78735300  0.07601300  1
  C  1540  1  0.15404900  0.79924500  0.06319700  1
  C  1541  1  0.14562500  0.79913400  0.04502900  1
  C  1542  1  0.12455200  0.78644500  0.03902300  1
  C  1543  1  0.11242100  0.77457000  0.05170000  1
  C  1545  1  0.12138100  0.77480000  0.06970600  1
  C  1548  1  0.15893200  0.81233900  0.03264200  1
  C  1552  1  0.15413000  0.78736400  0.09332900  1
  C  1554  1  0.11205600  0.78740600  0.02200900  1
  C  1556  1  0.14201600  0.22231900  0.04672400  1
  C  1557  1  0.15379500  0.21036900  0.05952500  1
  C  1558  1  0.14534800  0.21047200  0.07768900  1
  C  1559  1  0.12434900  0.22320600  0.08369700  1
  C  1560  1  0.11234700  0.23514700  0.07104300  1
  C  1562  1  0.12133000  0.23492100  0.05304200  1
  C  1565  1  0.15855800  0.19722000  0.09006200  1
  C  1569  1  0.15404400  0.22233800  0.02942200  1
  C  1571  1  0.11189700  0.22226800  0.10072500  1
  C  1573  1  0.87466800  0.99048200  0.27903500  1
  C  1574  1  0.86295300  0.00322400  0.26700200  1
  C  1575  1  0.87156200  0.02136000  0.26695700  1
  C  1576  1  0.89268100  0.02739300  0.27960600  1
  C  1577  1  0.90468000  0.01479000  0.29159900  1
  C  1579  1  0.89552700  0.99682100  0.29152600  1
  C  1582  1  0.85833600  0.03369200  0.25367300  1
  C  1586  1  0.86227200  0.97328000  0.27935600  1
  C  1588  1  0.90515500  0.04440400  0.27857300  1
  C  1590  1  0.87513100  0.01921400  0.84376900  1
  C  1591  1  0.86347900  0.00646300  0.85581500  1
  C  1592  1  0.87213200  0.98833500  0.85585100  1
  C  1593  1  0.89322300  0.98232400  0.84317700  1
  C  1594  1  0.90515500  0.99493300  0.83116700  1
  C  1596  1  0.89596100  0.01289400  0.83125000  1
  C  1599  1  0.85898800  0.97599100  0.86915200  1
  C  1603  1  0.86268300  0.03639800  0.84347300  1
  C  1605  1  0.90574500  0.96532200  0.84416600  1
  C  1607  1  0.87501300  0.22249200  0.07575300  1
  C  1608  1  0.86307300  0.21057300  0.06298100  1
  C  1609  1  0.87159700  0.21056400  0.04483100  1
  C  1610  1  0.89287200  0.22312800  0.03882200  1
  C  1611  1  0.90511100  0.23500000  0.05145900  1
  C  1613  1  0.89604900  0.23489100  0.06944600  1
  C  1616  1  0.85816400  0.19738400  0.03246800  1
  C  1620  1  0.86286000  0.22269200  0.09302000  1
  C  1622  1  0.90532300  0.22209000  0.02180500  1
  C  1624  1  0.87579000  0.78728400  0.04672300  1
  C  1625  1  0.86378000  0.79914400  0.05952800  1
  C  1626  1  0.87214500  0.79904200  0.07770400  1
  C  1627  1  0.89330900  0.78641200  0.08371200  1
  C  1628  1  0.90557100  0.77457100  0.07104900  1
  C  1630  1  0.89666600  0.77479300  0.05303200  1
  C  1633  1  0.85870100  0.81220000  0.09008700  1
  C  1637  1  0.86390800  0.78728600  0.02939000  1
  C  1639  1  0.90571900  0.78739000  0.10074800  1
  C  1641  1  0.65913500  0.51900700  0.78515300  1
  C  1642  1  0.67314300  0.50621500  0.77412800  1
  C  1643  1  0.66357500  0.48828900  0.77294500  1
  C  1644  1  0.63923100  0.48254800  0.78346500  1
  C  1645  1  0.62493500  0.49526400  0.79437800  1
  C  1647  1  0.63492800  0.51301900  0.79542800  1
  C  1650  1  0.67905800  0.47590400  0.76063200  1
  C  1654  1  0.67218100  0.53586000  0.78719500  1
  C  1656  1  0.62543500  0.46617300  0.78059600  1
  C  1658  1  0.65909900  0.49057200  0.33742000  1
  C  1659  1  0.67309200  0.50335800  0.34846400  1
  C  1660  1  0.66353300  0.52128600  0.34964300  1
  C  1661  1  0.63922700  0.52704100  0.33910000  1
  C  1662  1  0.62495100  0.51433200  0.32816700  1
  C  1664  1  0.63493200  0.49657500  0.32711900  1
  C  1667  1  0.67899400  0.53366300  0.36197600  1
  C  1671  1  0.67216300  0.47372000  0.33539400  1
  C  1673  1  0.62542800  0.54341500  0.34196900  1
  C  1675  1  0.65890000  0.28094500  0.57561900  1
  C  1676  1  0.67292600  0.29198100  0.56283900  1
  C  1677  1  0.66341600  0.29316300  0.54490300  1
  C  1678  1  0.63912900  0.28261900  0.53912000  1
  C  1679  1  0.62484200  0.27167200  0.55181200  1
  C  1681  1  0.63478600  0.27062000  0.56957700  1
  C  1684  1  0.67890300  0.30550200  0.53254200  1
  C  1688  1  0.67195100  0.27889800  0.59247600  1
  C  1690  1  0.62534700  0.28551200  0.52274600  1
  C  1692  1  0.65894500  0.72877900  0.54707300  1
  C  1693  1  0.67293100  0.71771500  0.55984700  1
  C  1694  1  0.66341300  0.71653000  0.57778300  1
  C  1695  1  0.63914300  0.72709100  0.58355800  1
  C  1696  1  0.62492200  0.73808500  0.57088600  1
  C  1698  1  0.63487500  0.73913600  0.55312200  1
  C  1701  1  0.67886600  0.70416700  0.59013400  1
  C  1705  1  0.67199500  0.73082100  0.53021500  1
  C  1707  1  0.62539700  0.72420500  0.59994900  1
  C  1709  1  0.35922600  0.49067200  0.78532900  1
  C  1710  1  0.34525500  0.50347200  0.77429000  1
  C  1711  1  0.35478800  0.52140700  0.77314200  1
  C  1712  1  0.37906300  0.52715000  0.78371800  1
  C  1713  1  0.39326600  0.51445300  0.79469100  1
  C  1715  1  0.38329500  0.49669200  0.79570600  1
  C  1718  1  0.33935300  0.53378800  0.76080000  1
  C  1722  1  0.34618200  0.47380700  0.78731200  1
  C  1724  1  0.39283000  0.54353600  0.78086000  1
  C  1726  1  0.35934500  0.51894100  0.33742800  1
  C  1727  1  0.34537900  0.50614800  0.34848100  1
  C  1728  1  0.35492100  0.48821600  0.34964700  1
  C  1729  1  0.37919100  0.48247100  0.33907500  1
  C  1730  1  0.39340500  0.49515800  0.32809200  1
  C  1732  1  0.38341900  0.51291500  0.32706000  1
  C  1735  1  0.33949700  0.47583900  0.36199700  1
  C  1739  1  0.34625200  0.53578700  0.33540500  1
  C  1741  1  0.39299200  0.46609100  0.34192400  1
  C  1743  1  0.35911800  0.72882800  0.57581100  1
  C  1744  1  0.34509800  0.71785600  0.56297400  1
  C  1745  1  0.35469300  0.71672100  0.54505300  1
  C  1746  1  0.37909000  0.72722700  0.53938000  1
  C  1747  1  0.39338300  0.73810700  0.55212200  1
  C  1749  1  0.38335300  0.73910900  0.56987000  1
  C  1752  1  0.33920100  0.70446300  0.53261500  1
  C  1756  1  0.34607800  0.73078700  0.59267800  1
  C  1758  1  0.39291000  0.72439800  0.52301000  1
  C  1760  1  0.35908200  0.28087700  0.54697200  1
  C  1761  1  0.34506500  0.29186800  0.55979400  1
  C  1762  1  0.35468000  0.29304400  0.57771000  1
  C  1763  1  0.37909400  0.28255700  0.58339400  1
  C  1764  1  0.39338300  0.27166000  0.57066600  1
  C  1766  1  0.38333700  0.27061900  0.55292300  1
  C  1769  1  0.33918700  0.30532000  0.59012900  1
  C  1773  1  0.34601600  0.27886100  0.53012300  1
  C  1775  1  0.39291900  0.28541800  0.59976100  1
  C  1777  1  0.24091700  0.18397000  0.36646100  1
  C  1778  1  0.26442900  0.18077300  0.37853900  1
  C  1779  1  0.28639400  0.19362000  0.38259900  1
  C  1780  1  0.28437700  0.21086900  0.37488500  1
  C  1781  1  0.26072100  0.21417100  0.36291900  1
  C  1783  1  0.23954100  0.20101200  0.35869300  1
  C  1786  1  0.31100900  0.18774800  0.39438100  1
  C  1790  1  0.22244200  0.16970200  0.36186800  1
  C  1792  1  0.30639700  0.22389100  0.37676300  1
  C  1794  1  0.24056700  0.82567200  0.75623300  1
  C  1795  1  0.26417300  0.82899100  0.74425300  1
  C  1796  1  0.28623900  0.81620900  0.74018800  1
  C  1797  1  0.28426600  0.79891900  0.74781500  1
  C  1798  1  0.26054000  0.79550400  0.75969800  1
  C  1800  1  0.23921600  0.80858500  0.76390100  1
  C  1803  1  0.31088300  0.82217400  0.72847800  1
  C  1807  1  0.22182700  0.83984400  0.76077200  1
  C  1809  1  0.30637500  0.78595600  0.74593200  1
  C  1811  1  0.24010500  0.69934000  0.24025900  1
  C  1812  1  0.26368600  0.68733800  0.23695600  1
  C  1813  1  0.28569300  0.68323200  0.24976300  1
  C  1814  1  0.28365400  0.69081500  0.26707000  1
  C  1815  1  0.25993600  0.70270700  0.27047400  1
  C  1817  1  0.23869700  0.70696800  0.25736400  1
  C  1820  1  0.31036800  0.67154300  0.24379900  1
  C  1824  1  0.22156800  0.70402100  0.22603800  1
  C  1826  1  0.30574000  0.68893400  0.28004300  1
  C  1828  1  0.24055000  0.31022200  0.88226900  1
  C  1829  1  0.26404000  0.32231800  0.88546300  1
  C  1830  1  0.28602400  0.32637200  0.87262500  1
  C  1831  1  0.28404500  0.31862900  0.85538500  1
  C  1832  1  0.26039800  0.30665800  0.85207900  1
  C  1834  1  0.23921400  0.30243200  0.86523400  1
  C  1837  1  0.31063600  0.33815100  0.87850500  1
  C  1841  1  0.22217000  0.30556500  0.89656200  1
  C  1843  1  0.30608000  0.32051100  0.84237300  1
  C  1845  1  0.77777300  0.82527400  0.36619100  1
  C  1846  1  0.75404600  0.82876300  0.37803800  1
  C  1847  1  0.73191400  0.81604500  0.38219100  1
  C  1848  1  0.73391500  0.79866200  0.37477800  1
  C  1849  1  0.75774100  0.79508800  0.36301600  1
  C  1851  1  0.77914000  0.80809800  0.35872700  1
  C  1854  1  0.70719600  0.82215900  0.39376700  1
  C  1858  1  0.79685900  0.83930700  0.36169700  1
  C  1860  1  0.71177600  0.78573000  0.37677600  1
  C  1862  1  0.77755400  0.18417300  0.75632400  1
  C  1863  1  0.75391400  0.18079000  0.74438200  1
  C  1864  1  0.73185400  0.19355600  0.74024200  1
  C  1865  1  0.73384000  0.21088500  0.74777700  1
  C  1866  1  0.75756900  0.21435800  0.75964100  1
  C  1868  1  0.77888500  0.20129500  0.76391500  1
  C  1871  1  0.70719200  0.18752800  0.72857700  1
  C  1875  1  0.79637000  0.17003900  0.76092100  1
  C  1877  1  0.71173400  0.22384500  0.74582700  1
  C  1879  1  0.77747900  0.30985100  0.24067600  1
  C  1880  1  0.75383200  0.32179600  0.23732500  1
  C  1881  1  0.73180300  0.32592100  0.25011400  1
  C  1882  1  0.73385500  0.31838800  0.26744200  1
  C  1883  1  0.75762200  0.30654400  0.27089200  1
  C  1885  1  0.77890800  0.30228500  0.25780600  1
  C  1888  1  0.70712100  0.33758900  0.24412100  1
  C  1892  1  0.79624800  0.30524700  0.22652100  1
  C  1894  1  0.71178900  0.32032700  0.28042700  1
  C  1896  1  0.77691700  0.69958900  0.88223100  1
  C  1897  1  0.75335000  0.68752900  0.88537500  1
  C  1898  1  0.73149800  0.68344700  0.87246600  1
  C  1899  1  0.73367400  0.69113400  0.85521100  1
  C  1900  1  0.75739000  0.70306800  0.85195300  1
  C  1902  1  0.77846300  0.70730500  0.86516900  1
  C  1905  1  0.70680100  0.67170300  0.87828800  1
  C  1909  1  0.79516000  0.70433100  0.89658000  1
  C  1911  1  0.71175800  0.68925100  0.84212500  1
  C  1913  1  0.77566800  0.82797500  0.75563900  1
  C  1914  1  0.74866900  0.83174800  0.74686600  1
  C  1915  1  0.72808800  0.81832200  0.74207200  1
  C  1916  1  0.73517100  0.80017600  0.74545400  1
  C  1917  1  0.76235200  0.79644000  0.75415000  1
  C  1919  1  0.78234600  0.81001000  0.75903800  1
  C  1922  1  0.69972200  0.82436400  0.73403300  1
  C  1926  1  0.79514300  0.84193500  0.75908300  1
  C  1928  1  0.71467500  0.78631900  0.74381500  1
  C  1930  1  0.77561900  0.18178900  0.36718500  1
  C  1931  1  0.74853200  0.17796400  0.37583200  1
  C  1932  1  0.72786300  0.19135900  0.38057100  1
  C  1933  1  0.73493700  0.20952000  0.37726200  1
  C  1934  1  0.76220400  0.21330800  0.36869200  1
  C  1936  1  0.78230400  0.19977100  0.36387600  1
  C  1939  1  0.69943900  0.18528200  0.38851200  1
  C  1943  1  0.79528000  0.16788600  0.36387900  1
  C  1945  1  0.71439200  0.22335400  0.37886400  1
  C  1947  1  0.77611000  0.31066300  0.88432200  1
  C  1948  1  0.74903100  0.31931300  0.88816800  1
  C  1949  1  0.72834900  0.32407400  0.87478700  1
  C  1950  1  0.73541400  0.32080300  0.85661900  1
  C  1951  1  0.76269000  0.31225600  0.85280600  1
  C  1953  1  0.78280400  0.30742100  0.86633000  1
  C  1956  1  0.69992800  0.33199900  0.88088700  1
  C  1960  1  0.79580600  0.30736200  0.89820700  1
  C  1962  1  0.71484500  0.32240500  0.84280000  1
  C  1964  1  0.77588700  0.69888300  0.23815300  1
  C  1965  1  0.74881700  0.69018600  0.23438500  1
  C  1966  1  0.72819900  0.68546100  0.24781500  1
  C  1967  1  0.73532800  0.68884400  0.26595400  1
  C  1968  1  0.76261500  0.69740700  0.26969600  1
  C  1970  1  0.78264700  0.70221600  0.25612000  1
  C  1973  1  0.69976900  0.67749500  0.24178400  1
  C  1977  1  0.79543000  0.70220200  0.22420200  1
  C  1979  1  0.71483600  0.68721600  0.27981300  1
  C  1981  1  0.24309700  0.18143300  0.75541200  1
  C  1982  1  0.27017200  0.17776200  0.74667200  1
  C  1983  1  0.29063500  0.19126100  0.74190200  1
  C  1984  1  0.28334900  0.20937800  0.74528400  1
  C  1985  1  0.25606400  0.21302300  0.75389400  1
  C  1987  1  0.23619400  0.19937800  0.75875800  1
  C  1990  1  0.31910900  0.18531600  0.73392600  1
  C  1994  1  0.22377700  0.16739100  0.75887000  1
  C  1996  1  0.30370300  0.22331200  0.74362500  1
  C  1998  1  0.24267700  0.82808900  0.36718300  1
  C  1999  1  0.26976700  0.83180300  0.37588700  1
  C  2000  1  0.29022600  0.81832500  0.38072700  1
  C  2001  1  0.28291700  0.80019100  0.37746000  1
  C  2002  1  0.25563100  0.79650300  0.36887000  1
  C  2004  1  0.23575800  0.81012500  0.36394800  1
  C  2007  1  0.31870900  0.82429600  0.38866800  1
  C  2011  1  0.22329300  0.84210200  0.36369400  1
  C  2013  1  0.30326800  0.78625400  0.37913900  1
  C  2015  1  0.24237800  0.69919800  0.88458200  1
  C  2016  1  0.26943500  0.69048400  0.88835500  1
  C  2017  1  0.29001600  0.68569400  0.87492800  1
  C  2018  1  0.28287500  0.68903100  0.85678300  1
  C  2019  1  0.25563700  0.69765100  0.85303500  1
  C  2021  1  0.23564300  0.70252900  0.86660900  1
  C  2024  1  0.31843300  0.67771500  0.88096400  1
  C  2028  1  0.22288400  0.70266900  0.89854500  1
  C  2030  1  0.30335000  0.68738500  0.84291000  1
  C  2032  1  0.24288700  0.31058600  0.23792800  1
  C  2033  1  0.26991500  0.31936800  0.23423700  1
  C  2034  1  0.29042900  0.32411400  0.24771500  1
  C  2035  1  0.28324300  0.32065700  0.26583100  1
  C  2036  1  0.25604000  0.31196200  0.26949500  1
  C  2038  1  0.23612100  0.30711800  0.25587000  1
  C  2041  1  0.31883900  0.33215800  0.24175300  1
  C  2045  1  0.22355400  0.30709700  0.22390100  1
  C  2047  1  0.30364600  0.32228200  0.27974300  1
  C  2049  1  0.25355000  0.18904300  0.21018000  1
  C  2050  1  0.25836800  0.17050100  0.21108800  1
  C  2051  1  0.25195800  0.16038700  0.22659800  1
  C  2052  1  0.24022900  0.16905900  0.24198200  1
  C  2053  1  0.23778100  0.18790700  0.24123800  1
  C  2055  1  0.24462100  0.19771200  0.22586400  1
  C  2058  1  0.25750600  0.14090100  0.22607200  1
  C  2062  1  0.25853600  0.19837400  0.19438700  1
  C  2064  1  0.22725800  0.16063600  0.25687800  1
  C  2066  1  0.25338600  0.82059300  0.91223700  1
  C  2067  1  0.25898100  0.83905300  0.91118400  1
  C  2068  1  0.25279100  0.84916800  0.89564400  1
  C  2069  1  0.24043700  0.84059200  0.88039300  1
  C  2070  1  0.23703400  0.82180900  0.88128400  1
  C  2072  1  0.24377800  0.81198300  0.89666100  1
  C  2075  1  0.25933000  0.86854600  0.89593400  1
  C  2079  1  0.25842800  0.81126500  0.92803400  1
  C  2081  1  0.22811600  0.84915100  0.86538300  1
  C  2083  1  0.25329300  0.85585000  0.24536000  1
  C  2084  1  0.25855600  0.85485400  0.22686400  1
  C  2085  1  0.25232200  0.83931200  0.21676100  1
  C  2086  1  0.24030400  0.82399200  0.22539100  1
  C  2087  1  0.23730800  0.82482900  0.24420400  1
  C  2089  1  0.24408800  0.84021000  0.25401300  1
  C  2092  1  0.25844100  0.83968900  0.19733300  1
  C  2096  1  0.25829300  0.87165000  0.25468500  1
  C  2098  1  0.22784400  0.80898300  0.21689500  1
  C  2100  1  0.25357000  0.15366200  0.87701200  1
  C  2101  1  0.25797200  0.15450400  0.89559100  1
  C  2102  1  0.25126800  0.16996600  0.90571000  1
  C  2103  1  0.23967900  0.18536700  0.89699200  1
  C  2104  1  0.23781400  0.18471500  0.87811400  1
  C  2106  1  0.24491700  0.16938400  0.86831400  1
  C  2109  1  0.25625600  0.16932200  0.92524800  1
  C  2113  1  0.25863300  0.13788500  0.86767600  1
  C  2115  1  0.22626300  0.20015500  0.90537800  1
  C  2117  1  0.76284100  0.81926300  0.21054400  1
  C  2118  1  0.76118000  0.83800600  0.21037800  1
  C  2119  1  0.76931700  0.84849700  0.22532600  1
  C  2120  1  0.77905600  0.83996000  0.24127600  1
  C  2121  1  0.77798800  0.82106800  0.24167100  1
  C  2123  1  0.76996100  0.81091300  0.22673000  1
  C  2126  1  0.76851200  0.86817600  0.22340000  1
  C  2130  1  0.75750300  0.80948900  0.19510400  1
  C  2132  1  0.79540400  0.84828200  0.25491600  1
  C  2134  1  0.76275400  0.19040600  0.91209300  1
  C  2135  1  0.76085300  0.17166700  0.91217200  1
  C  2136  1  0.76892600  0.16120000  0.89719500  1
  C  2137  1  0.77889200  0.16975600  0.88130600  1
  C  2138  1  0.77810300  0.18866000  0.88100100  1
  C  2140  1  0.77008000  0.19878900  0.89595900  1
  C  2143  1  0.76773200  0.14152000  0.89901500  1
  C  2147  1  0.75741200  0.20014600  0.92755500  1
  C  2149  1  0.79513600  0.16143800  0.86759900  1
  C  2151  1  0.76302600  0.15391400  0.24655400  1
  C  2152  1  0.76066700  0.15405900  0.22783300  1
  C  2153  1  0.76844800  0.16916400  0.21746700  1
  C  2154  1  0.77869300  0.18494600  0.22610900  1
  C  2155  1  0.77830800  0.18502400  0.24502600  1
  C  2157  1  0.77045600  0.16996900  0.25505300  1
  C  2160  1  0.76650700  0.16761000  0.19778700  1
  C  2164  1  0.75783400  0.13835100  0.25617000  1
  C  2166  1  0.79453500  0.19886400  0.21783800  1
  C  2168  1  0.76438400  0.85565600  0.87694000  1
  C  2169  1  0.75905900  0.85470200  0.89543000  1
  C  2170  1  0.76543000  0.83922300  0.90559800  1
  C  2171  1  0.77769600  0.82393600  0.89703500  1
  C  2172  1  0.78075800  0.82471500  0.87822400  1
  C  2174  1  0.77386400  0.84003800  0.86835600  1
  C  2177  1  0.75924500  0.83964900  0.92501500  1
  C  2181  1  0.75929400  0.87141000  0.86756000  1
  C  2183  1  0.79031500  0.80901500  0.90558800  1
  C  2185  1  0.76030000  0.69116700  0.71578400  1
  C  2186  1  0.77068200  0.67343900  0.71566400  1
  C  2187  1  0.76550500  0.66160200  0.73003300  1
  C  2188  1  0.74984300  0.66776700  0.74528100  1
  C  2189  1  0.74025700  0.68569800  0.74554900  1
  C  2191  1  0.74552600  0.69722200  0.73114300  1
  C  2194  1  0.77673400  0.64304700  0.72891600  1
  C  2198  1  0.76633700  0.70244800  0.70149700  1
  C  2200  1  0.74116600  0.65674600  0.75930200  1
  C  2202  1  0.76015800  0.31839000  0.40669800  1
  C  2203  1  0.77078100  0.33606700  0.40671100  1
  C  2204  1  0.76554700  0.34789200  0.39233900  1
  C  2205  1  0.74955800  0.34176800  0.37719700  1
  C  2206  1  0.73970900  0.32388700  0.37703900  1
  C  2208  1  0.74506600  0.31236900  0.39143900  1
  C  2211  1  0.77705500  0.36639300  0.39333900  1
  C  2215  1  0.76626600  0.30711700  0.42098100  1
  C  2217  1  0.74080100  0.35279700  0.36319100  1
  C  2219  1  0.76009600  0.35009200  0.74778500  1
  C  2220  1  0.77097400  0.34988900  0.73016300  1
  C  2221  1  0.76555400  0.33548800  0.71840300  1
  C  2222  1  0.74912000  0.32052800  0.72454300  1
  C  2223  1  0.73906700  0.32056100  0.74238600  1
  C  2225  1  0.74462900  0.33498000  0.75384000  1
  C  2228  1  0.77733300  0.33626600  0.69995400  1
  C  2232  1  0.76630600  0.36443000  0.75897500  1
  C  2234  1  0.74002700  0.30656700  0.71355600  1
  C  2236  1  0.76002600  0.65951000  0.37489800  1
  C  2237  1  0.77085000  0.65965100  0.39253300  1
  C  2238  1  0.76549400  0.67404400  0.40431400  1
  C  2239  1  0.74917100  0.68905100  0.39818300  1
  C  2240  1  0.73919100  0.68908700  0.38032800  1
  C  2242  1  0.74468200  0.67467000  0.36885400  1
  C  2245  1  0.77721600  0.67320000  0.42277300  1
  C  2249  1  0.76620800  0.64518600  0.36368400  1
  C  2251  1  0.74022400  0.70303000  0.40918900  1
  C  2253  1  0.25873500  0.31799400  0.71624900  1
  C  2254  1  0.24727600  0.33547900  0.71676600  1
  C  2255  1  0.25300100  0.34721900  0.73114200  1
  C  2256  1  0.27041900  0.34120400  0.74574700  1
  C  2257  1  0.28100300  0.32347400  0.74543400  1
  C  2259  1  0.27510100  0.31203600  0.73105300  1
  C  2262  1  0.24051000  0.36551000  0.73070600  1
  C  2266  1  0.25226300  0.30682400  0.70193000  1
  C  2268  1  0.27989200  0.35217400  0.75962400  1
  C  2270  1  0.25916400  0.69190500  0.40649300  1
  C  2271  1  0.24713300  0.67460500  0.40512200  1
  C  2272  1  0.25371300  0.66313300  0.39064500  1
  C  2273  1  0.27282500  0.66918700  0.37681200  1
  C  2274  1  0.28376900  0.68683200  0.37794800  1
  C  2276  1  0.27685400  0.69803100  0.39233700  1
  C  2279  1  0.24032400  0.64507100  0.39027000  1
  C  2283  1  0.25226100  0.70273600  0.42101600  1
  C  2285  1  0.28377100  0.65852700  0.36297700  1
  C  2287  1  0.25803900  0.65957900  0.74800800  1
  C  2288  1  0.24730700  0.65968700  0.73035300  1
  C  2289  1  0.25271200  0.67406400  0.71856100  1
  C  2290  1  0.26898400  0.68908500  0.72470300  1
  C  2291  1  0.27890600  0.68914300  0.74257000  1
  C  2293  1  0.27337800  0.67474100  0.75405200  1
  C  2296  1  0.24109400  0.67319400  0.70008000  1
  C  2300  1  0.25183600  0.64527500  0.75924000  1
  C  2302  1  0.27800200  0.70304600  0.71371800  1
  C  2304  1  0.25794400  0.35034000  0.37491400  1
  C  2305  1  0.24756400  0.35047400  0.39264300  1
  C  2306  1  0.25272700  0.33610900  0.40448900  1
  C  2307  1  0.26838500  0.32085900  0.39833000  1
  C  2308  1  0.27796600  0.32057400  0.38039900  1
  C  2310  1  0.27269500  0.33497100  0.36886600  1
  C  2313  1  0.24150300  0.33723800  0.42304400  1
  C  2317  1  0.25192700  0.36462100  0.36362500  1
  C  2319  1  0.27703800  0.30683600  0.40935500  1
  C  2321  1  0.05730500  0.07921200  0.35629400  1
  C  2322  1  0.03567200  0.08595100  0.36805700  1
  C  2323  1  0.00682000  0.09074600  0.36221900  1
  C  2324  1  0.99880200  0.08818700  0.34402000  1
  C  2325  1  0.02022100  0.08028700  0.33266200  1
  C  2327  1  0.04883700  0.07593500  0.33859300  1
  C  2330  1  0.98637000  0.09917000  0.37523200  1
  C  2334  1  0.08641200  0.07652800  0.36194500  1
  C  2336  1  0.97454900  0.09643100  0.33568200  1
  C  2338  1  0.05732300  0.93052000  0.76652800  1
  C  2339  1  0.03567600  0.92386300  0.75472900  1
  C  2340  1  0.00681900  0.91904500  0.76054400  1
  C  2341  1  0.99882200  0.92149400  0.77876200  1
  C  2342  1  0.02026900  0.92930000  0.79016500  1
  C  2344  1  0.04886900  0.93370700  0.78424800  1
  C  2347  1  0.98634200  0.91072300  0.74748200  1
  C  2351  1  0.08642800  0.93323200  0.76088700  1
  C  2353  1  0.97455500  0.91321800  0.78705400  1
  C  2355  1  0.05746300  0.70986600  0.13548900  1
  C  2356  1  0.03561700  0.69808500  0.14194500  1
  C  2357  1  0.00674900  0.70395700  0.14667200  1
  C  2358  1  0.99894300  0.72222200  0.14433700  1
  C  2359  1  0.02058800  0.73359900  0.13667900  1
  C  2361  1  0.04918500  0.72762400  0.13235400  1
  C  2364  1  0.98603400  0.69087700  0.15475200  1
  C  2368  1  0.08656500  0.70416400  0.13288700  1
  C  2370  1  0.97461100  0.73056800  0.15251400  1
  C  2372  1  0.05732200  0.29991300  0.98702900  1
  C  2373  1  0.03531600  0.31167100  0.98072900  1
  C  2374  1  0.00644800  0.30575000  0.97605800  1
  C  2375  1  0.99886600  0.28743000  0.97823200  1
  C  2376  1  0.02062400  0.27608100  0.98580700  1
  C  2378  1  0.04920600  0.28211300  0.99008400  1
  C  2381  1  0.98553400  0.31885000  0.96819900  1
  C  2385  1  0.08640500  0.30568500  0.98957100  1
  C  2387  1  0.97443600  0.27907200  0.97015000  1
  C  2389  1  0.96097400  0.92923100  0.35764500  1
  C  2390  1  0.98236800  0.92171400  0.36908900  1
  C  2391  1  0.01123800  0.91715300  0.36310700  1
  C  2392  1  0.01951500  0.92079900  0.34513800  1
  C  2393  1  0.99838200  0.92945000  0.33416000  1
  C  2395  1  0.96972800  0.93356000  0.34021500  1
  C  2398  1  0.03133700  0.90774800  0.37564100  1
  C  2402  1  0.93178100  0.93151600  0.36330500  1
  C  2404  1  0.04371900  0.91284200  0.33651400  1
  C  2406  1  0.96093600  0.08024400  0.76516800  1
  C  2407  1  0.98225300  0.08777600  0.75368300  1
  C  2408  1  0.01113600  0.09237300  0.75961000  1
  C  2409  1  0.01951000  0.08874300  0.77756100  1
  C  2410  1  0.99843500  0.08012200  0.78860400  1
  C  2412  1  0.96977000  0.07596100  0.78259600  1
  C  2415  1  0.03115400  0.10179400  0.74704200  1
  C  2419  1  0.93173400  0.07789500  0.75955200  1
  C  2421  1  0.04369700  0.09675200  0.78615300  1
  C  2423  1  0.96085500  0.30081300  0.13654400  1
  C  2424  1  0.98225500  0.31233600  0.14393100  1
  C  2425  1  0.01110900  0.30639500  0.14858200  1
  C  2426  1  0.01936500  0.28838500  0.14515400  1
  C  2427  1  0.99820500  0.27729900  0.13665800  1
  C  2429  1  0.96958200  0.28332600  0.13243300  1
  C  2432  1  0.03124200  0.31903100  0.15781900  1
  C  2436  1  0.93168400  0.30646300  0.13412700  1
  C  2438  1  0.04353100  0.27981300  0.15321800  1
  C  2440  1  0.96065800  0.70978500  0.98681100  1
  C  2441  1  0.98210900  0.69805300  0.97981100  1
  C  2442  1  0.01096200  0.70387000  0.97499000  1
  C  2443  1  0.01914400  0.72200100  0.97780800  1
  C  2444  1  0.99791700  0.73332800  0.98592400  1
  C  2446  1  0.96930400  0.72741400  0.99031500  1
  C  2449  1  0.03118900  0.69094500  0.96624300  1
  C  2453  1  0.93153500  0.70418100  0.98953100  1
  C  2455  1  0.04342000  0.73035400  0.96961100  1
  C  2457  1  0.55326200  0.59249700  0.86038200  1
  C  2458  1  0.52961500  0.59881000  0.87094800  1
  C  2459  1  0.49991700  0.59922700  0.86470300  1
  C  2460  1  0.49337600  0.59315600  0.84714200  1
  C  2461  1  0.51705900  0.58571600  0.83718000  1
  C  2463  1  0.54620300  0.58511800  0.84370700  1
  C  2466  1  0.47648500  0.60615700  0.87674000  1
  C  2470  1  0.58248800  0.59353000  0.86645900  1
  C  2472  1  0.46631100  0.59552700  0.83813000  1
  C  2474  1  0.55331500  0.41739800  0.26230900  1
  C  2475  1  0.52961500  0.41118500  0.25172600  1
  C  2476  1  0.49994200  0.41073200  0.25801100  1
  C  2477  1  0.49348500  0.41666100  0.27563000  1
  C  2478  1  0.51722500  0.42398300  0.28562900  1
  C  2480  1  0.54633800  0.42464200  0.27905600  1
  C  2483  1  0.47644700  0.40391900  0.24595300  1
  C  2487  1  0.58251500  0.41639900  0.25618300  1
  C  2489  1  0.46643700  0.41425300  0.28465000  1
  C  2491  1  0.55320400  0.20573600  0.64862500  1
  C  2492  1  0.52949300  0.19509300  0.65472100  1
  C  2493  1  0.49980900  0.20136100  0.65518000  1
  C  2494  1  0.49334800  0.21900800  0.64935100  1
  C  2495  1  0.51710300  0.22908700  0.64216100  1
  C  2497  1  0.54623200  0.22253800  0.64150500  1
  C  2500  1  0.47627900  0.18925700  0.66186600  1
  C  2504  1  0.58240600  0.19960300  0.64958600  1
  C  2506  1  0.46620000  0.22793800  0.65169400  1
  C  2508  1  0.55304300  0.80389800  0.47386700  1
  C  2509  1  0.52934900  0.81456000  0.46777500  1
  C  2510  1  0.49965600  0.80831000  0.46731000  1
  C  2511  1  0.49317500  0.79065500  0.47310700  1
  C  2512  1  0.51689800  0.78056400  0.48031600  1
  C  2514  1  0.54603500  0.78709600  0.48097900  1
  C  2517  1  0.47613700  0.82043400  0.46064400  1
  C  2521  1  0.58225100  0.81002400  0.47292800  1
  C  2523  1  0.46597700  0.78177500  0.47080700  1
  C  2525  1  0.46416300  0.41808500  0.86033900  1
  C  2526  1  0.48795400  0.41161000  0.87068100  1
  C  2527  1  0.51741500  0.41076300  0.86406800  1
  C  2528  1  0.52356700  0.41658900  0.84636600  1
  C  2529  1  0.49977400  0.42428300  0.83667300  1
  C  2531  1  0.47087200  0.42524600  0.84352600  1
  C  2534  1  0.54089600  0.40353800  0.87589500  1
  C  2538  1  0.43506500  0.41722300  0.86663800  1
  C  2540  1  0.55008400  0.41363200  0.83690300  1
  C  2542  1  0.46409000  0.59079500  0.26246800  1
  C  2543  1  0.48782400  0.59727700  0.25208300  1
  C  2544  1  0.51724300  0.59837800  0.25873100  1
  C  2545  1  0.52342500  0.59278300  0.27650600  1
  C  2546  1  0.49967600  0.58513800  0.28627800  1
  C  2548  1  0.47081700  0.58393900  0.27940400  1
  C  2551  1  0.54064700  0.60561400  0.24685600  1
  C  2555  1  0.43500600  0.59135800  0.25611000  1
  C  2557  1  0.54987600  0.59595600  0.28597700  1
  C  2559  1  0.46436000  0.80397700  0.64852600  1
  C  2560  1  0.48814200  0.81435100  0.65496300  1
  C  2561  1  0.51768300  0.80784700  0.65557700  1
  C  2562  1  0.52391600  0.79021800  0.64957300  1
  C  2563  1  0.50011000  0.78048600  0.64195200  1
  C  2565  1  0.47114000  0.78726000  0.64115800  1
  C  2568  1  0.54119500  0.81970400  0.66271900  1
  C  2572  1  0.43522200  0.81019400  0.64955600  1
  C  2574  1  0.55058800  0.78085200  0.65228000  1
  C  2576  1  0.46456600  0.20573700  0.47378700  1
  C  2577  1  0.48830800  0.19527700  0.46743000  1
  C  2578  1  0.51793200  0.20164900  0.46697100  1
  C  2579  1  0.52429200  0.21923800  0.47303700  1
  C  2580  1  0.50051200  0.22907900  0.48053800  1
  C  2582  1  0.47145600  0.22242300  0.48119400  1
  C  2585  1  0.54144000  0.18971200  0.45996400  1
  C  2589  1  0.43539100  0.19959000  0.47271600  1
  C  2591  1  0.55121400  0.22840800  0.47055700  1
  N  44  1  0.15173800  0.04841500  0.29140000  1
  N  45  1  0.21772100  0.14442000  0.25677800  1
  N  46  1  0.10992600  0.08492200  0.35684500  1
  N  47  1  0.22130300  0.16444500  0.34549500  1
  N  91  1  0.15179700  0.96113100  0.83127500  1
  N  92  1  0.21737100  0.86506400  0.86599800  1
  N  93  1  0.10993800  0.92481100  0.76594700  1
  N  94  1  0.22107300  0.84510500  0.77714700  1
  N  138  1  0.15165500  0.77473600  0.10499200  1
  N  139  1  0.21724100  0.80947200  0.20094000  1
  N  140  1  0.11003500  0.70923300  0.14134200  1
  N  141  1  0.22083400  0.72045100  0.22095600  1
  N  185  1  0.15153400  0.23493200  0.01772600  1
  N  186  1  0.21764300  0.20044700  0.92177900  1
  N  187  1  0.10988700  0.30061000  0.98113000  1
  N  188  1  0.22105500  0.28917400  0.90175600  1
  N  232  1  0.86548900  0.96152700  0.29183700  1
  N  233  1  0.79792700  0.86518200  0.25800300  1
  N  234  1  0.90841700  0.92325200  0.35776800  1
  N  235  1  0.79708000  0.84487700  0.34542300  1
  N  279  1  0.86576600  0.04812700  0.83095400  1
  N  280  1  0.79809900  0.14452700  0.86474800  1
  N  281  1  0.90836400  0.08617200  0.76506200  1
  N  282  1  0.79698500  0.16460700  0.77723600  1
  N  326  1  0.86580600  0.23529700  0.10466600  1
  N  327  1  0.79846000  0.20125500  0.20093000  1
  N  328  1  0.90827500  0.30105400  0.14243100  1
  N  329  1  0.79693400  0.28890800  0.22117000  1
  N  373  1  0.86635200  0.77467400  0.01770400  1
  N  374  1  0.80050300  0.80947600  0.92164700  1
  N  375  1  0.90802100  0.70931000  0.98115600  1
  N  376  1  0.79662900  0.72075200  0.90162300  1
  N  420  1  0.89589400  0.95017800  0.83861500  1
  N  421  1  0.77705900  0.88015200  0.85729600  1
  N  422  1  0.94925900  0.90895400  0.78009800  1
  N  423  1  0.79680300  0.84935200  0.77458700  1
  N  467  1  0.89533900  0.05954000  0.28417100  1
  N  468  1  0.77581000  0.12972800  0.26639600  1
  N  469  1  0.94925200  0.10073200  0.34261600  1
  N  470  1  0.79676100  0.16034200  0.34843300  1
  N  514  1  0.89549000  0.22768100  0.00667000  1
  N  515  1  0.77541800  0.21030100  0.93623900  1
  N  516  1  0.94942000  0.28610800  0.96544600  1
  N  517  1  0.79719700  0.29193600  0.90579900  1
  N  561  1  0.89579500  0.78184800  0.11588000  1
  N  562  1  0.77551600  0.79932500  0.18643600  1
  N  563  1  0.94948200  0.72356900  0.15705400  1
  N  564  1  0.79712000  0.71764700  0.21666600  1
  N  608  1  0.12205700  0.05930200  0.83818800  1
  N  609  1  0.24088800  0.12922700  0.85732900  1
  N  610  1  0.06924400  0.10084500  0.77942700  1
  N  611  1  0.22182000  0.16009800  0.77441700  1
  N  655  1  0.12192800  0.95022700  0.28440200  1
  N  656  1  0.24058500  0.88032000  0.26504600  1
  N  657  1  0.06924100  0.90866500  0.34322300  1
  N  658  1  0.22158400  0.84936000  0.34812100  1
  N  702  1  0.12194800  0.78190100  0.00685500  1
  N  703  1  0.24069600  0.80098800  0.93678400  1
  N  704  1  0.06881000  0.72345900  0.96545000  1
  N  705  1  0.22129400  0.71820300  0.90588900  1
  N  749  1  0.12182900  0.22778900  0.11586300  1
  N  750  1  0.24076600  0.20870200  0.18572400  1
  N  751  1  0.06905800  0.28654500  0.15734900  1
  N  752  1  0.22167400  0.29154300  0.21661600  1
  N  796  1  0.66247800  0.54899900  0.79674000  1
  N  797  1  0.72157200  0.64501500  0.75554100  1
  N  798  1  0.60526400  0.60049400  0.85869600  1
  N  799  1  0.70283100  0.67527100  0.83366500  1
  N  843  1  0.66247600  0.46060000  0.32581500  1
  N  844  1  0.72144400  0.36463900  0.36703700  1
  N  845  1  0.60531000  0.40936400  0.26386200  1
  N  846  1  0.70280500  0.33433600  0.28881900  1
  N  890  1  0.66224800  0.26930600  0.60558200  1
  N  891  1  0.72109900  0.31049300  0.70149300  1
  N  892  1  0.60521300  0.20724100  0.65665200  1
  N  893  1  0.70272500  0.23222400  0.73181500  1
  N  937  1  0.66228600  0.74036800  0.51707900  1
  N  938  1  0.72118000  0.69917200  0.42120700  1
  N  939  1  0.60508000  0.80237700  0.46589800  1
  N  940  1  0.70273900  0.77741100  0.39081600  1
  N  984  1  0.35577600  0.46069300  0.79693300  1
  N  985  1  0.29753800  0.36487600  0.75551600  1
  N  986  1  0.41221900  0.41002700  0.85916100  1
  N  987  1  0.31505200  0.33448400  0.83392000  1
  N  1031  1  0.35584000  0.54888800  0.32576500  1
  N  1032  1  0.29629600  0.64373500  0.36702500  1
  N  1033  1  0.41204200  0.59861200  0.26340000  1
  N  1034  1  0.31477100  0.67495100  0.28845100  1
  N  1078  1  0.35568300  0.74044400  0.60575700  1
  N  1079  1  0.29712500  0.69918400  0.70173900  1
  N  1080  1  0.41245500  0.80257900  0.65669300  1
  N  1081  1  0.31535400  0.77751900  0.73195100  1
  N  1125  1  0.35565900  0.26928600  0.51699000  1
  N  1126  1  0.29667800  0.31059200  0.42106000  1
  N  1127  1  0.41262800  0.20729900  0.46567500  1
  N  1128  1  0.31532800  0.23235900  0.39073800  1
  N  1172  1  0.38561900  0.45032000  0.33684600  1
  N  1173  1  0.27014100  0.37439000  0.35470200  1
  N  1174  1  0.45167200  0.39969800  0.28275100  1
  N  1175  1  0.31547400  0.33614500  0.28694200  1
  N  1219  1  0.38545600  0.55930200  0.78594800  1
  N  1220  1  0.26992600  0.63536900  0.76810500  1
  N  1221  1  0.45153300  0.61008300  0.83998000  1
  N  1222  1  0.31522200  0.67351500  0.83574500  1
  N  1266  1  0.38555800  0.72953400  0.50725900  1
  N  1267  1  0.26987800  0.71144200  0.43137400  1
  N  1268  1  0.45158400  0.78343900  0.45609800  1
  N  1269  1  0.31510700  0.77909200  0.39301900  1
  N  1313  1  0.38559700  0.28029700  0.61552500  1
  N  1314  1  0.27015900  0.29803500  0.69182800  1
  N  1315  1  0.45175600  0.22623300  0.66638200  1
  N  1316  1  0.31553600  0.23049300  0.72975300  1
  N  1360  1  0.63279400  0.55918800  0.33688900  1
  N  1361  1  0.74812500  0.63528400  0.35480900  1
  N  1362  1  0.56680800  0.60943700  0.28286500  1
  N  1363  1  0.70299500  0.67334600  0.28699200  1
  N  1407  1  0.63280300  0.45040600  0.78568800  1
  N  1408  1  0.74823300  0.37435500  0.76783400  1
  N  1409  1  0.56682600  0.40001300  0.83976700  1
  N  1410  1  0.70296600  0.33626300  0.83562600  1
  N  1454  1  0.63270100  0.28043900  0.50696900  1
  N  1455  1  0.74812000  0.29823300  0.43083300  1
  N  1456  1  0.56658900  0.22632300  0.45625800  1
  N  1457  1  0.70253300  0.23053700  0.39272600  1
  N  1501  1  0.63277200  0.72928100  0.61572100  1
  N  1502  1  0.74814200  0.71137000  0.69171300  1
  N  1503  1  0.56672800  0.78336800  0.66621700  1
  N  1504  1  0.70283600  0.77914600  0.72994100  1
