# generated using pymatgen
data_H14C17
_symmetry_space_group_name_H-M   'P 1'
_cell_length_a   29.91730000
_cell_length_b   29.91730000
_cell_length_c   38.59020000
_cell_angle_alpha   90.00000000
_cell_angle_beta   90.00000000
_cell_angle_gamma   90.00000000
_symmetry_Int_Tables_number   1
_chemical_formula_structural   H14C17
_chemical_formula_sum   'H448 C544'
_cell_volume   34539.95935717
_cell_formula_units_Z   32
loop_
 _symmetry_equiv_pos_site_id
 _symmetry_equiv_pos_as_xyz
  1  'x, y, z'
loop_
 _atom_site_type_symbol
 _atom_site_label
 _atom_site_symmetry_multiplicity
 _atom_site_fract_x
 _atom_site_fract_y
 _atom_site_fract_z
 _atom_site_occupancy
  H  5  1  0.94156800  0.29297600  0.27013800  1
  H  6  1  0.91073900  0.30753800  0.30734500  1
  H  9  1  0.91008800  0.25717500  0.36114600  1
  H  10  1  0.93822500  0.20589700  0.36044600  1
  H  11  1  0.95428300  0.32981200  0.36340300  1
  H  12  1  0.01321400  0.32997800  0.36295700  1
  H  15  1  0.02649800  0.20459700  0.36046200  1
  H  16  1  0.05583600  0.25520400  0.36162500  1
  H  18  1  0.98219300  0.18247700  0.30390600  1
  H  19  1  0.98289100  0.21845200  0.26817200  1
  H  21  1  0.05573100  0.30641500  0.30908100  1
  H  22  1  0.02608200  0.29183600  0.27097300  1
  H  27  1  0.02589800  0.67431800  0.27023700  1
  H  28  1  0.05669900  0.65980800  0.30747200  1
  H  31  1  0.05733600  0.71027400  0.36121600  1
  H  32  1  0.02920000  0.76155200  0.36045100  1
  H  33  1  0.01313400  0.63763000  0.36352500  1
  H  34  1  0.95420600  0.63747000  0.36306600  1
  H  37  1  0.94093200  0.76285200  0.36045100  1
  H  38  1  0.91158800  0.71224900  0.36165900  1
  H  40  1  0.98526100  0.78487600  0.30388500  1
  H  41  1  0.98457900  0.74884700  0.26818700  1
  H  43  1  0.91171500  0.66094800  0.30915600  1
  H  44  1  0.94137700  0.67548400  0.27104500  1
  H  49  1  0.67444500  0.94153400  0.77026300  1
  H  50  1  0.65982500  0.91077900  0.80749500  1
  H  53  1  0.71015700  0.91016100  0.86131400  1
  H  54  1  0.76145800  0.93826200  0.86060700  1
  H  55  1  0.63754000  0.95441600  0.86348300  1
  H  56  1  0.63742000  0.01334700  0.86298800  1
  H  59  1  0.76282200  0.02651900  0.86055000  1
  H  60  1  0.71223900  0.05590400  0.86166700  1
  H  62  1  0.78495300  0.98211600  0.80404800  1
  H  63  1  0.74901400  0.98279100  0.76829300  1
  H  65  1  0.66106100  0.05576200  0.80909100  1
  H  66  1  0.67565800  0.02605200  0.77101700  1
  H  71  1  0.29303500  0.02590500  0.77015900  1
  H  72  1  0.30764000  0.05673800  0.80735500  1
  H  75  1  0.25731100  0.05742400  0.86117700  1
  H  76  1  0.20603100  0.02928700  0.86050800  1
  H  77  1  0.32995700  0.01322100  0.86340000  1
  H  78  1  0.33011700  0.95429300  0.86297000  1
  H  81  1  0.20473600  0.94101300  0.86055500  1
  H  82  1  0.25534400  0.91167500  0.86169500  1
  H  84  1  0.18256100  0.98530800  0.80400400  1
  H  85  1  0.21849600  0.98459300  0.76824600  1
  H  87  1  0.30649500  0.91174900  0.80910900  1
  H  88  1  0.29187700  0.94139000  0.77100900  1
  H  93  1  0.02480700  0.29594000  0.72645900  1
  H  94  1  0.05618000  0.30597300  0.68866900  1
  H  97  1  0.05701400  0.24965500  0.63900900  1
  H  98  1  0.02788800  0.19881500  0.64253300  1
  H  99  1  0.01305000  0.32183900  0.63010000  1
  H  100  1  0.95449700  0.32297000  0.63111300  1
  H  103  1  0.94285800  0.19657400  0.64147900  1
  H  104  1  0.91112700  0.24557200  0.63806800  1
  H  106  1  0.98502400  0.18159200  0.70098300  1
  H  107  1  0.98368000  0.22210300  0.73365700  1
  H  109  1  0.91089600  0.30377400  0.68586300  1
  H  110  1  0.94018000  0.29420600  0.72499700  1
  H  115  1  0.94264400  0.67152000  0.72647400  1
  H  116  1  0.91127100  0.66150600  0.68868500  1
  H  119  1  0.91039200  0.71787100  0.63905100  1
  H  120  1  0.93946500  0.76873800  0.64261100  1
  H  121  1  0.95442600  0.64574600  0.63009700  1
  H  122  1  0.01298100  0.64467300  0.63111300  1
  H  125  1  0.02448800  0.77107800  0.64158200  1
  H  126  1  0.05627600  0.72212000  0.63812800  1
  H  128  1  0.98230300  0.78593900  0.70108200  1
  H  129  1  0.98368700  0.74539000  0.73373000  1
  H  131  1  0.05655000  0.66383900  0.68586800  1
  H  132  1  0.02726500  0.67333500  0.72501300  1
  H  137  1  0.29584300  0.94263700  0.22659600  1
  H  138  1  0.30598700  0.91126100  0.18882600  1
  H  141  1  0.24980000  0.91040500  0.13907200  1
  H  142  1  0.19894100  0.93951500  0.14252400  1
  H  143  1  0.32199600  0.95439300  0.13027800  1
  H  144  1  0.32310600  0.01294600  0.13129200  1
  H  147  1  0.19667000  0.02454500  0.14146700  1
  H  148  1  0.24566800  0.05629000  0.13811800  1
  H  150  1  0.18154800  0.98237300  0.20093300  1
  H  151  1  0.22196600  0.98373700  0.23367700  1
  H  153  1  0.30376200  0.05652900  0.18600400  1
  H  154  1  0.29408000  0.02724700  0.22512600  1
  H  159  1  0.67157000  0.02458800  0.22669600  1
  H  160  1  0.66145600  0.05601700  0.18894700  1
  H  163  1  0.71765700  0.05691100  0.13921200  1
  H  164  1  0.76848400  0.02773600  0.14263500  1
  H  165  1  0.64540800  0.01300800  0.13036700  1
  H  166  1  0.64424500  0.95445300  0.13131600  1
  H  169  1  0.77064700  0.94270100  0.14146800  1
  H  170  1  0.72160800  0.91102300  0.13810000  1
  H  172  1  0.78582500  0.98475300  0.20099000  1
  H  173  1  0.74540700  0.98338300  0.23373400  1
  H  175  1  0.66354200  0.91074900  0.18600200  1
  H  176  1  0.67325800  0.93997300  0.22514500  1
  H  183  1  0.10297800  0.10695400  0.29079100  1
  H  184  1  0.04953300  0.15151100  0.31973100  1
  H  191  1  0.22269100  0.15269800  0.26151200  1
  H  192  1  0.26606000  0.09940700  0.23111700  1
  H  193  1  0.14845900  0.04875500  0.18449700  1
  H  194  1  0.09948000  0.26588500  0.26806500  1
  H  195  1  0.10559400  0.10166200  0.21531500  1
  H  196  1  0.15312300  0.22104600  0.23979800  1
  H  203  1  0.86435800  0.86034700  0.29071400  1
  H  204  1  0.91787600  0.81586100  0.31966600  1
  H  211  1  0.74466500  0.81459100  0.26159000  1
  H  212  1  0.70127900  0.86785400  0.23118900  1
  H  213  1  0.81882600  0.91832400  0.18436800  1
  H  214  1  0.86793500  0.70137600  0.26815600  1
  H  215  1  0.86170800  0.86541800  0.21517600  1
  H  216  1  0.81424700  0.74611900  0.23986700  1
  H  223  1  0.86054100  0.10293700  0.79085300  1
  H  224  1  0.81597200  0.04947600  0.81977200  1
  H  231  1  0.81481500  0.22272200  0.76158400  1
  H  232  1  0.86806800  0.26609400  0.73112800  1
  H  233  1  0.91866400  0.14846700  0.68451300  1
  H  234  1  0.70162000  0.09947000  0.76811400  1
  H  235  1  0.86580500  0.10561300  0.71538100  1
  H  236  1  0.74646000  0.15313200  0.73987900  1
  H  243  1  0.10699500  0.86448500  0.79100600  1
  H  244  1  0.15161700  0.91793600  0.81990200  1
  H  251  1  0.15270800  0.74477500  0.76151700  1
  H  252  1  0.09941900  0.70145300  0.73107400  1
  H  253  1  0.04865300  0.81915000  0.68468100  1
  H  254  1  0.26588800  0.86800200  0.76810900  1
  H  255  1  0.10154900  0.86196800  0.71555200  1
  H  256  1  0.22100900  0.81438000  0.73986900  1
  H  263  1  0.86056400  0.85821800  0.71475400  1
  H  264  1  0.91446000  0.81638300  0.68429000  1
  H  271  1  0.74447800  0.81309400  0.73882500  1
  H  272  1  0.70022300  0.86796100  0.76622800  1
  H  273  1  0.81398600  0.91386100  0.82087600  1
  H  274  1  0.87017400  0.69879500  0.73469700  1
  H  275  1  0.85788700  0.85902300  0.79298900  1
  H  276  1  0.81598200  0.74126900  0.76496600  1
  H  283  1  0.10674100  0.10918300  0.71460300  1
  H  284  1  0.05283300  0.15109000  0.68418600  1
  H  291  1  0.22288600  0.15425700  0.73861700  1
  H  292  1  0.26718400  0.09945800  0.76604600  1
  H  293  1  0.15348300  0.05358000  0.82078800  1
  H  294  1  0.09733300  0.26862500  0.73455100  1
  H  295  1  0.10952900  0.10835400  0.79285600  1
  H  296  1  0.15153300  0.22610100  0.76476400  1
  H  303  1  0.10919900  0.86059800  0.21448000  1
  H  304  1  0.15112600  0.91453600  0.18413000  1
  H  311  1  0.15425400  0.74443100  0.23862900  1
  H  312  1  0.09943200  0.70017600  0.26609900  1
  H  313  1  0.05348700  0.81400300  0.32065100  1
  H  314  1  0.26856900  0.87014400  0.23468600  1
  H  315  1  0.10827200  0.85789700  0.29270100  1
  H  316  1  0.22601100  0.81591100  0.26483100  1
  H  323  1  0.85828500  0.10653000  0.21460600  1
  H  324  1  0.81632900  0.05256400  0.18428300  1
  H  331  1  0.81325700  0.22273800  0.23856000  1
  H  332  1  0.86805200  0.26706200  0.26597900  1
  H  333  1  0.91393800  0.15338900  0.32075500  1
  H  334  1  0.69887200  0.09716200  0.23470900  1
  H  335  1  0.85916400  0.10942000  0.29285100  1
  H  336  1  0.74143600  0.15141800  0.26481800  1
  H  343  1  0.92266200  0.52002600  0.26598700  1
  H  344  1  0.92268600  0.59783000  0.27519900  1
  H  351  1  0.91994800  0.45770100  0.31606700  1
  H  352  1  0.91965700  0.37999000  0.32570700  1
  H  353  1  0.04482500  0.36955200  0.27517900  1
  H  354  1  0.04773000  0.58735200  0.32590900  1
  H  355  1  0.04489900  0.44737300  0.26603100  1
  H  356  1  0.04747900  0.50965100  0.31619900  1
  H  363  1  0.44740900  0.92261900  0.76590700  1
  H  364  1  0.36959200  0.92267900  0.77512600  1
  H  371  1  0.50969100  0.92006200  0.81607200  1
  H  372  1  0.58736200  0.91978100  0.82581300  1
  H  373  1  0.59795100  0.04482100  0.77511400  1
  H  374  1  0.38011400  0.04781900  0.82568300  1
  H  375  1  0.52013600  0.04488600  0.76587300  1
  H  376  1  0.45779500  0.04754700  0.81597100  1
  H  383  1  0.04599100  0.51811800  0.72065400  1
  H  384  1  0.04637800  0.59651400  0.71508300  1
  H  391  1  0.04734700  0.45506700  0.67157700  1
  H  392  1  0.04710400  0.37656100  0.66549000  1
  H  393  1  0.92112800  0.37105600  0.71511100  1
  H  394  1  0.92041300  0.59095800  0.66544800  1
  H  395  1  0.92153900  0.44944800  0.72067700  1
  H  396  1  0.92019500  0.51245500  0.67154600  1
  H  403  1  0.51804400  0.92147900  0.22122700  1
  H  404  1  0.59642000  0.92103800  0.21550700  1
  H  411  1  0.45509700  0.92015200  0.17200800  1
  H  412  1  0.37663100  0.92038600  0.16574100  1
  H  413  1  0.37090900  0.04628600  0.21547500  1
  H  414  1  0.59079100  0.04699300  0.16585000  1
  H  415  1  0.44928100  0.04587900  0.22122000  1
  H  416  1  0.51231800  0.04725800  0.17208000  1
  H  423  1  0.04092400  0.21330500  0.52302900  1
  H  424  1  0.04341500  0.21482000  0.58414800  1
  H  431  1  0.97916800  0.32240000  0.47962200  1
  H  432  1  0.98112700  0.32952100  0.41916300  1
  H  433  1  0.98376700  0.18872400  0.40917600  1
  H  434  1  0.92073400  0.28501600  0.58585600  1
  H  435  1  0.98295200  0.18206900  0.47046900  1
  H  436  1  0.91908900  0.28404900  0.52462000  1
  H  443  1  0.92646300  0.75431800  0.52308100  1
  H  444  1  0.92397900  0.75279700  0.58420500  1
  H  451  1  0.98822300  0.64522800  0.47973000  1
  H  452  1  0.98627400  0.63801800  0.41928000  1
  H  453  1  0.98363700  0.77879900  0.40916800  1
  H  454  1  0.04673000  0.68272100  0.58589700  1
  H  455  1  0.98443600  0.78554100  0.47045900  1
  H  456  1  0.04836700  0.68369400  0.52466700  1
  H  463  1  0.75388000  0.04098600  0.02319200  1
  H  464  1  0.75237600  0.04340100  0.08430800  1
  H  471  1  0.64479700  0.97932200  0.97967100  1
  H  472  1  0.63777100  0.98129400  0.91920700  1
  H  473  1  0.77858200  0.98386700  0.90934200  1
  H  474  1  0.68206900  0.92077700  0.08593300  1
  H  475  1  0.78514300  0.98304500  0.97064200  1
  H  476  1  0.68303500  0.91920900  0.02469400  1
  H  483  1  0.21358400  0.92655000  0.02305000  1
  H  484  1  0.21504200  0.92401900  0.08416800  1
  H  491  1  0.32267200  0.98838000  0.97963400  1
  H  492  1  0.32972500  0.98643800  0.91916800  1
  H  493  1  0.18892000  0.98374000  0.90927200  1
  H  494  1  0.28526500  0.04668500  0.08596300  1
  H  495  1  0.18233500  0.98452600  0.97057000  1
  H  496  1  0.28435800  0.04836600  0.02472600  1
  H  501  1  0.44295000  0.79435800  0.55518400  1
  H  502  1  0.41212100  0.80892000  0.59239100  1
  H  505  1  0.41147000  0.75855700  0.64619200  1
  H  506  1  0.43960700  0.70727900  0.64549200  1
  H  507  1  0.45566500  0.83119400  0.64844900  1
  H  508  1  0.51459600  0.83136000  0.64800300  1
  H  511  1  0.52788000  0.70597900  0.64550800  1
  H  512  1  0.55721800  0.75658600  0.64667100  1
  H  514  1  0.48357500  0.68385900  0.58895200  1
  H  515  1  0.48427300  0.71983400  0.55321800  1
  H  517  1  0.55711300  0.80779700  0.59412700  1
  H  518  1  0.52746400  0.79321800  0.55601900  1
  H  523  1  0.52728000  0.17570000  0.55528300  1
  H  524  1  0.55808100  0.16119000  0.59251800  1
  H  527  1  0.55871800  0.21165600  0.64626200  1
  H  528  1  0.53058200  0.26293400  0.64549700  1
  H  529  1  0.51451600  0.13901200  0.64857100  1
  H  530  1  0.45558800  0.13885200  0.64811200  1
  H  533  1  0.44231400  0.26423400  0.64549700  1
  H  534  1  0.41297000  0.21363100  0.64670500  1
  H  536  1  0.48664300  0.28625800  0.58893100  1
  H  537  1  0.48596100  0.25022900  0.55323300  1
  H  539  1  0.41309700  0.16233000  0.59420200  1
  H  540  1  0.44275900  0.17686600  0.55609100  1
  H  545  1  0.17582700  0.44291600  0.05530950  1
  H  546  1  0.16120700  0.41216100  0.09254150  1
  H  549  1  0.21153900  0.41154300  0.14636000  1
  H  550  1  0.26284000  0.43964400  0.14565300  1
  H  551  1  0.13892200  0.45579800  0.14852900  1
  H  552  1  0.13880200  0.51472900  0.14803400  1
  H  555  1  0.26420400  0.52790100  0.14559600  1
  H  556  1  0.21362100  0.55728600  0.14671300  1
  H  558  1  0.28633500  0.48349800  0.08909450  1
  H  559  1  0.25039600  0.48417300  0.05333950  1
  H  561  1  0.16244300  0.55714400  0.09413750  1
  H  562  1  0.17704000  0.52743400  0.05606350  1
  H  567  1  0.79441700  0.52728700  0.05520550  1
  H  568  1  0.80902200  0.55812000  0.09240150  1
  H  571  1  0.75869300  0.55880600  0.14622300  1
  H  572  1  0.70741300  0.53066900  0.14555400  1
  H  573  1  0.83133900  0.51460300  0.14844600  1
  H  574  1  0.83149900  0.45567500  0.14801600  1
  H  577  1  0.70611800  0.44239500  0.14560100  1
  H  578  1  0.75672600  0.41305700  0.14674100  1
  H  580  1  0.68394300  0.48669000  0.08905050  1
  H  581  1  0.71987800  0.48597500  0.05329250  1
  H  583  1  0.80787700  0.41313100  0.09415550  1
  H  584  1  0.79325900  0.44277200  0.05605550  1
  H  589  1  0.52618900  0.79732200  0.01150550  1
  H  590  1  0.55756200  0.80735500  0.97371500  1
  H  593  1  0.55839600  0.75103700  0.92405500  1
  H  594  1  0.52927000  0.70019700  0.92757900  1
  H  595  1  0.51443200  0.82322100  0.91514600  1
  H  596  1  0.45587900  0.82435200  0.91615900  1
  H  599  1  0.44424000  0.69795600  0.92652500  1
  H  600  1  0.41250900  0.74695400  0.92311400  1
  H  602  1  0.48640600  0.68297400  0.98602900  1
  H  603  1  0.48506200  0.72348500  0.01870350  1
  H  605  1  0.41227800  0.80515600  0.97090900  1
  H  606  1  0.44156200  0.79558800  0.01004350  1
  H  611  1  0.44402600  0.17290200  0.01152050  1
  H  612  1  0.41265300  0.16288800  0.97373100  1
  H  615  1  0.41177400  0.21925300  0.92409700  1
  H  616  1  0.44084700  0.27012000  0.92765700  1
  H  617  1  0.45580800  0.14712800  0.91514300  1
  H  618  1  0.51436300  0.14605500  0.91615900  1
  H  621  1  0.52587000  0.27246000  0.92662800  1
  H  622  1  0.55765800  0.22350200  0.92317400  1
  H  624  1  0.48368500  0.28732100  0.98612800  1
  H  625  1  0.48506900  0.24677200  0.01877650  1
  H  627  1  0.55793200  0.16522100  0.97091400  1
  H  628  1  0.52864700  0.17471700  0.01005950  1
  H  633  1  0.79722500  0.44401900  0.51164200  1
  H  634  1  0.80736900  0.41264300  0.47387200  1
  H  637  1  0.75118200  0.41178700  0.42411800  1
  H  638  1  0.70032300  0.44089700  0.42757000  1
  H  639  1  0.82337800  0.45577500  0.41532400  1
  H  640  1  0.82448800  0.51432800  0.41633800  1
  H  643  1  0.69805200  0.52592700  0.42651300  1
  H  644  1  0.74705000  0.55767200  0.42316400  1
  H  646  1  0.68293000  0.48375500  0.48597900  1
  H  647  1  0.72334800  0.48511900  0.51872300  1
  H  649  1  0.80514400  0.55791100  0.47105000  1
  H  650  1  0.79546200  0.52862900  0.51017200  1
  H  655  1  0.17295200  0.52597000  0.51174200  1
  H  656  1  0.16283800  0.55739900  0.47399300  1
  H  659  1  0.21903900  0.55829300  0.42425800  1
  H  660  1  0.26986600  0.52911800  0.42768100  1
  H  661  1  0.14679000  0.51439000  0.41541300  1
  H  662  1  0.14562700  0.45583500  0.41636200  1
  H  665  1  0.27202900  0.44408300  0.42651400  1
  H  666  1  0.22299000  0.41240500  0.42314600  1
  H  668  1  0.28720700  0.48613500  0.48603600  1
  H  669  1  0.24678900  0.48476500  0.51878000  1
  H  671  1  0.16492400  0.41213100  0.47104800  1
  H  672  1  0.17464000  0.44135500  0.51019100  1
  H  679  1  0.60436000  0.60833600  0.57583700  1
  H  680  1  0.55091500  0.65289300  0.60477700  1
  H  687  1  0.72407300  0.65408000  0.54655800  1
  H  688  1  0.76744200  0.60078900  0.51616300  1
  H  689  1  0.64984100  0.55013700  0.46954300  1
  H  690  1  0.60086200  0.76726700  0.55311100  1
  H  691  1  0.60697600  0.60304400  0.50036100  1
  H  692  1  0.65450500  0.72242800  0.52484400  1
  H  699  1  0.36574000  0.36172900  0.57576000  1
  H  700  1  0.41925800  0.31724300  0.60471200  1
  H  707  1  0.24604700  0.31597300  0.54663600  1
  H  708  1  0.20266100  0.36923600  0.51623500  1
  H  709  1  0.32020800  0.41970600  0.46941400  1
  H  710  1  0.36931700  0.20275800  0.55320200  1
  H  711  1  0.36309000  0.36680000  0.50022200  1
  H  712  1  0.31562900  0.24750100  0.52491300  1
  H  719  1  0.36192300  0.60431900  0.07589950  1
  H  720  1  0.31735400  0.55085800  0.10481800  1
  H  727  1  0.31619700  0.72410400  0.04663050  1
  H  728  1  0.36945000  0.76747600  0.01617450  1
  H  729  1  0.42004600  0.64984900  0.96955900  1
  H  730  1  0.20300200  0.60085200  0.05316050  1
  H  731  1  0.36718700  0.60699500  0.00042746  1
  H  732  1  0.24784200  0.65451400  0.02492550  1
  H  739  1  0.60837700  0.36586700  0.07605250  1
  H  740  1  0.65299900  0.41931800  0.10494800  1
  H  747  1  0.65409000  0.24615700  0.04656350  1
  H  748  1  0.60080100  0.20283500  0.01612050  1
  H  749  1  0.55003500  0.32053200  0.96972700  1
  H  750  1  0.76727000  0.36938400  0.05315550  1
  H  751  1  0.60293100  0.36335000  0.00059846  1
  H  752  1  0.72239100  0.31576200  0.02491550  1
  H  759  1  0.36194600  0.35960000  0.99980000  1
  H  760  1  0.41584200  0.31776500  0.96933600  1
  H  767  1  0.24586000  0.31447600  0.02387150  1
  H  768  1  0.20160500  0.36934300  0.05127450  1
  H  769  1  0.31536800  0.41524300  0.10592200  1
  H  770  1  0.37155600  0.20017700  0.01974350  1
  H  771  1  0.35926900  0.36040500  0.07803550  1
  H  772  1  0.31736400  0.24265100  0.05001250  1
  H  779  1  0.60812300  0.61056500  0.99964900  1
  H  780  1  0.55421500  0.65247200  0.96923200  1
  H  787  1  0.72426800  0.65563900  0.02366350  1
  H  788  1  0.76856600  0.60084000  0.05109250  1
  H  789  1  0.65486500  0.55496200  0.10583400  1
  H  790  1  0.59871500  0.77000700  0.01959750  1
  H  791  1  0.61091100  0.60973600  0.07790250  1
  H  792  1  0.65291500  0.72748300  0.04981050  1
  H  799  1  0.61058100  0.36198000  0.49952600  1
  H  800  1  0.65250800  0.41591800  0.46917600  1
  H  807  1  0.65563600  0.24581300  0.52367500  1
  H  808  1  0.60081400  0.20155800  0.55114500  1
  H  809  1  0.55486900  0.31538500  0.60569700  1
  H  810  1  0.76995100  0.37152600  0.51973200  1
  H  811  1  0.60965400  0.35927900  0.57774700  1
  H  812  1  0.72739300  0.31729300  0.54987700  1
  H  819  1  0.35966700  0.60791200  0.49965200  1
  H  820  1  0.31771100  0.55394600  0.46932900  1
  H  827  1  0.31463900  0.72412000  0.52360600  1
  H  828  1  0.36943400  0.76844400  0.55102500  1
  H  829  1  0.41532000  0.65477100  0.60580100  1
  H  830  1  0.20025400  0.59854400  0.51975500  1
  H  831  1  0.36054600  0.61080200  0.57789700  1
  H  832  1  0.24281800  0.65280000  0.54986400  1
  H  839  1  0.42404400  0.02140810  0.55103300  1
  H  840  1  0.42406800  0.09921210  0.56024500  1
  H  847  1  0.42133000  0.95908300  0.60111300  1
  H  848  1  0.42103900  0.88137200  0.61075300  1
  H  849  1  0.54620700  0.87093400  0.56022500  1
  H  850  1  0.54911200  0.08873410  0.61095500  1
  H  851  1  0.54628100  0.94875500  0.55107700  1
  H  852  1  0.54886100  0.01103310  0.60124500  1
  H  859  1  0.94879100  0.42400100  0.05095350  1
  H  860  1  0.87097400  0.42406100  0.06017250  1
  H  867  1  0.01107310  0.42144400  0.10111800  1
  H  868  1  0.08874410  0.42116300  0.11085900  1
  H  869  1  0.09933310  0.54620300  0.06016050  1
  H  870  1  0.88149600  0.54920100  0.11072900  1
  H  871  1  0.02151810  0.54626800  0.05091950  1
  H  872  1  0.95917700  0.54892900  0.10101700  1
  H  879  1  0.54737300  0.01950010  0.00570046  1
  H  880  1  0.54776000  0.09789610  0.00012946  1
  H  887  1  0.54872900  0.95644900  0.95662300  1
  H  888  1  0.54848600  0.87794300  0.95053600  1
  H  889  1  0.42251000  0.87243800  0.00015746  1
  H  890  1  0.42179500  0.09234010  0.95049400  1
  H  891  1  0.42292100  0.95083000  0.00572346  1
  H  892  1  0.42157700  0.01383710  0.95659200  1
  H  899  1  0.01942610  0.42286100  0.50627300  1
  H  900  1  0.09780210  0.42242000  0.50055300  1
  H  907  1  0.95647900  0.42153400  0.45705400  1
  H  908  1  0.87801300  0.42176800  0.45078700  1
  H  909  1  0.87229100  0.54766800  0.50052100  1
  H  910  1  0.09217310  0.54837500  0.45089600  1
  H  911  1  0.95066300  0.54726100  0.50626600  1
  H  912  1  0.01370010  0.54864000  0.45712600  1
  H  919  1  0.54230600  0.71468700  0.80807500  1
  H  920  1  0.54479700  0.71620200  0.86919400  1
  H  927  1  0.48055000  0.82378200  0.76466800  1
  H  928  1  0.48250900  0.83090300  0.70420900  1
  H  929  1  0.48514900  0.69010600  0.69422200  1
  H  930  1  0.42211600  0.78639800  0.87090200  1
  H  931  1  0.48433400  0.68345100  0.75551500  1
  H  932  1  0.42047100  0.78543100  0.80966600  1
  H  939  1  0.42784500  0.25570000  0.80812700  1
  H  940  1  0.42536100  0.25417900  0.86925100  1
  H  947  1  0.48960500  0.14661000  0.76477600  1
  H  948  1  0.48765600  0.13940000  0.70432600  1
  H  949  1  0.48501900  0.28018100  0.69421400  1
  H  950  1  0.54811200  0.18410300  0.87094300  1
  H  951  1  0.48581800  0.28692300  0.75550500  1
  H  952  1  0.54974900  0.18507600  0.80971300  1
  H  959  1  0.25526200  0.54236800  0.30823800  1
  H  960  1  0.25375800  0.54478300  0.36935400  1
  H  967  1  0.14617900  0.48070400  0.26471700  1
  H  968  1  0.13915300  0.48267600  0.20425300  1
  H  969  1  0.27996400  0.48524900  0.19438800  1
  H  970  1  0.18345100  0.42215900  0.37097900  1
  H  971  1  0.28652500  0.48442700  0.25568800  1
  H  972  1  0.18441700  0.42059100  0.30974000  1
  H  979  1  0.71496600  0.42793200  0.30809600  1
  H  980  1  0.71642400  0.42540100  0.36921400  1
  H  987  1  0.82405400  0.48976200  0.26468000  1
  H  988  1  0.83110700  0.48782000  0.20421400  1
  H  989  1  0.69030200  0.48512200  0.19431800  1
  H  990  1  0.78664700  0.54806700  0.37100900  1
  H  991  1  0.68371700  0.48590800  0.25561600  1
  H  992  1  0.78574000  0.54974800  0.30977200  1
  C  1  1  0.98335900  0.31624000  0.31256600  1
  C  2  1  0.98361300  0.31258300  0.35306100  1
  C  3  1  0.94120300  0.29095200  0.29848200  1
  C  4  1  0.93890000  0.24067700  0.31034500  1
  C  7  1  0.93996600  0.24032200  0.35123100  1
  C  8  1  0.98303900  0.26306800  0.36688800  1
  C  13  1  0.02562600  0.23916100  0.35151400  1
  C  14  1  0.02684600  0.23964600  0.31072400  1
  C  17  1  0.98269100  0.21765600  0.29657000  1
  C  20  1  0.02551300  0.29001400  0.29932200  1
  C  23  1  0.98407800  0.65113100  0.31267000  1
  C  24  1  0.98381100  0.65484800  0.35316200  1
  C  25  1  0.02624400  0.67639000  0.29857800  1
  C  26  1  0.02854900  0.72668600  0.31039000  1
  C  29  1  0.02746200  0.72711000  0.35127600  1
  C  30  1  0.98438600  0.70438700  0.36694300  1
  C  35  1  0.94180500  0.72827300  0.35153700  1
  C  36  1  0.94059800  0.72772200  0.31075000  1
  C  39  1  0.98476300  0.74968600  0.29658300  1
  C  42  1  0.94193500  0.67734000  0.29939500  1
  C  45  1  0.65118100  0.98341000  0.81263300  1
  C  46  1  0.65480100  0.98372000  0.85312800  1
  C  47  1  0.67644700  0.94121300  0.79860700  1
  C  48  1  0.72670900  0.93888000  0.81049300  1
  C  51  1  0.72703600  0.94001300  0.85137900  1
  C  52  1  0.70430100  0.98312200  0.86698700  1
  C  57  1  0.72826300  0.02566700  0.85158600  1
  C  58  1  0.72781200  0.02683300  0.81079600  1
  C  61  1  0.74978200  0.98263400  0.79669200  1
  C  64  1  0.67745300  0.02552100  0.79936800  1
  C  67  1  0.31633300  0.98412100  0.81257900  1
  C  68  1  0.31271500  0.98388800  0.85307600  1
  C  69  1  0.29103800  0.02627500  0.79850300  1
  C  70  1  0.24077400  0.02859500  0.81039200  1
  C  73  1  0.24045100  0.02754200  0.85127800  1
  C  74  1  0.26321400  0.98447600  0.86693200  1
  C  79  1  0.23929000  0.94188200  0.85158400  1
  C  80  1  0.23972900  0.94064500  0.81079400  1
  C  83  1  0.21773200  0.98480000  0.79664200  1
  C  86  1  0.29008700  0.94196500  0.79936100  1
  C  89  1  0.98347600  0.31402900  0.68217000  1
  C  90  1  0.98377400  0.30614600  0.64195500  1
  C  91  1  0.02553800  0.29054200  0.69839500  1
  C  92  1  0.02786700  0.23902300  0.69023400  1
  C  95  1  0.02678600  0.23414700  0.64957900  1
  C  96  1  0.98401100  0.25523200  0.63194800  1
  C  101  1  0.94209900  0.23188500  0.64873200  1
  C  102  1  0.94035800  0.23728500  0.68928300  1
  C  105  1  0.98424900  0.21756100  0.70547200  1
  C  108  1  0.94118000  0.28896000  0.69692000  1
  C  111  1  0.98398400  0.65352400  0.68217500  1
  C  112  1  0.98368700  0.66145600  0.64196600  1
  C  113  1  0.94189800  0.67695200  0.69841300  1
  C  114  1  0.93952200  0.72847700  0.69028900  1
  C  117  1  0.94060200  0.73340100  0.64963400  1
  C  118  1  0.98340300  0.71238300  0.63199400  1
  C  123  1  0.02528500  0.73575700  0.64879900  1
  C  124  1  0.02702700  0.73029900  0.68934600  1
  C  127  1  0.98311900  0.74996300  0.70554700  1
  C  130  1  0.02625400  0.67861300  0.69694100  1
  C  133  1  0.31403100  0.98396400  0.18233600  1
  C  134  1  0.30626100  0.98366400  0.14210700  1
  C  135  1  0.29051900  0.94189800  0.19852300  1
  C  136  1  0.23902600  0.93955200  0.19028200  1
  C  139  1  0.23425600  0.94062800  0.14961900  1
  C  140  1  0.25537200  0.98341300  0.13201900  1
  C  145  1  0.23196500  0.02531400  0.14876400  1
  C  146  1  0.23726700  0.02705700  0.18932200  1
  C  149  1  0.21750300  0.98316600  0.20548300  1
  C  152  1  0.28891700  0.02624600  0.19704000  1
  C  155  1  0.65334300  0.98333900  0.18239600  1
  C  156  1  0.66111200  0.98370400  0.14216600  1
  C  157  1  0.67689500  0.02535500  0.19862200  1
  C  158  1  0.72839400  0.02766100  0.19038700  1
  C  161  1  0.73316700  0.02665000  0.14972500  1
  C  162  1  0.71200200  0.98392800  0.13207800  1
  C  167  1  0.73535600  0.94196200  0.14877500  1
  C  168  1  0.73006100  0.94015400  0.18933400  1
  C  171  1  0.74986900  0.98399800  0.20554000  1
  C  174  1  0.67841600  0.94100300  0.19706000  1
  C  177  1  0.06709900  0.21392400  0.29673300  1
  C  178  1  0.09978900  0.23277100  0.27423300  1
  C  179  1  0.13223700  0.20641300  0.25749400  1
  C  180  1  0.13309900  0.15980900  0.26254600  1
  C  181  1  0.10312200  0.14074900  0.28654700  1
  C  182  1  0.07147200  0.16746400  0.30367800  1
  C  185  1  0.16006800  0.13185200  0.24163100  1
  C  186  1  0.20699800  0.13143600  0.24465600  1
  C  187  1  0.23250400  0.09946300  0.22656500  1
  C  188  1  0.21234600  0.06692700  0.20466500  1
  C  189  1  0.16536700  0.07072400  0.19992400  1
  C  190  1  0.13961300  0.10193000  0.21831400  1
  C  197  1  0.90034700  0.75341600  0.29672300  1
  C  198  1  0.86763700  0.73450700  0.27426600  1
  C  199  1  0.83517800  0.76082300  0.25749900  1
  C  200  1  0.83426900  0.80742800  0.26252000  1
  C  201  1  0.86424800  0.82655100  0.28649000  1
  C  202  1  0.89597900  0.79989400  0.30358700  1
  C  205  1  0.80726100  0.83532500  0.24159100  1
  C  206  1  0.76032800  0.83572900  0.24462800  1
  C  207  1  0.73482500  0.86775100  0.22658200  1
  C  208  1  0.75496700  0.90025400  0.20464300  1
  C  209  1  0.80193600  0.89642700  0.19986900  1
  C  210  1  0.82769700  0.86520000  0.21822900  1
  C  217  1  0.75356000  0.06707000  0.79679500  1
  C  218  1  0.73473400  0.09976700  0.77428700  1
  C  219  1  0.76109400  0.13223400  0.75757000  1
  C  220  1  0.80769500  0.13310700  0.76263100  1
  C  221  1  0.82674800  0.10309000  0.78660900  1
  C  222  1  0.80002400  0.07142300  0.80372200  1
  C  225  1  0.83565200  0.16008900  0.74171600  1
  C  226  1  0.83606400  0.20702400  0.74472000  1
  C  227  1  0.86800200  0.23253400  0.72659100  1
  C  228  1  0.90051400  0.21236600  0.70467600  1
  C  229  1  0.89671400  0.16538400  0.69994900  1
  C  230  1  0.86554100  0.13963300  0.71837600  1
  C  237  1  0.21397800  0.90039100  0.79682900  1
  C  238  1  0.23277900  0.86770700  0.77429700  1
  C  239  1  0.20638300  0.83528800  0.75755500  1
  C  240  1  0.15979100  0.83439600  0.76267300  1
  C  241  1  0.14077900  0.86435500  0.78671200  1
  C  242  1  0.16751700  0.89604200  0.80377900  1
  C  245  1  0.13180000  0.80744500  0.74176300  1
  C  246  1  0.13147700  0.76049500  0.74465200  1
  C  247  1  0.09944600  0.73502500  0.72658300  1
  C  248  1  0.06685600  0.75522400  0.70475400  1
  C  249  1  0.07059400  0.80222400  0.70012000  1
  C  250  1  0.10181500  0.82794500  0.71851900  1
  C  257  1  0.89926800  0.75250000  0.70596900  1
  C  258  1  0.86840600  0.73205000  0.72914300  1
  C  259  1  0.83590000  0.75698900  0.74717100  1
  C  260  1  0.83325900  0.80365400  0.74277100  1
  C  261  1  0.86169800  0.82433800  0.71850800  1
  C  262  1  0.89350500  0.79912500  0.70031000  1
  C  265  1  0.80518500  0.83053500  0.76359800  1
  C  266  1  0.75897800  0.83327600  0.75707300  1
  C  267  1  0.73297300  0.86639400  0.77335700  1
  C  268  1  0.75185500  0.89817800  0.79661600  1
  C  269  1  0.79791200  0.89238200  0.80452800  1
  C  270  1  0.82424800  0.85981200  0.78809300  1
  C  277  1  0.06808500  0.21493200  0.70590400  1
  C  278  1  0.09903700  0.23536100  0.72901600  1
  C  279  1  0.13152800  0.21038100  0.74702300  1
  C  280  1  0.13412000  0.16371500  0.74261600  1
  C  281  1  0.10563100  0.14306200  0.71837400  1
  C  282  1  0.07377900  0.16829700  0.70024700  1
  C  285  1  0.16219900  0.13681500  0.76341900  1
  C  286  1  0.20842700  0.13415700  0.75693500  1
  C  287  1  0.23443800  0.10101600  0.77319100  1
  C  288  1  0.21557900  0.06923300  0.79646100  1
  C  289  1  0.16951600  0.07499000  0.80436200  1
  C  290  1  0.14315900  0.10752900  0.78792000  1
  C  297  1  0.21494400  0.89929800  0.20590200  1
  C  298  1  0.23532800  0.86838900  0.22907300  1
  C  299  1  0.21034200  0.83585600  0.24702400  1
  C  300  1  0.16369000  0.83322600  0.24254300  1
  C  301  1  0.14307200  0.86171400  0.21828100  1
  C  302  1  0.16833300  0.89355500  0.20015900  1
  C  305  1  0.13676400  0.80516500  0.26333900  1
  C  306  1  0.13405800  0.75894800  0.25686000  1
  C  307  1  0.10097600  0.73294300  0.27318800  1
  C  308  1  0.06920300  0.75183800  0.29644800  1
  C  309  1  0.07496000  0.79791800  0.30430500  1
  C  310  1  0.10749200  0.82425100  0.28782700  1
  C  317  1  0.75252700  0.06785600  0.20604800  1
  C  318  1  0.73212700  0.09885000  0.22914200  1
  C  319  1  0.75712900  0.13137900  0.24708600  1
  C  320  1  0.80378800  0.13397000  0.24262400  1
  C  321  1  0.82441100  0.10542500  0.21840700  1
  C  322  1  0.79915200  0.07353200  0.20034200  1
  C  325  1  0.83070900  0.16207000  0.26338800  1
  C  326  1  0.83335900  0.20829300  0.25688300  1
  C  327  1  0.86649400  0.23431900  0.27313100  1
  C  328  1  0.89827200  0.21547500  0.29641400  1
  C  329  1  0.89252600  0.16941400  0.30432600  1
  C  330  1  0.85998900  0.14304600  0.28789700  1
  C  337  1  0.98514800  0.60208600  0.30200400  1
  C  338  1  0.02152000  0.57451000  0.31220300  1
  C  339  1  0.02183100  0.52825500  0.30615800  1
  C  340  1  0.98537800  0.50732800  0.28960400  1
  C  341  1  0.94980400  0.53424200  0.27781400  1
  C  342  1  0.95005100  0.58063600  0.28352500  1
  C  345  1  0.98214600  0.46005400  0.28959900  1
  C  346  1  0.94567200  0.43912300  0.30611100  1
  C  347  1  0.94590300  0.39284600  0.31205300  1
  C  348  1  0.98229300  0.36527300  0.30188000  1
  C  349  1  0.01744600  0.38674600  0.28347900  1
  C  350  1  0.01771600  0.43314700  0.27779600  1
  C  357  1  0.36535700  0.98518800  0.80185900  1
  C  358  1  0.39294600  0.02157400  0.81201400  1
  C  359  1  0.43920300  0.02185100  0.80598400  1
  C  360  1  0.46012100  0.98537500  0.78945100  1
  C  361  1  0.43320000  0.94978000  0.77770700  1
  C  362  1  0.38681200  0.95002400  0.78346000  1
  C  365  1  0.50739800  0.98216900  0.78946700  1
  C  366  1  0.52829900  0.94570600  0.80602500  1
  C  367  1  0.57455000  0.94600000  0.81210200  1
  C  368  1  0.60215600  0.98235300  0.80191300  1
  C  369  1  0.58072300  0.01749300  0.78347100  1
  C  370  1  0.53433600  0.01774200  0.77771000  1
  C  377  1  0.98334900  0.60339600  0.68949100  1
  C  378  1  0.94689200  0.57677600  0.67800900  1
  C  379  1  0.94641400  0.53005400  0.68177600  1
  C  380  1  0.98288800  0.50751800  0.69702400  1
  C  381  1  0.01895400  0.53332600  0.70944400  1
  C  382  1  0.01887300  0.58013800  0.70606800  1
  C  385  1  0.98463300  0.46003100  0.69702400  1
  C  386  1  0.02108300  0.43748500  0.68175600  1
  C  387  1  0.02062600  0.39075700  0.67804000  1
  C  388  1  0.98415800  0.36414700  0.68951900  1
  C  389  1  0.94863700  0.38742100  0.70609100  1
  C  390  1  0.94857700  0.43423300  0.70947300  1
  C  397  1  0.60325900  0.98403800  0.18985800  1
  C  398  1  0.57663200  0.02052400  0.17843600  1
  C  399  1  0.52992300  0.02102300  0.18228000  1
  C  400  1  0.50742500  0.98457300  0.19758500  1
  C  401  1  0.53323900  0.94850300  0.20998700  1
  C  402  1  0.58003100  0.94853000  0.20648500  1
  C  405  1  0.45994400  0.98280100  0.19756800  1
  C  406  1  0.43746900  0.94634700  0.18224400  1
  C  407  1  0.39077000  0.94684500  0.17835700  1
  C  408  1  0.36411700  0.98329900  0.18979900  1
  C  409  1  0.38731400  0.01880700  0.20644700  1
  C  410  1  0.43410600  0.01885700  0.20996300  1
  C  417  1  0.98250000  0.25052100  0.59253400  1
  C  418  1  0.94643400  0.26927400  0.57344100  1
  C  419  1  0.94522800  0.26881500  0.53702700  1
  C  420  1  0.97972600  0.24835900  0.51780200  1
  C  421  1  0.01490500  0.22773100  0.53614400  1
  C  422  1  0.01629200  0.22908000  0.57261700  1
  C  425  1  0.98058200  0.25154800  0.48104900  1
  C  426  1  0.97992700  0.29385800  0.46497300  1
  C  427  1  0.98130000  0.29778700  0.42871000  1
  C  428  1  0.98261400  0.25985600  0.40646800  1
  C  429  1  0.98311900  0.21755700  0.42332500  1
  C  430  1  0.98272100  0.21333400  0.45969700  1
  C  437  1  0.98491700  0.71713300  0.59258300  1
  C  438  1  0.02101200  0.69843800  0.57348700  1
  C  439  1  0.02221000  0.69889600  0.53707400  1
  C  440  1  0.98768800  0.71930900  0.51785100  1
  C  441  1  0.95249400  0.73991200  0.53619300  1
  C  442  1  0.95110100  0.73853800  0.57266600  1
  C  445  1  0.98683200  0.71608000  0.48109900  1
  C  446  1  0.98750100  0.67374600  0.46505800  1
  C  447  1  0.98611000  0.66976500  0.42879800  1
  C  448  1  0.98480300  0.70766300  0.40652300  1
  C  449  1  0.98429200  0.74998600  0.42334000  1
  C  450  1  0.98470000  0.75426500  0.45971200  1
  C  457  1  0.71663100  0.98250000  0.09265500  1
  C  458  1  0.69782300  0.94648400  0.07353500  1
  C  459  1  0.69828100  0.94532500  0.03712100  1
  C  460  1  0.71878000  0.97982000  0.01791900  1
  C  461  1  0.73942700  0.01496600  0.03628700  1
  C  462  1  0.73808000  0.01630800  0.07275900  1
  C  465  1  0.71564500  0.98070200  0.98116300  1
  C  466  1  0.67336200  0.98007400  0.96504800  1
  C  467  1  0.66948800  0.98145400  0.92878200  1
  C  468  1  0.70745300  0.98274100  0.90657200  1
  C  469  1  0.74972600  0.98323600  0.92346500  1
  C  470  1  0.75389400  0.98283500  0.95984200  1
  C  477  1  0.25075600  0.98492000  0.09259800  1
  C  478  1  0.26954800  0.02098600  0.07352800  1
  C  479  1  0.26913000  0.02220900  0.03711500  1
  C  480  1  0.24867000  0.98773800  0.01786500  1
  C  481  1  0.22802300  0.95254800  0.03618200  1
  C  482  1  0.22936000  0.95112400  0.07265300  1
  C  485  1  0.25182300  0.98694900  0.98110900  1
  C  486  1  0.29411400  0.98765100  0.96500400  1
  C  487  1  0.29800300  0.98626400  0.92873500  1
  C  488  1  0.26004800  0.98492700  0.90651700  1
  C  489  1  0.21776900  0.98441200  0.92340200  1
  C  490  1  0.21358700  0.98481000  0.95977700  1
  C  497  1  0.48474100  0.81762200  0.59761200  1
  C  498  1  0.48499500  0.81396500  0.63810700  1
  C  499  1  0.44258500  0.79233400  0.58352800  1
  C  500  1  0.44028200  0.74205900  0.59539100  1
  C  503  1  0.44134800  0.74170400  0.63627700  1
  C  504  1  0.48442100  0.76445000  0.65193400  1
  C  509  1  0.52700800  0.74054300  0.63656000  1
  C  510  1  0.52822800  0.74102800  0.59577000  1
  C  513  1  0.48407300  0.71903800  0.58161600  1
  C  516  1  0.52689500  0.79139600  0.58436800  1
  C  519  1  0.48546000  0.15251300  0.59771600  1
  C  520  1  0.48519300  0.15623000  0.63820800  1
  C  521  1  0.52762600  0.17777200  0.58362400  1
  C  522  1  0.52993100  0.22806800  0.59543600  1
  C  525  1  0.52884400  0.22849200  0.63632200  1
  C  526  1  0.48576800  0.20576900  0.65198900  1
  C  531  1  0.44318700  0.22965500  0.63658300  1
  C  532  1  0.44198000  0.22910400  0.59579600  1
  C  535  1  0.48614500  0.25106800  0.58162900  1
  C  538  1  0.44331700  0.17872200  0.58444100  1
  C  541  1  0.15256300  0.48479200  0.09767950  1
  C  542  1  0.15618300  0.48510200  0.13817400  1
  C  543  1  0.17782900  0.44259500  0.08365350  1
  C  544  1  0.22809100  0.44026200  0.09553950  1
  C  547  1  0.22841800  0.44139500  0.13642500  1
  C  548  1  0.20568300  0.48450400  0.15203300  1
  C  553  1  0.22964500  0.52704900  0.13663200  1
  C  554  1  0.22919400  0.52821500  0.09584250  1
  C  557  1  0.25116400  0.48401600  0.08173850  1
  C  560  1  0.17883500  0.52690300  0.08441450  1
  C  563  1  0.81771500  0.48550300  0.09762550  1
  C  564  1  0.81409700  0.48527000  0.13812200  1
  C  565  1  0.79242000  0.52765700  0.08354950  1
  C  566  1  0.74215600  0.52997700  0.09543850  1
  C  569  1  0.74183300  0.52892400  0.13632400  1
  C  570  1  0.76459600  0.48585800  0.15197800  1
  C  575  1  0.74067200  0.44326400  0.13663000  1
  C  576  1  0.74111100  0.44202700  0.09584050  1
  C  579  1  0.71911400  0.48618200  0.08168850  1
  C  582  1  0.79146900  0.44334700  0.08440750  1
  C  585  1  0.48485800  0.81541100  0.96721600  1
  C  586  1  0.48515600  0.80752800  0.92700100  1
  C  587  1  0.52692000  0.79192400  0.98344100  1
  C  588  1  0.52924900  0.74040500  0.97528000  1
  C  591  1  0.52816800  0.73552900  0.93462500  1
  C  592  1  0.48539300  0.75661400  0.91699400  1
  C  597  1  0.44348100  0.73326700  0.93377800  1
  C  598  1  0.44174000  0.73866700  0.97432900  1
  C  601  1  0.48563100  0.71894300  0.99051800  1
  C  604  1  0.44256200  0.79034200  0.98196600  1
  C  607  1  0.48536600  0.15490600  0.96722100  1
  C  608  1  0.48506900  0.16283800  0.92701200  1
  C  609  1  0.44328000  0.17833400  0.98345900  1
  C  610  1  0.44090400  0.22985900  0.97533500  1
  C  613  1  0.44198400  0.23478300  0.93468000  1
  C  614  1  0.48478500  0.21376500  0.91704000  1
  C  619  1  0.52666700  0.23713900  0.93384500  1
  C  620  1  0.52840900  0.23168100  0.97439200  1
  C  623  1  0.48450100  0.25134500  0.99059300  1
  C  626  1  0.52763600  0.17999500  0.98198700  1
  C  629  1  0.81541300  0.48534600  0.46738200  1
  C  630  1  0.80764300  0.48504600  0.42715300  1
  C  631  1  0.79190100  0.44328000  0.48356900  1
  C  632  1  0.74040800  0.44093400  0.47532800  1
  C  635  1  0.73563800  0.44201000  0.43466500  1
  C  636  1  0.75675400  0.48479500  0.41706500  1
  C  641  1  0.73334700  0.52669600  0.43381000  1
  C  642  1  0.73864900  0.52843900  0.47436800  1
  C  645  1  0.71888500  0.48454800  0.49052900  1
  C  648  1  0.79029900  0.52762800  0.48208600  1
  C  651  1  0.15472500  0.48472100  0.46744200  1
  C  652  1  0.16249400  0.48508600  0.42721200  1
  C  653  1  0.17827700  0.52673700  0.48366800  1
  C  654  1  0.22977600  0.52904300  0.47543300  1
  C  657  1  0.23454900  0.52803200  0.43477100  1
  C  658  1  0.21338400  0.48531000  0.41712400  1
  C  663  1  0.23673800  0.44334400  0.43382100  1
  C  664  1  0.23144300  0.44153600  0.47438000  1
  C  667  1  0.25125100  0.48538000  0.49058600  1
  C  670  1  0.17979800  0.44238500  0.48210600  1
  C  673  1  0.56848100  0.71530600  0.58177900  1
  C  674  1  0.60117100  0.73415300  0.55927900  1
  C  675  1  0.63361900  0.70779500  0.54254000  1
  C  676  1  0.63448100  0.66119100  0.54759200  1
  C  677  1  0.60450400  0.64213100  0.57159300  1
  C  678  1  0.57285400  0.66884600  0.58872400  1
  C  681  1  0.66145000  0.63323400  0.52667700  1
  C  682  1  0.70838000  0.63281800  0.52970200  1
  C  683  1  0.73388600  0.60084500  0.51161100  1
  C  684  1  0.71372800  0.56830900  0.48971100  1
  C  685  1  0.66674900  0.57210600  0.48497000  1
  C  686  1  0.64099500  0.60331200  0.50336000  1
  C  693  1  0.40172900  0.25479800  0.58176900  1
  C  694  1  0.36901900  0.23588900  0.55931200  1
  C  695  1  0.33656000  0.26220500  0.54254500  1
  C  696  1  0.33565100  0.30881000  0.54756600  1
  C  697  1  0.36563000  0.32793300  0.57153600  1
  C  698  1  0.39736100  0.30127600  0.58863300  1
  C  701  1  0.30864300  0.33670700  0.52663700  1
  C  702  1  0.26171000  0.33711100  0.52967400  1
  C  703  1  0.23620700  0.36913300  0.51162800  1
  C  704  1  0.25634900  0.40163600  0.48968900  1
  C  705  1  0.30331800  0.39780900  0.48491500  1
  C  706  1  0.32907900  0.36658200  0.50327500  1
  C  713  1  0.25494200  0.56845200  0.08184150  1
  C  714  1  0.23611600  0.60114900  0.05933350  1
  C  715  1  0.26247600  0.63361600  0.04261650  1
  C  716  1  0.30907700  0.63448900  0.04767750  1
  C  717  1  0.32813000  0.60447200  0.07165550  1
  C  718  1  0.30140600  0.57280500  0.08876850  1
  C  721  1  0.33703400  0.66147100  0.02676250  1
  C  722  1  0.33744600  0.70840600  0.02976650  1
  C  723  1  0.36938400  0.73391600  0.01163750  1
  C  724  1  0.40189600  0.71374800  0.98972200  1
  C  725  1  0.39809600  0.66676600  0.98499500  1
  C  726  1  0.36692300  0.64101500  0.00342246  1
  C  733  1  0.71536000  0.40177300  0.08187550  1
  C  734  1  0.73416100  0.36908900  0.05934350  1
  C  735  1  0.70776500  0.33667000  0.04260150  1
  C  736  1  0.66117300  0.33577800  0.04771950  1
  C  737  1  0.64216100  0.36573700  0.07175850  1
  C  738  1  0.66889900  0.39742400  0.08882550  1
  C  741  1  0.63318200  0.30882700  0.02680950  1
  C  742  1  0.63285900  0.26187700  0.02969850  1
  C  743  1  0.60082800  0.23640700  0.01162950  1
  C  744  1  0.56823800  0.25660600  0.98980000  1
  C  745  1  0.57197600  0.30360600  0.98516600  1
  C  746  1  0.60319700  0.32932700  0.00356546  1
  C  753  1  0.40065000  0.25388200  0.99101500  1
  C  754  1  0.36978800  0.23343200  0.01418950  1
  C  755  1  0.33728200  0.25837100  0.03221750  1
  C  756  1  0.33464100  0.30503600  0.02781750  1
  C  757  1  0.36308000  0.32572000  0.00355446  1
  C  758  1  0.39488700  0.30050700  0.98535600  1
  C  761  1  0.30656700  0.33191700  0.04864450  1
  C  762  1  0.26036000  0.33465800  0.04211950  1
  C  763  1  0.23435500  0.36777600  0.05840350  1
  C  764  1  0.25323700  0.39956000  0.08166250  1
  C  765  1  0.29929400  0.39376400  0.08957450  1
  C  766  1  0.32563000  0.36119400  0.07313950  1
  C  773  1  0.56946700  0.71631400  0.99095000  1
  C  774  1  0.60041900  0.73674300  0.01406250  1
  C  775  1  0.63291000  0.71176300  0.03206950  1
  C  776  1  0.63550200  0.66509700  0.02766250  1
  C  777  1  0.60701300  0.64444400  0.00342046  1
  C  778  1  0.57516100  0.66967900  0.98529300  1
  C  781  1  0.66358100  0.63819700  0.04846550  1
  C  782  1  0.70980900  0.63553900  0.04198150  1
  C  783  1  0.73582000  0.60239800  0.05823750  1
  C  784  1  0.71696100  0.57061500  0.08150750  1
  C  785  1  0.67089800  0.57637200  0.08940850  1
  C  786  1  0.64454100  0.60891100  0.07296650  1
  C  793  1  0.71632600  0.40068000  0.49094800  1
  C  794  1  0.73671000  0.36977100  0.51411900  1
  C  795  1  0.71172400  0.33723800  0.53207000  1
  C  796  1  0.66507200  0.33460800  0.52758900  1
  C  797  1  0.64445400  0.36309600  0.50332700  1
  C  798  1  0.66971500  0.39493700  0.48520500  1
  C  801  1  0.63814600  0.30654700  0.54838500  1
  C  802  1  0.63544000  0.26033000  0.54190600  1
  C  803  1  0.60235800  0.23432500  0.55823400  1
  C  804  1  0.57058500  0.25322000  0.58149400  1
  C  805  1  0.57634200  0.29930000  0.58935100  1
  C  806  1  0.60887400  0.32563300  0.57287300  1
  C  813  1  0.25390900  0.56923800  0.49109400  1
  C  814  1  0.23350900  0.60023200  0.51418800  1
  C  815  1  0.25851100  0.63276100  0.53213200  1
  C  816  1  0.30517000  0.63535200  0.52767000  1
  C  817  1  0.32579300  0.60680700  0.50345300  1
  C  818  1  0.30053400  0.57491400  0.48538800  1
  C  821  1  0.33209100  0.66345200  0.54843400  1
  C  822  1  0.33474100  0.70967500  0.54192900  1
  C  823  1  0.36787600  0.73570100  0.55817700  1
  C  824  1  0.39965400  0.71685700  0.58146000  1
  C  825  1  0.39390800  0.67079600  0.58937200  1
  C  826  1  0.36137100  0.64442800  0.57294300  1
  C  833  1  0.48653000  0.10346800  0.58705000  1
  C  834  1  0.52290200  0.07589210  0.59724900  1
  C  835  1  0.52321300  0.02963710  0.59120400  1
  C  836  1  0.48676000  0.00871014  0.57465000  1
  C  837  1  0.45118600  0.03562410  0.56286000  1
  C  838  1  0.45143300  0.08201810  0.56857100  1
  C  841  1  0.48352800  0.96143600  0.57464500  1
  C  842  1  0.44705400  0.94050500  0.59115700  1
  C  843  1  0.44728500  0.89422800  0.59709900  1
  C  844  1  0.48367500  0.86665500  0.58692600  1
  C  845  1  0.51882800  0.88812800  0.56852500  1
  C  846  1  0.51909800  0.93452900  0.56284200  1
  C  853  1  0.86673900  0.48657000  0.08690550  1
  C  854  1  0.89432800  0.52295600  0.09706050  1
  C  855  1  0.94058500  0.52323300  0.09103050  1
  C  856  1  0.96150300  0.48675700  0.07449750  1
  C  857  1  0.93458200  0.45116200  0.06275350  1
  C  858  1  0.88819400  0.45140600  0.06850650  1
  C  861  1  0.00878014  0.48355100  0.07451350  1
  C  862  1  0.02968110  0.44708800  0.09107150  1
  C  863  1  0.07593210  0.44738200  0.09714850  1
  C  864  1  0.10353800  0.48373500  0.08695950  1
  C  865  1  0.08210510  0.51887500  0.06851750  1
  C  866  1  0.03571810  0.51912400  0.06275650  1
  C  873  1  0.48473100  0.10477800  0.97453700  1
  C  874  1  0.44827400  0.07815810  0.96305500  1
  C  875  1  0.44779600  0.03143610  0.96682200  1
  C  876  1  0.48427000  0.00890014  0.98207000  1
  C  877  1  0.52033600  0.03470810  0.99449000  1
  C  878  1  0.52025500  0.08152010  0.99111400  1
  C  881  1  0.48601500  0.96141300  0.98207000  1
  C  882  1  0.52246500  0.93886700  0.96680200  1
  C  883  1  0.52200800  0.89213900  0.96308600  1
  C  884  1  0.48554000  0.86552900  0.97456500  1
  C  885  1  0.45001900  0.88880300  0.99113700  1
  C  886  1  0.44995900  0.93561500  0.99451900  1
  C  893  1  0.10464100  0.48542000  0.47490400  1
  C  894  1  0.07801410  0.52190600  0.46348200  1
  C  895  1  0.03130510  0.52240500  0.46732600  1
  C  896  1  0.00880714  0.48595500  0.48263100  1
  C  897  1  0.03462110  0.44988500  0.49503300  1
  C  898  1  0.08141310  0.44991200  0.49153100  1
  C  901  1  0.96132600  0.48418300  0.48261400  1
  C  902  1  0.93885100  0.44772900  0.46729000  1
  C  903  1  0.89215200  0.44822700  0.46340300  1
  C  904  1  0.86549900  0.48468100  0.47484500  1
  C  905  1  0.88869600  0.52018900  0.49149300  1
  C  906  1  0.93548800  0.52023900  0.49500900  1
  C  913  1  0.48388200  0.75190300  0.87758000  1
  C  914  1  0.44781600  0.77065600  0.85848700  1
  C  915  1  0.44661000  0.77019700  0.82207300  1
  C  916  1  0.48110800  0.74974100  0.80284800  1
  C  917  1  0.51628700  0.72911300  0.82119000  1
  C  918  1  0.51767400  0.73046200  0.85766300  1
  C  921  1  0.48196400  0.75293000  0.76609500  1
  C  922  1  0.48130900  0.79524000  0.75001900  1
  C  923  1  0.48268200  0.79916900  0.71375600  1
  C  924  1  0.48399600  0.76123800  0.69151400  1
  C  925  1  0.48450100  0.71893900  0.70837100  1
  C  926  1  0.48410300  0.71471600  0.74474300  1
  C  933  1  0.48629900  0.21851500  0.87762900  1
  C  934  1  0.52239400  0.19982000  0.85853300  1
  C  935  1  0.52359200  0.20027800  0.82212000  1
  C  936  1  0.48907000  0.22069100  0.80289700  1
  C  937  1  0.45387600  0.24129400  0.82123900  1
  C  938  1  0.45248300  0.23992000  0.85771200  1
  C  941  1  0.48821400  0.21746200  0.76614500  1
  C  942  1  0.48888300  0.17512800  0.75010400  1
  C  943  1  0.48749200  0.17114700  0.71384400  1
  C  944  1  0.48618500  0.20904500  0.69156900  1
  C  945  1  0.48567400  0.25136800  0.70838600  1
  C  946  1  0.48608200  0.25564700  0.74475800  1
  C  953  1  0.21801300  0.48388200  0.37770100  1
  C  954  1  0.19920500  0.44786600  0.35858100  1
  C  955  1  0.19966300  0.44670700  0.32216700  1
  C  956  1  0.22016200  0.48120200  0.30296500  1
  C  957  1  0.24080900  0.51634800  0.32133300  1
  C  958  1  0.23946200  0.51769000  0.35780500  1
  C  961  1  0.21702700  0.48208400  0.26620900  1
  C  962  1  0.17474400  0.48145600  0.25009400  1
  C  963  1  0.17087000  0.48283600  0.21382800  1
  C  964  1  0.20883500  0.48412300  0.19161800  1
  C  965  1  0.25110800  0.48461800  0.20851100  1
  C  966  1  0.25527600  0.48421700  0.24488800  1
  C  973  1  0.75213800  0.48630200  0.37764400  1
  C  974  1  0.77093000  0.52236800  0.35857400  1
  C  975  1  0.77051200  0.52359100  0.32216100  1
  C  976  1  0.75005200  0.48912000  0.30291100  1
  C  977  1  0.72940500  0.45393000  0.32122800  1
  C  978  1  0.73074200  0.45250600  0.35769900  1
  C  981  1  0.75320500  0.48833100  0.26615500  1
  C  982  1  0.79549600  0.48903300  0.25005000  1
  C  983  1  0.79938500  0.48764600  0.21378100  1
  C  984  1  0.76143000  0.48630900  0.19156300  1
  C  985  1  0.71915100  0.48579400  0.20844800  1
  C  986  1  0.71496900  0.48619200  0.24482300  1
