# generated using pymatgen
data_H24C43(NO)8
_symmetry_space_group_name_H-M   'P 1'
_cell_length_a   40.64490000
_cell_length_b   40.64490000
_cell_length_c   40.64490000
_cell_angle_alpha   90.00000000
_cell_angle_beta   90.00000000
_cell_angle_gamma   90.00000000
_symmetry_Int_Tables_number   1
_chemical_formula_structural   H24C43(NO)8
_chemical_formula_sum   'H384 C688 N128 O128'
_cell_volume   67145.69573254
_cell_formula_units_Z   16
loop_
 _symmetry_equiv_pos_site_id
 _symmetry_equiv_pos_as_xyz
  1  'x, y, z'
loop_
 _atom_site_type_symbol
 _atom_site_label
 _atom_site_symmetry_multiplicity
 _atom_site_fract_x
 _atom_site_fract_y
 _atom_site_fract_z
 _atom_site_occupancy
  H  25  1  0.93660500  0.00086400  0.11822000  1
  H  26  1  0.96962700  0.04797800  0.10817300  1
  H  27  1  0.05157700  0.10936000  0.04635900  1
  H  28  1  0.08502900  0.11893700  0.99952300  1
  H  29  1  0.05491800  0.02861200  0.95890000  1
  H  30  1  0.96847300  0.95899400  0.02916700  1
  H  31  1  0.05490400  0.98837000  0.05808200  1
  H  32  1  0.08504600  0.89806100  0.01744700  1
  H  33  1  0.05159800  0.90763400  0.97060900  1
  H  34  1  0.96846400  0.05798700  0.98781900  1
  H  35  1  0.96963200  0.96901500  0.90880000  1
  H  36  1  0.93661000  0.01613000  0.89875700  1
  H  39  1  0.99521700  0.08262600  0.06015700  1
  H  40  1  0.02664100  0.06148400  0.08184600  1
  H  42  1  0.02666100  0.95552000  0.93512600  1
  H  43  1  0.99523700  0.93436300  0.95679900  1
  H  72  1  0.58035800  0.01616800  0.61826700  1
  H  73  1  0.54731400  0.96906900  0.60824400  1
  H  74  1  0.46534700  0.90768800  0.54645700  1
  H  75  1  0.43191900  0.89808600  0.49961000  1
  H  76  1  0.46212200  0.98834800  0.45890900  1
  H  77  1  0.54854900  0.05798600  0.52916600  1
  H  78  1  0.46208800  0.02863000  0.55810200  1
  H  79  1  0.43197100  0.11894800  0.51747000  1
  H  80  1  0.46542600  0.10937300  0.47064000  1
  H  81  1  0.54851700  0.95899400  0.48783500  1
  H  82  1  0.54739700  0.04799400  0.40884300  1
  H  83  1  0.58040700  0.00087100  0.39879300  1
  H  86  1  0.52171600  0.93439300  0.56026200  1
  H  87  1  0.49029500  0.95558600  0.58190600  1
  H  89  1  0.49037200  0.06150100  0.43515200  1
  H  90  1  0.52179000  0.08263600  0.45685400  1
  H  119  1  0.26208900  0.68432500  0.36782700  1
  H  120  1  0.21537400  0.71759300  0.35641100  1
  H  121  1  0.15496200  0.79819100  0.29021100  1
  H  122  1  0.14818800  0.83197700  0.24291500  1
  H  123  1  0.24177600  0.80391600  0.20902100  1
  H  124  1  0.30674900  0.71621500  0.28021000  1
  H  125  1  0.27519800  0.80393900  0.30790800  1
  H  126  1  0.36878900  0.83198600  0.27401500  1
  H  127  1  0.36202600  0.79818400  0.22673200  1
  H  128  1  0.21023000  0.71622800  0.23674400  1
  H  129  1  0.30160700  0.71757400  0.16054400  1
  H  130  1  0.25488800  0.68431000  0.14913100  1
  H  133  1  0.18221800  0.74235200  0.30628900  1
  H  134  1  0.20152700  0.77421800  0.32897100  1
  H  136  1  0.31546400  0.77420500  0.18797300  1
  H  137  1  0.33476300  0.74233400  0.21065900  1
  H  166  1  0.25492300  0.33269400  0.86783100  1
  H  167  1  0.30163400  0.29941800  0.85641300  1
  H  168  1  0.36203800  0.21882100  0.79020500  1
  H  169  1  0.36880600  0.18503700  0.74291000  1
  H  170  1  0.27520100  0.21307000  0.70904400  1
  H  171  1  0.21024200  0.30078600  0.78023100  1
  H  172  1  0.24178100  0.21305000  0.80793900  1
  H  173  1  0.14819300  0.18499900  0.77404300  1
  H  174  1  0.15496200  0.21879500  0.72675500  1
  H  175  1  0.30674500  0.30078300  0.73676700  1
  H  176  1  0.21537900  0.29938600  0.66055300  1
  H  177  1  0.26208900  0.33266200  0.64913900  1
  H  180  1  0.33477300  0.27465200  0.80629100  1
  H  181  1  0.31547900  0.24278300  0.82898200  1
  H  183  1  0.20152700  0.24276800  0.68799800  1
  H  184  1  0.18222200  0.27464000  0.71067500  1
  H  213  1  0.75662900  0.33311200  0.64883700  1
  H  214  1  0.80400000  0.30162700  0.66228200  1
  H  215  1  0.86414100  0.22267100  0.73038900  1
  H  216  1  0.86971300  0.18818400  0.77728100  1
  H  217  1  0.77361000  0.21220100  0.80697500  1
  H  218  1  0.70961200  0.29991200  0.73467300  1
  H  219  1  0.74338000  0.21218200  0.71002500  1
  H  220  1  0.64727700  0.18816700  0.73971900  1
  H  221  1  0.65284700  0.22266100  0.78660600  1
  H  222  1  0.80737300  0.29990000  0.78232200  1
  H  223  1  0.71298300  0.30161700  0.85470800  1
  H  224  1  0.76035600  0.33310200  0.86815600  1
  H  227  1  0.83580200  0.27780600  0.71399400  1
  H  228  1  0.81872300  0.24572800  0.68986300  1
  H  230  1  0.69826700  0.24571700  0.82713200  1
  H  231  1  0.68117800  0.27779400  0.80300100  1
  H  260  1  0.76030000  0.68380800  0.14886700  1
  H  261  1  0.71292300  0.71527100  0.16234100  1
  H  262  1  0.65281500  0.79426200  0.23043300  1
  H  263  1  0.64727200  0.82879000  0.27730200  1
  H  264  1  0.74340000  0.80480700  0.30694100  1
  H  265  1  0.80738600  0.71708900  0.23463300  1
  H  266  1  0.77358500  0.80479200  0.21002200  1
  H  267  1  0.86970800  0.82879800  0.23967900  1
  H  268  1  0.86415500  0.79429400  0.28656000  1
  H  269  1  0.70960900  0.71708400  0.28235500  1
  H  270  1  0.80405200  0.71532700  0.35467200  1
  H  271  1  0.75668300  0.68385500  0.36814500  1
  H  274  1  0.68115800  0.73911400  0.21406100  1
  H  275  1  0.69820300  0.77118400  0.18989100  1
  H  277  1  0.81875500  0.77123300  0.32709900  1
  H  278  1  0.83582700  0.73915800  0.30295300  1
  H  307  1  0.43364900  0.50292700  0.61838800  1
  H  308  1  0.46648200  0.55010800  0.60728700  1
  H  309  1  0.54487800  0.61266500  0.54010200  1
  H  310  1  0.57923900  0.61944600  0.49320600  1
  H  311  1  0.55372800  0.52481600  0.46027900  1
  H  312  1  0.46460700  0.46003300  0.52957200  1
  H  313  1  0.55366600  0.49219200  0.55673400  1
  H  314  1  0.57928100  0.39760000  0.52377800  1
  H  315  1  0.54497100  0.40439000  0.47684500  1
  H  316  1  0.46457700  0.55695800  0.48739500  1
  H  317  1  0.46656000  0.46691000  0.40965300  1
  H  318  1  0.43369300  0.51406700  0.39855700  1
  H  321  1  0.48979800  0.58418200  0.55664300  1
  H  322  1  0.52212700  0.56554700  0.57922900  1
  H  324  1  0.52221600  0.45151300  0.43773000  1
  H  325  1  0.48988700  0.43283400  0.46027900  1
  H  354  1  0.08326800  0.51405700  0.11844400  1
  H  355  1  0.05040600  0.46690000  0.10734200  1
  H  356  1  0.97201100  0.40437600  0.04013000  1
  H  357  1  0.93768700  0.39760200  0.99320500  1
  H  358  1  0.96329400  0.49220200  0.96026600  1
  H  359  1  0.05239500  0.55695100  0.02960100  1
  H  360  1  0.96327700  0.52481100  0.05672200  1
  H  361  1  0.93775900  0.61943800  0.02380000  1
  H  362  1  0.97210700  0.61265800  0.97689500  1
  H  363  1  0.05238000  0.46002300  0.98740800  1
  H  364  1  0.05049500  0.55010400  0.90970100  1
  H  365  1  0.08333000  0.50292400  0.89859700  1
  H  368  1  0.02709700  0.43281900  0.05670400  1
  H  369  1  0.99476700  0.45149600  0.07925400  1
  H  371  1  0.99484800  0.56554000  0.93776400  1
  H  372  1  0.02718100  0.58417700  0.96034400  1
  H  382  1  0.91424300  0.93036000  0.17405900  1
  H  384  1  0.89481600  0.88769300  0.08213300  1
  H  392  1  0.95135200  0.93843500  0.12713200  1
  H  394  1  0.86293700  0.81772100  0.17094100  1
  H  400  1  0.60272000  0.08663500  0.67404500  1
  H  402  1  0.62216700  0.12934000  0.58213500  1
  H  410  1  0.56561600  0.07861300  0.62712200  1
  H  412  1  0.65401100  0.19926100  0.67099000  1
  H  418  1  0.34926400  0.66375400  0.42320900  1
  H  420  1  0.36157800  0.63029300  0.32638500  1
  H  428  1  0.32402800  0.69325100  0.37915500  1
  H  430  1  0.44311100  0.57861900  0.38988400  1
  H  436  1  0.16771300  0.35323000  0.92323300  1
  H  438  1  0.15543600  0.38673000  0.82641600  1
  H  446  1  0.19298000  0.32376500  0.87918100  1
  H  448  1  0.07386200  0.43836500  0.88990300  1
  H  454  1  0.60286500  0.93047800  0.34296800  1
  H  456  1  0.62205800  0.88758700  0.43483700  1
  H  464  1  0.56565000  0.93844500  0.38985500  1
  H  466  1  0.65450800  0.81750700  0.34644400  1
  H  472  1  0.91425500  0.08662200  0.84294200  1
  H  474  1  0.89482600  0.12932700  0.93485500  1
  H  482  1  0.95135900  0.07858600  0.88986100  1
  H  484  1  0.86299200  0.19926000  0.84600000  1
  H  490  1  0.16769800  0.66374600  0.09375900  1
  H  492  1  0.15542100  0.63028800  0.19059000  1
  H  500  1  0.19293400  0.69325300  0.13781000  1
  H  502  1  0.07386200  0.57865600  0.12709300  1
  H  508  1  0.34929100  0.35321500  0.59375500  1
  H  510  1  0.36155800  0.38672500  0.69056900  1
  H  518  1  0.32402800  0.32374800  0.63780900  1
  H  520  1  0.44313300  0.43833300  0.62706800  1
  H  526  1  0.10377600  0.08285900  0.85363200  1
  H  528  1  0.13664200  0.12992700  0.93949100  1
  H  536  1  0.08469600  0.06308000  0.90708800  1
  H  538  1  0.14619400  0.19509400  0.83847900  1
  H  544  1  0.41314900  0.93414200  0.35363600  1
  H  546  1  0.38047300  0.88690100  0.43947500  1
  H  554  1  0.43204400  0.95408800  0.40716100  1
  H  556  1  0.37076700  0.82187400  0.33845600  1
  H  562  1  0.68338700  0.35470100  0.58869100  1
  H  564  1  0.64139400  0.37227300  0.68132800  1
  H  572  1  0.69580000  0.31918200  0.63509300  1
  H  574  1  0.56899200  0.40138400  0.59265300  1
  H  580  1  0.83353400  0.66217700  0.08864500  1
  H  582  1  0.87558800  0.64476700  0.18128500  1
  H  590  1  0.82106500  0.69772600  0.13501800  1
  H  592  1  0.94815600  0.61535900  0.09288200  1
  H  598  1  0.41329400  0.08294200  0.66336300  1
  H  600  1  0.38030100  0.12988900  0.57748700  1
  H  608  1  0.43232500  0.06311300  0.60990900  1
  H  610  1  0.37082900  0.19507900  0.67852600  1
  H  616  1  0.10368700  0.93406300  0.16334900  1
  H  618  1  0.13668800  0.88710500  0.07748000  1
  H  626  1  0.08466500  0.95388900  0.10989400  1
  H  628  1  0.14613900  0.82193800  0.17854000  1
  H  634  1  0.83350000  0.35478700  0.92827200  1
  H  636  1  0.87565500  0.37217200  0.83567200  1
  H  644  1  0.82116800  0.31917700  0.88189900  1
  H  646  1  0.94818100  0.40178700  0.92393600  1
  H  652  1  0.68345900  0.66219400  0.42834900  1
  H  654  1  0.64140700  0.64477500  0.33571000  1
  H  662  1  0.69591800  0.69774600  0.38197200  1
  H  664  1  0.56883700  0.61535600  0.42410200  1
  H  689  1  0.93660500  0.00086400  0.46266700  1
  H  690  1  0.96962700  0.04797800  0.45262000  1
  H  691  1  0.05157700  0.10936000  0.39080600  1
  H  692  1  0.08502900  0.11893700  0.34397000  1
  H  693  1  0.05491800  0.02861200  0.30334700  1
  H  694  1  0.96847300  0.95899400  0.37361400  1
  H  695  1  0.05490400  0.98837000  0.40252900  1
  H  696  1  0.08504600  0.89806100  0.36189400  1
  H  697  1  0.05159800  0.90763400  0.31505600  1
  H  698  1  0.96846400  0.05798700  0.33226600  1
  H  699  1  0.96963200  0.96901500  0.25324700  1
  H  700  1  0.93661000  0.01613000  0.24320400  1
  H  703  1  0.99521700  0.08262600  0.40460400  1
  H  704  1  0.02664100  0.06148400  0.42629300  1
  H  706  1  0.02666100  0.95552000  0.27957300  1
  H  707  1  0.99523700  0.93436300  0.30124600  1
  H  736  1  0.58035800  0.01616800  0.96271400  1
  H  737  1  0.54731400  0.96906900  0.95269100  1
  H  738  1  0.46534700  0.90768800  0.89090400  1
  H  739  1  0.43191900  0.89808600  0.84405700  1
  H  740  1  0.46212200  0.98834800  0.80335600  1
  H  741  1  0.54854900  0.05798600  0.87361300  1
  H  742  1  0.46208800  0.02863000  0.90254900  1
  H  743  1  0.43197100  0.11894800  0.86191700  1
  H  744  1  0.46542600  0.10937300  0.81508700  1
  H  745  1  0.54851700  0.95899400  0.83228200  1
  H  746  1  0.54739700  0.04799400  0.75329000  1
  H  747  1  0.58040700  0.00087100  0.74324000  1
  H  750  1  0.52171600  0.93439300  0.90470900  1
  H  751  1  0.49029500  0.95558600  0.92635300  1
  H  753  1  0.49037200  0.06150100  0.77959900  1
  H  754  1  0.52179000  0.08263600  0.80130100  1
  H  783  1  0.26208900  0.68432500  0.71227400  1
  H  784  1  0.21537400  0.71759300  0.70085800  1
  H  785  1  0.15496200  0.79819100  0.63465800  1
  H  786  1  0.14818800  0.83197700  0.58736200  1
  H  787  1  0.24177600  0.80391600  0.55346800  1
  H  788  1  0.30674900  0.71621500  0.62465700  1
  H  789  1  0.27519800  0.80393900  0.65235500  1
  H  790  1  0.36878900  0.83198600  0.61846200  1
  H  791  1  0.36202600  0.79818400  0.57117900  1
  H  792  1  0.21023000  0.71622800  0.58119100  1
  H  793  1  0.30160700  0.71757400  0.50499100  1
  H  794  1  0.25488800  0.68431000  0.49357800  1
  H  797  1  0.18221800  0.74235200  0.65073600  1
  H  798  1  0.20152700  0.77421800  0.67341800  1
  H  800  1  0.31546400  0.77420500  0.53242000  1
  H  801  1  0.33476300  0.74233400  0.55510600  1
  H  830  1  0.25492300  0.33269400  0.21227800  1
  H  831  1  0.30163400  0.29941800  0.20086000  1
  H  832  1  0.36203800  0.21882100  0.13465200  1
  H  833  1  0.36880600  0.18503700  0.08735670  1
  H  834  1  0.27520100  0.21307000  0.05349070  1
  H  835  1  0.21024200  0.30078600  0.12467800  1
  H  836  1  0.24178100  0.21305000  0.15238600  1
  H  837  1  0.14819300  0.18499900  0.11849000  1
  H  838  1  0.15496200  0.21879500  0.07120170  1
  H  839  1  0.30674500  0.30078300  0.08121370  1
  H  840  1  0.21537900  0.29938600  0.00499966  1
  H  841  1  0.26208900  0.33266200  0.99358600  1
  H  844  1  0.33477300  0.27465200  0.15073800  1
  H  845  1  0.31547900  0.24278300  0.17342900  1
  H  847  1  0.20152700  0.24276800  0.03244470  1
  H  848  1  0.18222200  0.27464000  0.05512170  1
  H  877  1  0.75662900  0.33311200  0.99328400  1
  H  878  1  0.80400000  0.30162700  0.00672866  1
  H  879  1  0.86414100  0.22267100  0.07483570  1
  H  880  1  0.86971300  0.18818400  0.12172800  1
  H  881  1  0.77361000  0.21220100  0.15142200  1
  H  882  1  0.70961200  0.29991200  0.07911970  1
  H  883  1  0.74338000  0.21218200  0.05447170  1
  H  884  1  0.64727700  0.18816700  0.08416570  1
  H  885  1  0.65284700  0.22266100  0.13105300  1
  H  886  1  0.80737300  0.29990000  0.12676900  1
  H  887  1  0.71298300  0.30161700  0.19915500  1
  H  888  1  0.76035600  0.33310200  0.21260300  1
  H  891  1  0.83580200  0.27780600  0.05844070  1
  H  892  1  0.81872300  0.24572800  0.03430970  1
  H  894  1  0.69826700  0.24571700  0.17157900  1
  H  895  1  0.68117800  0.27779400  0.14744800  1
  H  924  1  0.76030000  0.68380800  0.49331400  1
  H  925  1  0.71292300  0.71527100  0.50678800  1
  H  926  1  0.65281500  0.79426200  0.57488000  1
  H  927  1  0.64727200  0.82879000  0.62174900  1
  H  928  1  0.74340000  0.80480700  0.65138800  1
  H  929  1  0.80738600  0.71708900  0.57908000  1
  H  930  1  0.77358500  0.80479200  0.55446900  1
  H  931  1  0.86970800  0.82879800  0.58412600  1
  H  932  1  0.86415500  0.79429400  0.63100700  1
  H  933  1  0.70960900  0.71708400  0.62680200  1
  H  934  1  0.80405200  0.71532700  0.69911900  1
  H  935  1  0.75668300  0.68385500  0.71259200  1
  H  938  1  0.68115800  0.73911400  0.55850800  1
  H  939  1  0.69820300  0.77118400  0.53433800  1
  H  941  1  0.81875500  0.77123300  0.67154600  1
  H  942  1  0.83582700  0.73915800  0.64740000  1
  H  971  1  0.43364900  0.50292700  0.96283500  1
  H  972  1  0.46648200  0.55010800  0.95173400  1
  H  973  1  0.54487800  0.61266500  0.88454900  1
  H  974  1  0.57923900  0.61944600  0.83765300  1
  H  975  1  0.55372800  0.52481600  0.80472600  1
  H  976  1  0.46460700  0.46003300  0.87401900  1
  H  977  1  0.55366600  0.49219200  0.90118100  1
  H  978  1  0.57928100  0.39760000  0.86822500  1
  H  979  1  0.54497100  0.40439000  0.82129200  1
  H  980  1  0.46457700  0.55695800  0.83184200  1
  H  981  1  0.46656000  0.46691000  0.75410000  1
  H  982  1  0.43369300  0.51406700  0.74300400  1
  H  985  1  0.48979800  0.58418200  0.90109000  1
  H  986  1  0.52212700  0.56554700  0.92367600  1
  H  988  1  0.52221600  0.45151300  0.78217700  1
  H  989  1  0.48988700  0.43283400  0.80472600  1
  H  1018  1  0.08326800  0.51405700  0.46289100  1
  H  1019  1  0.05040600  0.46690000  0.45178900  1
  H  1020  1  0.97201100  0.40437600  0.38457700  1
  H  1021  1  0.93768700  0.39760200  0.33765200  1
  H  1022  1  0.96329400  0.49220200  0.30471300  1
  H  1023  1  0.05239500  0.55695100  0.37404800  1
  H  1024  1  0.96327700  0.52481100  0.40116900  1
  H  1025  1  0.93775900  0.61943800  0.36824700  1
  H  1026  1  0.97210700  0.61265800  0.32134200  1
  H  1027  1  0.05238000  0.46002300  0.33185500  1
  H  1028  1  0.05049500  0.55010400  0.25414800  1
  H  1029  1  0.08333000  0.50292400  0.24304400  1
  H  1032  1  0.02709700  0.43281900  0.40115100  1
  H  1033  1  0.99476700  0.45149600  0.42370100  1
  H  1035  1  0.99484800  0.56554000  0.28221100  1
  H  1036  1  0.02718100  0.58417700  0.30479100  1
  H  1046  1  0.91424300  0.93036000  0.51850600  1
  H  1048  1  0.89481600  0.88769300  0.42658000  1
  H  1056  1  0.95135200  0.93843500  0.47157900  1
  H  1058  1  0.86293700  0.81772100  0.51538800  1
  H  1064  1  0.60272000  0.08663500  0.01849170  1
  H  1066  1  0.62216700  0.12934000  0.92658200  1
  H  1074  1  0.56561600  0.07861300  0.97156900  1
  H  1076  1  0.65401100  0.19926100  0.01543670  1
  H  1082  1  0.34926400  0.66375400  0.76765600  1
  H  1084  1  0.36157800  0.63029300  0.67083200  1
  H  1092  1  0.32402800  0.69325100  0.72360200  1
  H  1094  1  0.44311100  0.57861900  0.73433100  1
  H  1100  1  0.16771300  0.35323000  0.26768000  1
  H  1102  1  0.15543600  0.38673000  0.17086300  1
  H  1110  1  0.19298000  0.32376500  0.22362800  1
  H  1112  1  0.07386200  0.43836500  0.23435000  1
  H  1118  1  0.60286500  0.93047800  0.68741500  1
  H  1120  1  0.62205800  0.88758700  0.77928400  1
  H  1128  1  0.56565000  0.93844500  0.73430200  1
  H  1130  1  0.65450800  0.81750700  0.69089100  1
  H  1136  1  0.91425500  0.08662200  0.18738900  1
  H  1138  1  0.89482600  0.12932700  0.27930200  1
  H  1146  1  0.95135900  0.07858600  0.23430800  1
  H  1148  1  0.86299200  0.19926000  0.19044700  1
  H  1154  1  0.16769800  0.66374600  0.43820600  1
  H  1156  1  0.15542100  0.63028800  0.53503700  1
  H  1164  1  0.19293400  0.69325300  0.48225700  1
  H  1166  1  0.07386200  0.57865600  0.47154000  1
  H  1172  1  0.34929100  0.35321500  0.93820200  1
  H  1174  1  0.36155800  0.38672500  0.03501570  1
  H  1182  1  0.32402800  0.32374800  0.98225600  1
  H  1184  1  0.44313300  0.43833300  0.97151500  1
  H  1190  1  0.10377600  0.08285900  0.19807900  1
  H  1192  1  0.13664200  0.12992700  0.28393800  1
  H  1200  1  0.08469600  0.06308000  0.25153500  1
  H  1202  1  0.14619400  0.19509400  0.18292600  1
  H  1208  1  0.41314900  0.93414200  0.69808300  1
  H  1210  1  0.38047300  0.88690100  0.78392200  1
  H  1218  1  0.43204400  0.95408800  0.75160800  1
  H  1220  1  0.37076700  0.82187400  0.68290300  1
  H  1226  1  0.68338700  0.35470100  0.93313800  1
  H  1228  1  0.64139400  0.37227300  0.02577470  1
  H  1236  1  0.69580000  0.31918200  0.97954000  1
  H  1238  1  0.56899200  0.40138400  0.93710000  1
  H  1244  1  0.83353400  0.66217700  0.43309200  1
  H  1246  1  0.87558800  0.64476700  0.52573200  1
  H  1254  1  0.82106500  0.69772600  0.47946500  1
  H  1256  1  0.94815600  0.61535900  0.43732900  1
  H  1262  1  0.41329400  0.08294200  0.00780966  1
  H  1264  1  0.38030100  0.12988900  0.92193400  1
  H  1272  1  0.43232500  0.06311300  0.95435600  1
  H  1274  1  0.37082900  0.19507900  0.02297270  1
  H  1280  1  0.10368700  0.93406300  0.50779600  1
  H  1282  1  0.13668800  0.88710500  0.42192700  1
  H  1290  1  0.08466500  0.95388900  0.45434100  1
  H  1292  1  0.14613900  0.82193800  0.52298700  1
  H  1298  1  0.83350000  0.35478700  0.27271900  1
  H  1300  1  0.87565500  0.37217200  0.18011900  1
  H  1308  1  0.82116800  0.31917700  0.22634600  1
  H  1310  1  0.94818100  0.40178700  0.26838300  1
  H  1316  1  0.68345900  0.66219400  0.77279600  1
  H  1318  1  0.64140700  0.64477500  0.68015700  1
  H  1326  1  0.69591800  0.69774600  0.72641900  1
  H  1328  1  0.56883700  0.61535600  0.76854900  1
  C  1  1  0.98883800  0.01066000  0.97839800  1
  C  2  1  0.98938600  0.98530700  0.95438800  1
  C  3  1  0.03279000  0.95389300  0.98610900  1
  C  4  1  0.03380100  0.97832700  0.01108500  1
  C  5  1  0.05428400  0.97179000  0.03918200  1
  C  6  1  0.07295200  0.94228100  0.04238300  1
  C  7  1  0.07197000  0.91961100  0.01627200  1
  C  8  1  0.05231300  0.92527200  0.98861600  1
  C  9  1  0.96941100  0.98741300  0.92603500  1
  C  10  1  0.95005500  0.01523500  0.92003700  1
  C  11  1  0.95004800  0.04210100  0.94201700  1
  C  12  1  0.96847800  0.03873000  0.97162300  1
  C  13  1  0.98882500  0.00633100  0.03857400  1
  C  14  1  0.98937600  0.03168300  0.06258400  1
  C  15  1  0.03278700  0.06309400  0.03086400  1
  C  16  1  0.03381200  0.03865300  0.00589500  1
  C  17  1  0.05228000  0.09173400  0.02834300  1
  C  18  1  0.07194600  0.09739200  0.00069100  1
  C  19  1  0.07294400  0.07471400  0.97458700  1
  C  20  1  0.05428900  0.04519600  0.97779800  1
  C  21  1  0.96846100  0.97826300  0.04534700  1
  C  22  1  0.95003300  0.97489500  0.07495500  1
  C  23  1  0.95003300  0.00176700  0.09692800  1
  C  24  1  0.96938600  0.02958900  0.09092700  1
  C  37  1  0.01138200  0.00849300  0.00849100  1
  C  38  1  0.01100300  0.06080000  0.05992600  1
  C  41  1  0.01101600  0.95619400  0.95704300  1
  C  48  1  0.52816000  0.00633100  0.47842400  1
  C  49  1  0.52762600  0.03169100  0.45441900  1
  C  50  1  0.48421100  0.06310300  0.48613200  1
  C  51  1  0.48319200  0.03866400  0.51110200  1
  C  52  1  0.46271000  0.04520700  0.53919900  1
  C  53  1  0.44404300  0.07471800  0.54239800  1
  C  54  1  0.44502000  0.09738300  0.51628400  1
  C  55  1  0.46469800  0.09173000  0.48863900  1
  C  56  1  0.54760900  0.02958900  0.42607300  1
  C  57  1  0.56695400  0.00176400  0.42007000  1
  C  58  1  0.56694700  0.97489000  0.44204100  1
  C  59  1  0.54851200  0.97825800  0.47164300  1
  C  60  1  0.52816700  0.01066700  0.53859700  1
  C  61  1  0.52759600  0.98533400  0.56263200  1
  C  62  1  0.48418900  0.95392100  0.53092000  1
  C  63  1  0.48318500  0.97834400  0.50593300  1
  C  64  1  0.46466600  0.92529700  0.52842300  1
  C  65  1  0.44501300  0.91962600  0.50076900  1
  C  66  1  0.44405600  0.94227600  0.47463800  1
  C  67  1  0.46271700  0.97179000  0.47782900  1
  C  68  1  0.54851700  0.03874100  0.54538000  1
  C  69  1  0.56695900  0.04211200  0.57497700  1
  C  70  1  0.56695900  0.01524700  0.59695800  1
  C  71  1  0.54757400  0.98744000  0.59098200  1
  C  84  1  0.50561600  0.00850100  0.50851400  1
  C  85  1  0.50595000  0.95623300  0.55999400  1
  C  88  1  0.50600500  0.06081200  0.45707800  1
  C  95  1  0.25756000  0.73703000  0.22844600  1
  C  96  1  0.28386300  0.73746300  0.20549600  1
  C  97  1  0.31447200  0.78029200  0.23901300  1
  C  98  1  0.28849100  0.78193800  0.26229900  1
  C  99  1  0.29316400  0.80290000  0.29031200  1
  C  100  1  0.32274400  0.82079900  0.29584500  1
  C  101  1  0.34733000  0.81907000  0.27143400  1
  C  102  1  0.34325600  0.79926600  0.24352100  1
  C  103  1  0.28256900  0.71751000  0.17706500  1
  C  104  1  0.25497900  0.69800200  0.17026400  1
  C  105  1  0.22756200  0.69766400  0.19157800  1
  C  106  1  0.22988500  0.71640700  0.22102700  1
  C  107  1  0.25942000  0.73702700  0.28849900  1
  C  108  1  0.23311600  0.73746300  0.31144900  1
  C  109  1  0.20251400  0.78030000  0.27793200  1
  C  110  1  0.22849800  0.78195100  0.25464700  1
  C  111  1  0.17373500  0.79928400  0.27342400  1
  C  112  1  0.16965000  0.81906700  0.24550100  1
  C  113  1  0.19423200  0.82078700  0.22108200  1
  C  114  1  0.22381900  0.80290300  0.22662700  1
  C  115  1  0.28709100  0.71640000  0.29592200  1
  C  116  1  0.28941400  0.69766400  0.32537700  1
  C  117  1  0.26199800  0.69801400  0.34669300  1
  C  118  1  0.23439800  0.71750200  0.33987500  1
  C  131  1  0.25849000  0.75960100  0.25847300  1
  C  132  1  0.20370400  0.75856300  0.30717300  1
  C  135  1  0.31328200  0.75855000  0.20977300  1
  C  142  1  0.25942200  0.27996100  0.72847000  1
  C  143  1  0.23312200  0.27951800  0.70551800  1
  C  144  1  0.20251200  0.23669000  0.73903700  1
  C  145  1  0.22849100  0.23504700  0.76232500  1
  C  146  1  0.22381600  0.21408700  0.79034300  1
  C  147  1  0.19423400  0.19619000  0.79588100  1
  C  148  1  0.16964700  0.19792200  0.77146700  1
  C  149  1  0.17373000  0.21771500  0.74354700  1
  C  150  1  0.23440600  0.29947700  0.67708600  1
  C  151  1  0.26199800  0.31897700  0.67027600  1
  C  152  1  0.28941900  0.31932400  0.69158700  1
  C  153  1  0.28710400  0.30056700  0.72103000  1
  C  154  1  0.25756500  0.27995900  0.78852200  1
  C  155  1  0.28387300  0.27952600  0.81146500  1
  C  156  1  0.31447500  0.23669300  0.77794300  1
  C  157  1  0.28848400  0.23503800  0.75466800  1
  C  158  1  0.34325100  0.21770800  0.77343800  1
  C  159  1  0.34734000  0.19793700  0.74550300  1
  C  160  1  0.32275400  0.19621300  0.72108900  1
  C  161  1  0.29316100  0.21408600  0.72664500  1
  C  162  1  0.22988700  0.30057200  0.79596000  1
  C  163  1  0.22757900  0.31933400  0.82539800  1
  C  164  1  0.25500100  0.31899000  0.84670700  1
  C  165  1  0.28258900  0.29947900  0.83989900  1
  C  178  1  0.25849200  0.25738800  0.75849600  1
  C  179  1  0.31328900  0.25843600  0.80718100  1
  C  182  1  0.20370600  0.25842600  0.70979600  1
  C  189  1  0.75905000  0.28064000  0.78858900  1
  C  190  1  0.73190500  0.28104600  0.81054500  1
  C  191  1  0.70156200  0.23862000  0.77637300  1
  C  192  1  0.72850200  0.23581000  0.75430600  1
  C  193  1  0.72464200  0.21417600  0.72671100  1
  C  194  1  0.69489700  0.19687500  0.72032700  1
  C  195  1  0.66905300  0.20026300  0.74318600  1
  C  196  1  0.67240200  0.22053000  0.77084200  1
  C  197  1  0.73265500  0.30104400  0.83895900  1
  C  198  1  0.76061000  0.31954300  0.84693500  1
  C  199  1  0.78893800  0.31882000  0.82686200  1
  C  200  1  0.78708000  0.30035300  0.79718700  1
  C  201  1  0.75792800  0.28063500  0.72839400  1
  C  202  1  0.78507800  0.28104900  0.70644300  1
  C  203  1  0.81542300  0.23862900  0.74061900  1
  C  204  1  0.78848000  0.23581100  0.76268400  1
  C  205  1  0.84458800  0.22054500  0.74615800  1
  C  206  1  0.84793700  0.20027800  0.77381200  1
  C  207  1  0.82208800  0.19688600  0.79666800  1
  C  208  1  0.79233300  0.21416100  0.79026900  1
  C  209  1  0.72989500  0.30034300  0.71979000  1
  C  210  1  0.72804000  0.31882000  0.69012400  1
  C  211  1  0.75636300  0.31953300  0.67004200  1
  C  212  1  0.78432500  0.30105100  0.67803100  1
  C  225  1  0.75849100  0.25808700  0.75849400  1
  C  226  1  0.81495600  0.26090400  0.71178900  1
  C  229  1  0.70202900  0.26089400  0.80520600  1
  C  236  1  0.75794300  0.73633400  0.28859000  1
  C  237  1  0.78510200  0.73591300  0.31052600  1
  C  238  1  0.81543300  0.77833900  0.27634200  1
  C  239  1  0.78848000  0.78116300  0.25429300  1
  C  240  1  0.79232800  0.80281200  0.22670400  1
  C  241  1  0.82207600  0.82010100  0.22030500  1
  C  242  1  0.84793200  0.81670500  0.24315200  1
  C  243  1  0.84459300  0.79643500  0.27080400  1
  C  244  1  0.78437400  0.71589600  0.33892800  1
  C  245  1  0.75640700  0.69743300  0.34693900  1
  C  246  1  0.72806400  0.69815900  0.32688200  1
  C  247  1  0.72991200  0.71662600  0.29720800  1
  C  248  1  0.75905000  0.73633100  0.22839400  1
  C  249  1  0.73188000  0.73589100  0.20646800  1
  C  250  1  0.70154200  0.77832200  0.24064100  1
  C  251  1  0.72850000  0.78115300  0.26268200  1
  C  252  1  0.67237700  0.79640000  0.24618800  1
  C  253  1  0.66904100  0.81668100  0.27383500  1
  C  254  1  0.69491100  0.82010100  0.29666200  1
  C  255  1  0.72466400  0.80282700  0.29025300  1
  C  256  1  0.78708800  0.71663900  0.21977200  1
  C  257  1  0.78892800  0.69814700  0.19011100  1
  C  258  1  0.76058000  0.69740100  0.17006400  1
  C  259  1  0.73261600  0.71587100  0.17806800  1
  C  272  1  0.75849400  0.75888500  0.25849000  1
  C  273  1  0.70199500  0.75602600  0.21182500  1
  C  276  1  0.81498100  0.75606100  0.30517000  1
  C  283  1  0.48557100  0.50983500  0.47840400  1
  C  284  1  0.48600900  0.48382500  0.45512000  1
  C  285  1  0.52815500  0.45242100  0.48876700  1
  C  286  1  0.53036400  0.47849100  0.51190700  1
  C  287  1  0.55193200  0.47397600  0.53945300  1
  C  288  1  0.56966800  0.44431700  0.54486100  1
  C  289  1  0.56673800  0.41923800  0.52109400  1
  C  290  1  0.54659300  0.42331300  0.49341700  1
  C  291  1  0.46646000  0.48572200  0.42642700  1
  C  292  1  0.44720500  0.51354300  0.41980200  1
  C  293  1  0.44653800  0.54044400  0.44172100  1
  C  294  1  0.46500300  0.53762000  0.47129400  1
  C  295  1  0.48556200  0.50717100  0.53856000  1
  C  296  1  0.48596500  0.53319100  0.56183400  1
  C  297  1  0.52810800  0.56461200  0.52819700  1
  C  298  1  0.53035200  0.53853700  0.50506700  1
  C  299  1  0.54652100  0.59373500  0.52353900  1
  C  300  1  0.56670100  0.59780200  0.49588800  1
  C  301  1  0.56969000  0.57270700  0.47215000  1
  C  302  1  0.55194400  0.54304500  0.47754300  1
  C  303  1  0.46501300  0.47937100  0.54567200  1
  C  304  1  0.44653600  0.47654400  0.57523800  1
  C  305  1  0.44717100  0.50345600  0.59714800  1
  C  306  1  0.46640500  0.53128900  0.59051700  1
  C  319  1  0.50804700  0.50850900  0.50848500  1
  C  320  1  0.50644500  0.56303500  0.55748500  1
  C  323  1  0.50651400  0.45399800  0.45946500  1
  C  330  1  0.03142200  0.50716300  0.97842800  1
  C  331  1  0.03101500  0.53318400  0.95515300  1
  C  332  1  0.98887400  0.56460500  0.98879600  1
  C  333  1  0.98663100  0.53852500  0.01192000  1
  C  334  1  0.96502600  0.54302300  0.03943800  1
  C  335  1  0.94730000  0.57269200  0.04484600  1
  C  336  1  0.95028700  0.59779200  0.02111000  1
  C  337  1  0.97045600  0.59372300  0.99345100  1
  C  338  1  0.05057200  0.53128400  0.92646800  1
  C  339  1  0.06981000  0.50345100  0.91983800  1
  C  340  1  0.07044800  0.47654200  0.94174700  1
  C  341  1  0.05197300  0.47936600  0.97131500  1
  C  342  1  0.03141500  0.50982000  0.03858000  1
  C  343  1  0.03097100  0.48381200  0.06186800  1
  C  344  1  0.98882800  0.45240900  0.02821700  1
  C  345  1  0.98662300  0.47847600  0.00507600  1
  C  346  1  0.97039700  0.42329800  0.02355600  1
  C  347  1  0.95024200  0.41923600  0.99588600  1
  C  348  1  0.94729500  0.44432600  0.97213700  1
  C  349  1  0.96505400  0.47397600  0.97753500  1
  C  350  1  0.05198400  0.53760300  0.04569200  1
  C  351  1  0.07043400  0.54043200  0.07527400  1
  C  352  1  0.06976700  0.51352800  0.09719300  1
  C  353  1  0.05051800  0.48570400  0.09056100  1
  C  366  1  0.00893600  0.50849700  0.00850200  1
  C  367  1  0.01046800  0.45398300  0.05752000  1
  C  370  1  0.01053400  0.56302800  0.95950500  1
  C  377  1  0.90775000  0.91322200  0.12538600  1
  C  378  1  0.90188400  0.91368700  0.15973900  1
  C  379  1  0.88114100  0.89047800  0.17566100  1
  C  380  1  0.86491100  0.86577700  0.15691500  1
  C  381  1  0.86976000  0.86565900  0.12216000  1
  C  383  1  0.89059600  0.88934400  0.10690900  1
  C  391  1  0.93281600  0.93294900  0.11203200  1
  C  393  1  0.84994900  0.83846900  0.17205200  1
  C  395  1  0.60924500  0.10378700  0.62537500  1
  C  396  1  0.61512000  0.10328200  0.65972600  1
  C  397  1  0.63583600  0.12650700  0.67566200  1
  C  398  1  0.65207000  0.15121700  0.65692900  1
  C  399  1  0.64722800  0.15134900  0.62217200  1
  C  401  1  0.62639400  0.12767100  0.60690800  1
  C  409  1  0.58416400  0.08407600  0.61202500  1
  C  411  1  0.66701600  0.17852200  0.67207700  1
  C  413  1  0.35168000  0.65135600  0.37273600  1
  C  414  1  0.35995200  0.64822700  0.40646900  1
  C  415  1  0.38319400  0.62491200  0.41827100  1
  C  416  1  0.39924300  0.60325700  0.39592900  1
  C  417  1  0.39035900  0.60542200  0.36194700  1
  C  419  1  0.36697400  0.62906300  0.35095400  1
  C  427  1  0.32962600  0.67609200  0.36256000  1
  C  429  1  0.42473500  0.58172100  0.40578300  1
  C  431  1  0.16530900  0.36564200  0.87276200  1
  C  432  1  0.15702000  0.36875500  0.90649300  1
  C  433  1  0.13377200  0.39206200  0.91829500  1
  C  434  1  0.11772900  0.41372500  0.89595500  1
  C  435  1  0.12662800  0.41157700  0.86197500  1
  C  437  1  0.15002400  0.38794500  0.85098300  1
  C  445  1  0.18738900  0.34092800  0.86258800  1
  C  447  1  0.09223200  0.43525500  0.90580400  1
  C  449  1  0.60924500  0.91322700  0.39161600  1
  C  450  1  0.61517700  0.91375800  0.35727500  1
  C  451  1  0.63591700  0.89055200  0.34134200  1
  C  452  1  0.65207000  0.86578200  0.36006500  1
  C  453  1  0.64715400  0.86559700  0.39481000  1
  C  455  1  0.62632700  0.88928500  0.41007400  1
  C  463  1  0.58417700  0.93294900  0.40496600  1
  C  465  1  0.66702600  0.83850600  0.34487700  1
  C  467  1  0.90774000  0.10377200  0.89161300  1
  C  468  1  0.90186200  0.10327100  0.85726100  1
  C  469  1  0.88114900  0.12650200  0.84132800  1
  C  470  1  0.86492300  0.15121500  0.86006400  1
  C  471  1  0.86976700  0.15134500  0.89481800  1
  C  473  1  0.89059600  0.12766100  0.91008200  1
  C  481  1  0.93281300  0.08405000  0.90495700  1
  C  483  1  0.84998100  0.17852400  0.84491300  1
  C  485  1  0.16529300  0.65135400  0.14423500  1
  C  486  1  0.15701800  0.64821900  0.11050400  1
  C  487  1  0.13378100  0.62489500  0.09870800  1
  C  488  1  0.11774400  0.60323900  0.12105800  1
  C  489  1  0.12663800  0.60540400  0.15503700  1
  C  491  1  0.15001600  0.62905600  0.16602300  1
  C  499  1  0.18735100  0.67608700  0.15440300  1
  C  501  1  0.09227200  0.58167700  0.11121800  1
  C  503  1  0.35169000  0.36563300  0.64422600  1
  C  504  1  0.35997900  0.36874500  0.61049500  1
  C  505  1  0.38321900  0.39205700  0.59869000  1
  C  506  1  0.39925600  0.41372700  0.62102800  1
  C  507  1  0.39035700  0.41157700  0.65501000  1
  C  509  1  0.36696900  0.38794000  0.66600200  1
  C  517  1  0.32961600  0.34091400  0.65440000  1
  C  519  1  0.42474200  0.43527200  0.61118100  1
  C  521  1  0.11693600  0.10226700  0.90004200  1
  C  522  1  0.11694400  0.10096300  0.86520600  1
  C  523  1  0.13358000  0.12457800  0.84539500  1
  C  524  1  0.15182200  0.15043000  0.86035900  1
  C  525  1  0.15250200  0.15197600  0.89531000  1
  C  527  1  0.13568800  0.12793600  0.91441000  1
  C  535  1  0.09921800  0.07885500  0.91881400  1
  C  537  1  0.16286000  0.17749000  0.84194600  1
  C  539  1  0.40004000  0.91466300  0.40002800  1
  C  540  1  0.39996900  0.91603900  0.36519700  1
  C  541  1  0.38333500  0.89242900  0.34538200  1
  C  542  1  0.36514100  0.86653900  0.36033800  1
  C  543  1  0.36451800  0.86493500  0.39528700  1
  C  545  1  0.38135400  0.88895100  0.41439400  1
  C  553  1  0.41784600  0.93796300  0.41882800  1
  C  555  1  0.35411100  0.83949000  0.34191000  1
  C  557  1  0.66666667  0.36028900  0.63766200  1
  C  558  1  0.66636200  0.36621100  0.60330600  1
  C  559  1  0.64205400  0.38593800  0.58775600  1
  C  560  1  0.61704700  0.40116700  0.60691000  1
  C  561  1  0.61761300  0.39627900  0.64164300  1
  C  563  1  0.64235100  0.37638200  0.65650100  1
  C  571  1  0.68851200  0.33672600  0.65060800  1
  C  573  1  0.58916400  0.41528200  0.59206000  1
  C  575  1  0.85028900  0.65672200  0.13760100  1
  C  576  1  0.85060600  0.65073600  0.10325700  1
  C  577  1  0.87490700  0.63099200  0.08772600  1
  C  578  1  0.89994100  0.61581900  0.10688500  1
  C  579  1  0.89939200  0.62075200  0.14161700  1
  C  581  1  0.87463900  0.64064400  0.15646000  1
  C  589  1  0.82839200  0.68020600  0.15054200  1
  C  591  1  0.92784800  0.60168900  0.09208100  1
  C  593  1  0.40007200  0.10229100  0.61694600  1
  C  594  1  0.40009900  0.10102300  0.65178400  1
  C  595  1  0.38346000  0.12464200  0.67158200  1
  C  596  1  0.36518500  0.15046300  0.65660900  1
  C  597  1  0.36446400  0.15197200  0.62166000  1
  C  599  1  0.38128300  0.12792700  0.60256800  1
  C  607  1  0.41779200  0.07887500  0.59818100  1
  C  609  1  0.35412100  0.17751700  0.67501500  1
  C  611  1  0.11692200  0.91471500  0.11693600  1
  C  612  1  0.11690300  0.91599700  0.15177300  1
  C  613  1  0.13352400  0.89236800  0.17157500  1
  C  614  1  0.15180100  0.86654200  0.15660700  1
  C  615  1  0.15252500  0.86503100  0.12165600  1
  C  617  1  0.13570900  0.88907400  0.10256200  1
  C  625  1  0.09920000  0.93812800  0.09816600  1
  C  627  1  0.16285600  0.83948800  0.17501400  1
  C  629  1  0.85027200  0.36027400  0.87932300  1
  C  630  1  0.85055900  0.36625500  0.91366700  1
  C  631  1  0.87485800  0.38598900  0.92922100  1
  C  632  1  0.89991600  0.40115200  0.91008500  1
  C  633  1  0.89940000  0.39621200  0.87535700  1
  C  635  1  0.87466600  0.37631800  0.86049200  1
  C  643  1  0.82846100  0.33671600  0.86637900  1
  C  645  1  0.92776000  0.41528700  0.92498000  1
  C  647  1  0.66666667  0.65673400  0.37939300  1
  C  648  1  0.66638600  0.65075100  0.41373700  1
  C  649  1  0.64208800  0.63100400  0.42926900  1
  C  650  1  0.61705700  0.61582900  0.41011100  1
  C  651  1  0.61760500  0.62075700  0.37537800  1
  C  653  1  0.64235600  0.64065400  0.36053500  1
  C  661  1  0.68859800  0.68022100  0.36645200  1
  C  663  1  0.58914900  0.60169400  0.42491400  1
  C  665  1  0.98883800  0.01066000  0.32284500  1
  C  666  1  0.98938600  0.98530700  0.29883500  1
  C  667  1  0.03279000  0.95389300  0.33055600  1
  C  668  1  0.03380100  0.97832700  0.35553200  1
  C  669  1  0.05428400  0.97179000  0.38362900  1
  C  670  1  0.07295200  0.94228100  0.38683000  1
  C  671  1  0.07197000  0.91961100  0.36071900  1
  C  672  1  0.05231300  0.92527200  0.33306300  1
  C  673  1  0.96941100  0.98741300  0.27048200  1
  C  674  1  0.95005500  0.01523500  0.26448400  1
  C  675  1  0.95004800  0.04210100  0.28646400  1
  C  676  1  0.96847800  0.03873000  0.31607000  1
  C  677  1  0.98882500  0.00633100  0.38302100  1
  C  678  1  0.98937600  0.03168300  0.40703100  1
  C  679  1  0.03278700  0.06309400  0.37531100  1
  C  680  1  0.03381200  0.03865300  0.35034200  1
  C  681  1  0.05228000  0.09173400  0.37279000  1
  C  682  1  0.07194600  0.09739200  0.34513800  1
  C  683  1  0.07294400  0.07471400  0.31903400  1
  C  684  1  0.05428900  0.04519600  0.32224500  1
  C  685  1  0.96846100  0.97826300  0.38979400  1
  C  686  1  0.95003300  0.97489500  0.41940200  1
  C  687  1  0.95003300  0.00176700  0.44137500  1
  C  688  1  0.96938600  0.02958900  0.43537400  1
  C  701  1  0.01138200  0.00849300  0.35293800  1
  C  702  1  0.01100300  0.06080000  0.40437300  1
  C  705  1  0.01101600  0.95619400  0.30149000  1
  C  712  1  0.52816000  0.00633100  0.82287100  1
  C  713  1  0.52762600  0.03169100  0.79886600  1
  C  714  1  0.48421100  0.06310300  0.83057900  1
  C  715  1  0.48319200  0.03866400  0.85554900  1
  C  716  1  0.46271000  0.04520700  0.88364600  1
  C  717  1  0.44404300  0.07471800  0.88684500  1
  C  718  1  0.44502000  0.09738300  0.86073100  1
  C  719  1  0.46469800  0.09173000  0.83308600  1
  C  720  1  0.54760900  0.02958900  0.77052000  1
  C  721  1  0.56695400  0.00176400  0.76451700  1
  C  722  1  0.56694700  0.97489000  0.78648800  1
  C  723  1  0.54851200  0.97825800  0.81609000  1
  C  724  1  0.52816700  0.01066700  0.88304400  1
  C  725  1  0.52759600  0.98533400  0.90707900  1
  C  726  1  0.48418900  0.95392100  0.87536700  1
  C  727  1  0.48318500  0.97834400  0.85038000  1
  C  728  1  0.46466600  0.92529700  0.87287000  1
  C  729  1  0.44501300  0.91962600  0.84521600  1
  C  730  1  0.44405600  0.94227600  0.81908500  1
  C  731  1  0.46271700  0.97179000  0.82227600  1
  C  732  1  0.54851700  0.03874100  0.88982700  1
  C  733  1  0.56695900  0.04211200  0.91942400  1
  C  734  1  0.56695900  0.01524700  0.94140500  1
  C  735  1  0.54757400  0.98744000  0.93542900  1
  C  748  1  0.50561600  0.00850100  0.85296100  1
  C  749  1  0.50595000  0.95623300  0.90444100  1
  C  752  1  0.50600500  0.06081200  0.80152500  1
  C  759  1  0.25756000  0.73703000  0.57289300  1
  C  760  1  0.28386300  0.73746300  0.54994300  1
  C  761  1  0.31447200  0.78029200  0.58346000  1
  C  762  1  0.28849100  0.78193800  0.60674600  1
  C  763  1  0.29316400  0.80290000  0.63475900  1
  C  764  1  0.32274400  0.82079900  0.64029200  1
  C  765  1  0.34733000  0.81907000  0.61588100  1
  C  766  1  0.34325600  0.79926600  0.58796800  1
  C  767  1  0.28256900  0.71751000  0.52151200  1
  C  768  1  0.25497900  0.69800200  0.51471100  1
  C  769  1  0.22756200  0.69766400  0.53602500  1
  C  770  1  0.22988500  0.71640700  0.56547400  1
  C  771  1  0.25942000  0.73702700  0.63294600  1
  C  772  1  0.23311600  0.73746300  0.65589600  1
  C  773  1  0.20251400  0.78030000  0.62237900  1
  C  774  1  0.22849800  0.78195100  0.59909400  1
  C  775  1  0.17373500  0.79928400  0.61787100  1
  C  776  1  0.16965000  0.81906700  0.58994800  1
  C  777  1  0.19423200  0.82078700  0.56552900  1
  C  778  1  0.22381900  0.80290300  0.57107400  1
  C  779  1  0.28709100  0.71640000  0.64036900  1
  C  780  1  0.28941400  0.69766400  0.66982400  1
  C  781  1  0.26199800  0.69801400  0.69114000  1
  C  782  1  0.23439800  0.71750200  0.68432200  1
  C  795  1  0.25849000  0.75960100  0.60292000  1
  C  796  1  0.20370400  0.75856300  0.65162000  1
  C  799  1  0.31328200  0.75855000  0.55422000  1
  C  806  1  0.25942200  0.27996100  0.07291670  1
  C  807  1  0.23312200  0.27951800  0.04996470  1
  C  808  1  0.20251200  0.23669000  0.08348370  1
  C  809  1  0.22849100  0.23504700  0.10677200  1
  C  810  1  0.22381600  0.21408700  0.13479000  1
  C  811  1  0.19423400  0.19619000  0.14032800  1
  C  812  1  0.16964700  0.19792200  0.11591400  1
  C  813  1  0.17373000  0.21771500  0.08799370  1
  C  814  1  0.23440600  0.29947700  0.02153270  1
  C  815  1  0.26199800  0.31897700  0.01472270  1
  C  816  1  0.28941900  0.31932400  0.03603370  1
  C  817  1  0.28710400  0.30056700  0.06547670  1
  C  818  1  0.25756500  0.27995900  0.13296900  1
  C  819  1  0.28387300  0.27952600  0.15591200  1
  C  820  1  0.31447500  0.23669300  0.12239000  1
  C  821  1  0.28848400  0.23503800  0.09911470  1
  C  822  1  0.34325100  0.21770800  0.11788500  1
  C  823  1  0.34734000  0.19793700  0.08994970  1
  C  824  1  0.32275400  0.19621300  0.06553570  1
  C  825  1  0.29316100  0.21408600  0.07109170  1
  C  826  1  0.22988700  0.30057200  0.14040700  1
  C  827  1  0.22757900  0.31933400  0.16984500  1
  C  828  1  0.25500100  0.31899000  0.19115400  1
  C  829  1  0.28258900  0.29947900  0.18434600  1
  C  842  1  0.25849200  0.25738800  0.10294300  1
  C  843  1  0.31328900  0.25843600  0.15162800  1
  C  846  1  0.20370600  0.25842600  0.05424270  1
  C  853  1  0.75905000  0.28064000  0.13303600  1
  C  854  1  0.73190500  0.28104600  0.15499200  1
  C  855  1  0.70156200  0.23862000  0.12082000  1
  C  856  1  0.72850200  0.23581000  0.09875270  1
  C  857  1  0.72464200  0.21417600  0.07115770  1
  C  858  1  0.69489700  0.19687500  0.06477370  1
  C  859  1  0.66905300  0.20026300  0.08763270  1
  C  860  1  0.67240200  0.22053000  0.11528900  1
  C  861  1  0.73265500  0.30104400  0.18340600  1
  C  862  1  0.76061000  0.31954300  0.19138200  1
  C  863  1  0.78893800  0.31882000  0.17130900  1
  C  864  1  0.78708000  0.30035300  0.14163400  1
  C  865  1  0.75792800  0.28063500  0.07284070  1
  C  866  1  0.78507800  0.28104900  0.05088970  1
  C  867  1  0.81542300  0.23862900  0.08506570  1
  C  868  1  0.78848000  0.23581100  0.10713100  1
  C  869  1  0.84458800  0.22054500  0.09060470  1
  C  870  1  0.84793700  0.20027800  0.11825900  1
  C  871  1  0.82208800  0.19688600  0.14111500  1
  C  872  1  0.79233300  0.21416100  0.13471600  1
  C  873  1  0.72989500  0.30034300  0.06423670  1
  C  874  1  0.72804000  0.31882000  0.03457070  1
  C  875  1  0.75636300  0.31953300  0.01448870  1
  C  876  1  0.78432500  0.30105100  0.02247770  1
  C  889  1  0.75849100  0.25808700  0.10294100  1
  C  890  1  0.81495600  0.26090400  0.05623570  1
  C  893  1  0.70202900  0.26089400  0.14965300  1
  C  900  1  0.75794300  0.73633400  0.63303700  1
  C  901  1  0.78510200  0.73591300  0.65497300  1
  C  902  1  0.81543300  0.77833900  0.62078900  1
  C  903  1  0.78848000  0.78116300  0.59874000  1
  C  904  1  0.79232800  0.80281200  0.57115100  1
  C  905  1  0.82207600  0.82010100  0.56475200  1
  C  906  1  0.84793200  0.81670500  0.58759900  1
  C  907  1  0.84459300  0.79643500  0.61525100  1
  C  908  1  0.78437400  0.71589600  0.68337500  1
  C  909  1  0.75640700  0.69743300  0.69138600  1
  C  910  1  0.72806400  0.69815900  0.67132900  1
  C  911  1  0.72991200  0.71662600  0.64165500  1
  C  912  1  0.75905000  0.73633100  0.57284100  1
  C  913  1  0.73188000  0.73589100  0.55091500  1
  C  914  1  0.70154200  0.77832200  0.58508800  1
  C  915  1  0.72850000  0.78115300  0.60712900  1
  C  916  1  0.67237700  0.79640000  0.59063500  1
  C  917  1  0.66904100  0.81668100  0.61828200  1
  C  918  1  0.69491100  0.82010100  0.64110900  1
  C  919  1  0.72466400  0.80282700  0.63470000  1
  C  920  1  0.78708800  0.71663900  0.56421900  1
  C  921  1  0.78892800  0.69814700  0.53455800  1
  C  922  1  0.76058000  0.69740100  0.51451100  1
  C  923  1  0.73261600  0.71587100  0.52251500  1
  C  936  1  0.75849400  0.75888500  0.60293700  1
  C  937  1  0.70199500  0.75602600  0.55627200  1
  C  940  1  0.81498100  0.75606100  0.64961700  1
  C  947  1  0.48557100  0.50983500  0.82285100  1
  C  948  1  0.48600900  0.48382500  0.79956700  1
  C  949  1  0.52815500  0.45242100  0.83321400  1
  C  950  1  0.53036400  0.47849100  0.85635400  1
  C  951  1  0.55193200  0.47397600  0.88390000  1
  C  952  1  0.56966800  0.44431700  0.88930800  1
  C  953  1  0.56673800  0.41923800  0.86554100  1
  C  954  1  0.54659300  0.42331300  0.83786400  1
  C  955  1  0.46646000  0.48572200  0.77087400  1
  C  956  1  0.44720500  0.51354300  0.76424900  1
  C  957  1  0.44653800  0.54044400  0.78616800  1
  C  958  1  0.46500300  0.53762000  0.81574100  1
  C  959  1  0.48556200  0.50717100  0.88300700  1
  C  960  1  0.48596500  0.53319100  0.90628100  1
  C  961  1  0.52810800  0.56461200  0.87264400  1
  C  962  1  0.53035200  0.53853700  0.84951400  1
  C  963  1  0.54652100  0.59373500  0.86798600  1
  C  964  1  0.56670100  0.59780200  0.84033500  1
  C  965  1  0.56969000  0.57270700  0.81659700  1
  C  966  1  0.55194400  0.54304500  0.82199000  1
  C  967  1  0.46501300  0.47937100  0.89011900  1
  C  968  1  0.44653600  0.47654400  0.91968500  1
  C  969  1  0.44717100  0.50345600  0.94159500  1
  C  970  1  0.46640500  0.53128900  0.93496400  1
  C  983  1  0.50804700  0.50850900  0.85293200  1
  C  984  1  0.50644500  0.56303500  0.90193200  1
  C  987  1  0.50651400  0.45399800  0.80391200  1
  C  994  1  0.03142200  0.50716300  0.32287500  1
  C  995  1  0.03101500  0.53318400  0.29960000  1
  C  996  1  0.98887400  0.56460500  0.33324300  1
  C  997  1  0.98663100  0.53852500  0.35636700  1
  C  998  1  0.96502600  0.54302300  0.38388500  1
  C  999  1  0.94730000  0.57269200  0.38929300  1
  C  1000  1  0.95028700  0.59779200  0.36555700  1
  C  1001  1  0.97045600  0.59372300  0.33789800  1
  C  1002  1  0.05057200  0.53128400  0.27091500  1
  C  1003  1  0.06981000  0.50345100  0.26428500  1
  C  1004  1  0.07044800  0.47654200  0.28619400  1
  C  1005  1  0.05197300  0.47936600  0.31576200  1
  C  1006  1  0.03141500  0.50982000  0.38302700  1
  C  1007  1  0.03097100  0.48381200  0.40631500  1
  C  1008  1  0.98882800  0.45240900  0.37266400  1
  C  1009  1  0.98662300  0.47847600  0.34952300  1
  C  1010  1  0.97039700  0.42329800  0.36800300  1
  C  1011  1  0.95024200  0.41923600  0.34033300  1
  C  1012  1  0.94729500  0.44432600  0.31658400  1
  C  1013  1  0.96505400  0.47397600  0.32198200  1
  C  1014  1  0.05198400  0.53760300  0.39013900  1
  C  1015  1  0.07043400  0.54043200  0.41972100  1
  C  1016  1  0.06976700  0.51352800  0.44164000  1
  C  1017  1  0.05051800  0.48570400  0.43500800  1
  C  1030  1  0.00893600  0.50849700  0.35294900  1
  C  1031  1  0.01046800  0.45398300  0.40196700  1
  C  1034  1  0.01053400  0.56302800  0.30395200  1
  C  1041  1  0.90775000  0.91322200  0.46983300  1
  C  1042  1  0.90188400  0.91368700  0.50418600  1
  C  1043  1  0.88114100  0.89047800  0.52010800  1
  C  1044  1  0.86491100  0.86577700  0.50136200  1
  C  1045  1  0.86976000  0.86565900  0.46660700  1
  C  1047  1  0.89059600  0.88934400  0.45135600  1
  C  1055  1  0.93281600  0.93294900  0.45647900  1
  C  1057  1  0.84994900  0.83846900  0.51649900  1
  C  1059  1  0.60924500  0.10378700  0.96982200  1
  C  1060  1  0.61512000  0.10328200  0.00417266  1
  C  1061  1  0.63583600  0.12650700  0.02010870  1
  C  1062  1  0.65207000  0.15121700  0.00137566  1
  C  1063  1  0.64722800  0.15134900  0.96661900  1
  C  1065  1  0.62639400  0.12767100  0.95135500  1
  C  1073  1  0.58416400  0.08407600  0.95647200  1
  C  1075  1  0.66701600  0.17852200  0.01652370  1
  C  1077  1  0.35168000  0.65135600  0.71718300  1
  C  1078  1  0.35995200  0.64822700  0.75091600  1
  C  1079  1  0.38319400  0.62491200  0.76271800  1
  C  1080  1  0.39924300  0.60325700  0.74037600  1
  C  1081  1  0.39035900  0.60542200  0.70639400  1
  C  1083  1  0.36697400  0.62906300  0.69540100  1
  C  1091  1  0.32962600  0.67609200  0.70700700  1
  C  1093  1  0.42473500  0.58172100  0.75023000  1
  C  1095  1  0.16530900  0.36564200  0.21720900  1
  C  1096  1  0.15702000  0.36875500  0.25094000  1
  C  1097  1  0.13377200  0.39206200  0.26274200  1
  C  1098  1  0.11772900  0.41372500  0.24040200  1
  C  1099  1  0.12662800  0.41157700  0.20642200  1
  C  1101  1  0.15002400  0.38794500  0.19543000  1
  C  1109  1  0.18738900  0.34092800  0.20703500  1
  C  1111  1  0.09223200  0.43525500  0.25025100  1
  C  1113  1  0.60924500  0.91322700  0.73606300  1
  C  1114  1  0.61517700  0.91375800  0.70172200  1
  C  1115  1  0.63591700  0.89055200  0.68578900  1
  C  1116  1  0.65207000  0.86578200  0.70451200  1
  C  1117  1  0.64715400  0.86559700  0.73925700  1
  C  1119  1  0.62632700  0.88928500  0.75452100  1
  C  1127  1  0.58417700  0.93294900  0.74941300  1
  C  1129  1  0.66702600  0.83850600  0.68932400  1
  C  1131  1  0.90774000  0.10377200  0.23606000  1
  C  1132  1  0.90186200  0.10327100  0.20170800  1
  C  1133  1  0.88114900  0.12650200  0.18577500  1
  C  1134  1  0.86492300  0.15121500  0.20451100  1
  C  1135  1  0.86976700  0.15134500  0.23926500  1
  C  1137  1  0.89059600  0.12766100  0.25452900  1
  C  1145  1  0.93281300  0.08405000  0.24940400  1
  C  1147  1  0.84998100  0.17852400  0.18936000  1
  C  1149  1  0.16529300  0.65135400  0.48868200  1
  C  1150  1  0.15701800  0.64821900  0.45495100  1
  C  1151  1  0.13378100  0.62489500  0.44315500  1
  C  1152  1  0.11774400  0.60323900  0.46550500  1
  C  1153  1  0.12663800  0.60540400  0.49948400  1
  C  1155  1  0.15001600  0.62905600  0.51047000  1
  C  1163  1  0.18735100  0.67608700  0.49885000  1
  C  1165  1  0.09227200  0.58167700  0.45566500  1
  C  1167  1  0.35169000  0.36563300  0.98867300  1
  C  1168  1  0.35997900  0.36874500  0.95494200  1
  C  1169  1  0.38321900  0.39205700  0.94313700  1
  C  1170  1  0.39925600  0.41372700  0.96547500  1
  C  1171  1  0.39035700  0.41157700  0.99945700  1
  C  1173  1  0.36696900  0.38794000  0.01044870  1
  C  1181  1  0.32961600  0.34091400  0.99884700  1
  C  1183  1  0.42474200  0.43527200  0.95562800  1
  C  1185  1  0.11693600  0.10226700  0.24448900  1
  C  1186  1  0.11694400  0.10096300  0.20965300  1
  C  1187  1  0.13358000  0.12457800  0.18984200  1
  C  1188  1  0.15182200  0.15043000  0.20480600  1
  C  1189  1  0.15250200  0.15197600  0.23975700  1
  C  1191  1  0.13568800  0.12793600  0.25885700  1
  C  1199  1  0.09921800  0.07885500  0.26326100  1
  C  1201  1  0.16286000  0.17749000  0.18639300  1
  C  1203  1  0.40004000  0.91466300  0.74447500  1
  C  1204  1  0.39996900  0.91603900  0.70964400  1
  C  1205  1  0.38333500  0.89242900  0.68982900  1
  C  1206  1  0.36514100  0.86653900  0.70478500  1
  C  1207  1  0.36451800  0.86493500  0.73973400  1
  C  1209  1  0.38135400  0.88895100  0.75884100  1
  C  1217  1  0.41784600  0.93796300  0.76327500  1
  C  1219  1  0.35411100  0.83949000  0.68635700  1
  C  1221  1  0.66666667  0.36028900  0.98210900  1
  C  1222  1  0.66636200  0.36621100  0.94775300  1
  C  1223  1  0.64205400  0.38593800  0.93220300  1
  C  1224  1  0.61704700  0.40116700  0.95135700  1
  C  1225  1  0.61761300  0.39627900  0.98609000  1
  C  1227  1  0.64235100  0.37638200  0.00094766  1
  C  1235  1  0.68851200  0.33672600  0.99505500  1
  C  1237  1  0.58916400  0.41528200  0.93650700  1
  C  1239  1  0.85028900  0.65672200  0.48204800  1
  C  1240  1  0.85060600  0.65073600  0.44770400  1
  C  1241  1  0.87490700  0.63099200  0.43217300  1
  C  1242  1  0.89994100  0.61581900  0.45133200  1
  C  1243  1  0.89939200  0.62075200  0.48606400  1
  C  1245  1  0.87463900  0.64064400  0.50090700  1
  C  1253  1  0.82839200  0.68020600  0.49498900  1
  C  1255  1  0.92784800  0.60168900  0.43652800  1
  C  1257  1  0.40007200  0.10229100  0.96139300  1
  C  1258  1  0.40009900  0.10102300  0.99623100  1
  C  1259  1  0.38346000  0.12464200  0.01602870  1
  C  1260  1  0.36518500  0.15046300  0.00105566  1
  C  1261  1  0.36446400  0.15197200  0.96610700  1
  C  1263  1  0.38128300  0.12792700  0.94701500  1
  C  1271  1  0.41779200  0.07887500  0.94262800  1
  C  1273  1  0.35412100  0.17751700  0.01946170  1
  C  1275  1  0.11692200  0.91471500  0.46138300  1
  C  1276  1  0.11690300  0.91599700  0.49622000  1
  C  1277  1  0.13352400  0.89236800  0.51602200  1
  C  1278  1  0.15180100  0.86654200  0.50105400  1
  C  1279  1  0.15252500  0.86503100  0.46610300  1
  C  1281  1  0.13570900  0.88907400  0.44700900  1
  C  1289  1  0.09920000  0.93812800  0.44261300  1
  C  1291  1  0.16285600  0.83948800  0.51946100  1
  C  1293  1  0.85027200  0.36027400  0.22377000  1
  C  1294  1  0.85055900  0.36625500  0.25811400  1
  C  1295  1  0.87485800  0.38598900  0.27366800  1
  C  1296  1  0.89991600  0.40115200  0.25453200  1
  C  1297  1  0.89940000  0.39621200  0.21980400  1
  C  1299  1  0.87466600  0.37631800  0.20493900  1
  C  1307  1  0.82846100  0.33671600  0.21082600  1
  C  1309  1  0.92776000  0.41528700  0.26942700  1
  C  1311  1  0.66666667  0.65673400  0.72384000  1
  C  1312  1  0.66638600  0.65075100  0.75818400  1
  C  1313  1  0.64208800  0.63100400  0.77371600  1
  C  1314  1  0.61705700  0.61582900  0.75455800  1
  C  1315  1  0.61760500  0.62075700  0.71982500  1
  C  1317  1  0.64235600  0.64065400  0.70498200  1
  C  1325  1  0.68859800  0.68022100  0.71089900  1
  C  1327  1  0.58914900  0.60169400  0.76936100  1
  N  44  1  0.09174900  0.08468900  0.94938400  1
  N  45  1  0.93322200  0.06973900  0.93407100  1
  N  46  1  0.09174600  0.93229900  0.06759200  1
  N  47  1  0.93322200  0.94724800  0.08291400  1
  N  91  1  0.42529300  0.93227000  0.44942200  1
  N  92  1  0.58376600  0.94724800  0.43408400  1
  N  93  1  0.42524900  0.08470100  0.56760600  1
  N  94  1  0.58377300  0.06975500  0.58292200  1
  N  138  1  0.18915100  0.83924200  0.19389200  1
  N  139  1  0.20040000  0.68001700  0.18383200  1
  N  140  1  0.32782000  0.83927600  0.32302200  1
  N  141  1  0.31657600  0.68001700  0.33312900  1
  N  185  1  0.32783200  0.17775600  0.69390000  1
  N  186  1  0.31658100  0.33697500  0.68383500  1
  N  187  1  0.18915200  0.17771200  0.82305800  1
  N  188  1  0.20042100  0.33698900  0.83315300  1
  N  232  1  0.82622700  0.17715900  0.82302600  1
  N  233  1  0.81652600  0.33501400  0.83626700  1
  N  234  1  0.69076300  0.17714600  0.69397200  1
  N  235  1  0.70045500  0.33502600  0.68071800  1
  N  279  1  0.69079000  0.83986700  0.32299000  1
  N  280  1  0.70047200  0.68197700  0.33631500  1
  N  281  1  0.82620500  0.83983700  0.19395300  1
  N  282  1  0.81652300  0.68196500  0.18068000  1
  N  326  1  0.58963900  0.57720900  0.44601900  1
  N  327  1  0.42847700  0.56743200  0.43462300  1
  N  328  1  0.58957700  0.43981700  0.57102100  1
  N  329  1  0.42848700  0.44955000  0.58233600  1
  N  373  1  0.92736900  0.43984400  0.94599100  1
  N  374  1  0.08849700  0.44954700  0.93464600  1
  N  375  1  0.92736100  0.57719700  0.07098400  1
  N  376  1  0.08849400  0.56741900  0.08237000  1
  N  385  1  0.87795800  0.89067500  0.21038300  1
  N  386  1  0.85434100  0.84089000  0.10304900  1
  N  403  1  0.63899800  0.12631000  0.71038400  1
  N  404  1  0.66263900  0.17613400  0.60307700  1
  N  421  1  0.39105500  0.62374100  0.45221700  1
  N  422  1  0.40510100  0.58375800  0.33886400  1
  N  439  1  0.12589200  0.39321800  0.95223500  1
  N  440  1  0.11189000  0.43324500  0.83889500  1
  N  457  1  0.63916300  0.89081800  0.30662400  1
  N  458  1  0.66251100  0.84077500  0.41389900  1
  N  475  1  0.87798500  0.12630700  0.80660600  1
  N  476  1  0.85436100  0.17613300  0.91391600  1
  N  493  1  0.12591500  0.62371400  0.06476500  1
  N  494  1  0.11191100  0.58373400  0.17812300  1
  N  511  1  0.39110000  0.39321500  0.56475000  1
  N  512  1  0.40508900  0.43325200  0.67808800  1
  N  529  1  0.13159900  0.12319900  0.81061800  1
  N  530  1  0.16971800  0.17811000  0.91072900  1
  N  547  1  0.38528600  0.89384400  0.31060500  1
  N  548  1  0.34735200  0.83876000  0.41069600  1
  N  565  1  0.64161300  0.38918800  0.55304400  1
  N  566  1  0.59258600  0.41080900  0.66110100  1
  N  583  1  0.87532000  0.62767300  0.05301700  1
  N  584  1  0.92441900  0.60624300  0.16109500  1
  N  601  1  0.38547000  0.12329900  0.70636200  1
  N  602  1  0.34720700  0.17807400  0.60622900  1
  N  619  1  0.13150300  0.89370600  0.20635200  1
  N  620  1  0.16977700  0.83892500  0.10623100  1
  N  637  1  0.87524600  0.38929400  0.96393200  1
  N  638  1  0.92446100  0.41070600  0.85591300  1
  N  655  1  0.64167200  0.62768800  0.46397700  1
  N  656  1  0.59258100  0.60624600  0.35590000  1
  N  708  1  0.09174900  0.08468900  0.29383100  1
  N  709  1  0.93322200  0.06973900  0.27851800  1
  N  710  1  0.09174600  0.93229900  0.41203900  1
  N  711  1  0.93322200  0.94724800  0.42736100  1
  N  755  1  0.42529300  0.93227000  0.79386900  1
  N  756  1  0.58376600  0.94724800  0.77853100  1
  N  757  1  0.42524900  0.08470100  0.91205300  1
  N  758  1  0.58377300  0.06975500  0.92736900  1
  N  802  1  0.18915100  0.83924200  0.53833900  1
  N  803  1  0.20040000  0.68001700  0.52827900  1
  N  804  1  0.32782000  0.83927600  0.66746900  1
  N  805  1  0.31657600  0.68001700  0.67757600  1
  N  849  1  0.32783200  0.17775600  0.03834670  1
  N  850  1  0.31658100  0.33697500  0.02828170  1
  N  851  1  0.18915200  0.17771200  0.16750500  1
  N  852  1  0.20042100  0.33698900  0.17760000  1
  N  896  1  0.82622700  0.17715900  0.16747300  1
  N  897  1  0.81652600  0.33501400  0.18071400  1
  N  898  1  0.69076300  0.17714600  0.03841870  1
  N  899  1  0.70045500  0.33502600  0.02516470  1
  N  943  1  0.69079000  0.83986700  0.66743700  1
  N  944  1  0.70047200  0.68197700  0.68076200  1
  N  945  1  0.82620500  0.83983700  0.53840000  1
  N  946  1  0.81652300  0.68196500  0.52512700  1
  N  990  1  0.58963900  0.57720900  0.79046600  1
  N  991  1  0.42847700  0.56743200  0.77907000  1
  N  992  1  0.58957700  0.43981700  0.91546800  1
  N  993  1  0.42848700  0.44955000  0.92678300  1
  N  1037  1  0.92736900  0.43984400  0.29043800  1
  N  1038  1  0.08849700  0.44954700  0.27909300  1
  N  1039  1  0.92736100  0.57719700  0.41543100  1
  N  1040  1  0.08849400  0.56741900  0.42681700  1
  N  1049  1  0.87795800  0.89067500  0.55483000  1
  N  1050  1  0.85434100  0.84089000  0.44749600  1
  N  1067  1  0.63899800  0.12631000  0.05483070  1
  N  1068  1  0.66263900  0.17613400  0.94752400  1
  N  1085  1  0.39105500  0.62374100  0.79666400  1
  N  1086  1  0.40510100  0.58375800  0.68331100  1
  N  1103  1  0.12589200  0.39321800  0.29668200  1
  N  1104  1  0.11189000  0.43324500  0.18334200  1
  N  1121  1  0.63916300  0.89081800  0.65107100  1
  N  1122  1  0.66251100  0.84077500  0.75834600  1
  N  1139  1  0.87798500  0.12630700  0.15105300  1
  N  1140  1  0.85436100  0.17613300  0.25836300  1
  N  1157  1  0.12591500  0.62371400  0.40921200  1
  N  1158  1  0.11191100  0.58373400  0.52257000  1
  N  1175  1  0.39110000  0.39321500  0.90919700  1
  N  1176  1  0.40508900  0.43325200  0.02253470  1
  N  1193  1  0.13159900  0.12319900  0.15506500  1
  N  1194  1  0.16971800  0.17811000  0.25517600  1
  N  1211  1  0.38528600  0.89384400  0.65505200  1
  N  1212  1  0.34735200  0.83876000  0.75514300  1
  N  1229  1  0.64161300  0.38918800  0.89749100  1
  N  1230  1  0.59258600  0.41080900  0.00554766  1
  N  1247  1  0.87532000  0.62767300  0.39746400  1
  N  1248  1  0.92441900  0.60624300  0.50554200  1
  N  1265  1  0.38547000  0.12329900  0.05080870  1
  N  1266  1  0.34720700  0.17807400  0.95067600  1
  N  1283  1  0.13150300  0.89370600  0.55079900  1
  N  1284  1  0.16977700  0.83892500  0.45067800  1
  N  1301  1  0.87524600  0.38929400  0.30837900  1
  N  1302  1  0.92446100  0.41070600  0.20036000  1
  N  1319  1  0.64167200  0.62768800  0.80842400  1
  N  1320  1  0.59258100  0.60624600  0.70034700  1
  O  387  1  0.90521600  0.88651200  0.22441600  1
  O  388  1  0.83515300  0.85310800  0.08211900  1
  O  389  1  0.86558200  0.91713600  0.22049000  1
  O  390  1  0.87505900  0.82314200  0.08849200  1
  O  405  1  0.61173200  0.13046300  0.72440300  1
  O  406  1  0.68183000  0.16393200  0.58213700  1
  O  407  1  0.65137800  0.09985300  0.72049900  1
  O  408  1  0.64191800  0.19388700  0.58852900  1
  O  423  1  0.36629000  0.61678300  0.46938000  1
  O  424  1  0.38410000  0.56594600  0.32478900  1
  O  425  1  0.40296600  0.65047300  0.46218600  1
  O  426  1  0.42119700  0.59912100  0.31738500  1
  O  441  1  0.15064900  0.40016800  0.96941600  1
  O  442  1  0.13289300  0.45107000  0.82483700  1
  O  443  1  0.11398300  0.36647700  0.96218700  1
  O  444  1  0.09581000  0.41788800  0.81740200  1
  O  459  1  0.61192400  0.88671700  0.29253400  1
  O  460  1  0.68168700  0.85293100  0.43487900  1
  O  461  1  0.65158700  0.91728400  0.29659300  1
  O  462  1  0.64175100  0.82302600  0.42839600  1
  O  477  1  0.90525000  0.13045700  0.79258400  1
  O  478  1  0.83517000  0.16393500  0.93485500  1
  O  479  1  0.86559900  0.09985300  0.79648900  1
  O  480  1  0.87508700  0.19388100  0.92846100  1
  O  495  1  0.15068100  0.61676400  0.04759900  1
  O  496  1  0.13292400  0.56593100  0.19218900  1
  O  497  1  0.11399500  0.65044100  0.05479100  1
  O  498  1  0.09581800  0.59908900  0.19960800  1
  O  513  1  0.36634100  0.40016100  0.54756900  1
  O  514  1  0.38408300  0.45107000  0.69214400  1
  O  515  1  0.40301500  0.36647900  0.55479800  1
  O  516  1  0.42117500  0.41790000  0.69958100  1
  O  531  1  0.10243400  0.12615700  0.80078700  1
  O  532  1  0.19243600  0.16760000  0.92886900  1
  O  533  1  0.14310700  0.09666500  0.79969200  1
  O  534  1  0.15081300  0.19582200  0.92760500  1
  O  549  1  0.41444600  0.89092100  0.30074600  1
  O  550  1  0.32466100  0.84922400  0.42889500  1
  O  551  1  0.37374900  0.92038100  0.29971500  1
  O  552  1  0.36630400  0.82104000  0.42751000  1
  O  567  1  0.63822000  0.36180900  0.53904200  1
  O  568  1  0.60440100  0.43047700  0.68182000  1
  O  569  1  0.66745900  0.40252000  0.54256000  1
  O  570  1  0.57583900  0.38948300  0.67595500  1
  O  585  1  0.87866900  0.65502700  0.03896100  1
  O  586  1  0.91260900  0.58658300  0.18182000  1
  O  587  1  0.84947700  0.61429400  0.04259000  1
  O  588  1  0.94115600  0.62758700  0.17594000  1
  O  603  1  0.41464000  0.12629400  0.71616600  1
  O  604  1  0.32448400  0.16752300  0.58812100  1
  O  605  1  0.37399000  0.09676800  0.71732300  1
  O  606  1  0.36608000  0.19578500  0.58931900  1
  O  621  1  0.10232900  0.89071900  0.21614700  1
  O  622  1  0.19250100  0.84946700  0.08811900  1
  O  623  1  0.14298500  0.92023400  0.21732200  1
  O  624  1  0.15090000  0.82121300  0.08932400  1
  O  639  1  0.87859700  0.36193500  0.97798300  1
  O  640  1  0.91268800  0.43035900  0.83516000  1
  O  641  1  0.84939600  0.40266600  0.97435400  1
  O  642  1  0.94121500  0.38935300  0.84110400  1
  O  657  1  0.63832100  0.65504200  0.47803300  1
  O  658  1  0.60439300  0.58658300  0.33517900  1
  O  659  1  0.66751800  0.61431300  0.47440600  1
  O  660  1  0.57584400  0.62758400  0.34105400  1
  O  1051  1  0.90521600  0.88651200  0.56886300  1
  O  1052  1  0.83515300  0.85310800  0.42656600  1
  O  1053  1  0.86558200  0.91713600  0.56493700  1
  O  1054  1  0.87505900  0.82314200  0.43293900  1
  O  1069  1  0.61173200  0.13046300  0.06884970  1
  O  1070  1  0.68183000  0.16393200  0.92658400  1
  O  1071  1  0.65137800  0.09985300  0.06494570  1
  O  1072  1  0.64191800  0.19388700  0.93297600  1
  O  1087  1  0.36629000  0.61678300  0.81382700  1
  O  1088  1  0.38410000  0.56594600  0.66923600  1
  O  1089  1  0.40296600  0.65047300  0.80663300  1
  O  1090  1  0.42119700  0.59912100  0.66183200  1
  O  1105  1  0.15064900  0.40016800  0.31386300  1
  O  1106  1  0.13289300  0.45107000  0.16928400  1
  O  1107  1  0.11398300  0.36647700  0.30663400  1
  O  1108  1  0.09581000  0.41788800  0.16184900  1
  O  1123  1  0.61192400  0.88671700  0.63698100  1
  O  1124  1  0.68168700  0.85293100  0.77932600  1
  O  1125  1  0.65158700  0.91728400  0.64104000  1
  O  1126  1  0.64175100  0.82302600  0.77284300  1
  O  1141  1  0.90525000  0.13045700  0.13703100  1
  O  1142  1  0.83517000  0.16393500  0.27930200  1
  O  1143  1  0.86559900  0.09985300  0.14093600  1
  O  1144  1  0.87508700  0.19388100  0.27290800  1
  O  1159  1  0.15068100  0.61676400  0.39204600  1
  O  1160  1  0.13292400  0.56593100  0.53663600  1
  O  1161  1  0.11399500  0.65044100  0.39923800  1
  O  1162  1  0.09581800  0.59908900  0.54405500  1
  O  1177  1  0.36634100  0.40016100  0.89201600  1
  O  1178  1  0.38408300  0.45107000  0.03659070  1
  O  1179  1  0.40301500  0.36647900  0.89924500  1
  O  1180  1  0.42117500  0.41790000  0.04402770  1
  O  1195  1  0.10243400  0.12615700  0.14523400  1
  O  1196  1  0.19243600  0.16760000  0.27331600  1
  O  1197  1  0.14310700  0.09666500  0.14413900  1
  O  1198  1  0.15081300  0.19582200  0.27205200  1
  O  1213  1  0.41444600  0.89092100  0.64519300  1
  O  1214  1  0.32466100  0.84922400  0.77334200  1
  O  1215  1  0.37374900  0.92038100  0.64416200  1
  O  1216  1  0.36630400  0.82104000  0.77195700  1
  O  1231  1  0.63822000  0.36180900  0.88348900  1
  O  1232  1  0.60440100  0.43047700  0.02626670  1
  O  1233  1  0.66745900  0.40252000  0.88700700  1
  O  1234  1  0.57583900  0.38948300  0.02040170  1
  O  1249  1  0.87866900  0.65502700  0.38340800  1
  O  1250  1  0.91260900  0.58658300  0.52626700  1
  O  1251  1  0.84947700  0.61429400  0.38703700  1
  O  1252  1  0.94115600  0.62758700  0.52038700  1
  O  1267  1  0.41464000  0.12629400  0.06061270  1
  O  1268  1  0.32448400  0.16752300  0.93256800  1
  O  1269  1  0.37399000  0.09676800  0.06176970  1
  O  1270  1  0.36608000  0.19578500  0.93376600  1
  O  1285  1  0.10232900  0.89071900  0.56059400  1
  O  1286  1  0.19250100  0.84946700  0.43256600  1
  O  1287  1  0.14298500  0.92023400  0.56176900  1
  O  1288  1  0.15090000  0.82121300  0.43377100  1
  O  1303  1  0.87859700  0.36193500  0.32243000  1
  O  1304  1  0.91268800  0.43035900  0.17960700  1
  O  1305  1  0.84939600  0.40266600  0.31880100  1
  O  1306  1  0.94121500  0.38935300  0.18555100  1
  O  1321  1  0.63832100  0.65504200  0.82248000  1
  O  1322  1  0.60439300  0.58658300  0.67962600  1
  O  1323  1  0.66751800  0.61431300  0.81885300  1
  O  1324  1  0.57584400  0.62758400  0.68550100  1
