# generated using pymatgen
data_H24C39N4
_symmetry_space_group_name_H-M   'P 1'
_cell_length_a   45.26730000
_cell_length_b   56.24670000
_cell_length_c   56.24670000
_cell_angle_alpha   90.00000000
_cell_angle_beta   90.00000000
_cell_angle_gamma   90.00000000
_symmetry_Int_Tables_number   1
_chemical_formula_structural   H24C39N4
_chemical_formula_sum   'H768 C1248 N128'
_cell_volume   143211.76141409
_cell_formula_units_Z   32
loop_
 _symmetry_equiv_pos_site_id
 _symmetry_equiv_pos_as_xyz
  1  'x, y, z'
loop_
 _atom_site_type_symbol
 _atom_site_label
 _atom_site_symmetry_multiplicity
 _atom_site_fract_x
 _atom_site_fract_y
 _atom_site_fract_z
 _atom_site_occupancy
  H  20  1  0.35796000  0.07556500  0.37569800  1
  H  21  1  0.38561000  0.03925300  0.37368700  1
  H  22  1  0.36000800  0.03043900  0.30230400  1
  H  23  1  0.33183800  0.06638700  0.30415600  1
  H  24  1  0.37373800  0.98279800  0.30005100  1
  H  25  1  0.34414000  0.94753900  0.30133500  1
  H  26  1  0.42797100  0.03167200  0.30654200  1
  H  27  1  0.48049500  0.03285300  0.30724300  1
  H  28  1  0.48040400  0.98723800  0.36697600  1
  H  29  1  0.42797100  0.98816200  0.36737900  1
  H  30  1  0.37071600  0.98744200  0.37465300  1
  H  31  1  0.34282400  0.95151300  0.37638600  1
  H  51  1  0.33862400  0.95324100  0.65769800  1
  H  52  1  0.36657400  0.98920000  0.65904800  1
  H  53  1  0.37748900  0.98136900  0.73290100  1
  H  54  1  0.34814500  0.94596200  0.73211900  1
  H  55  1  0.35757400  0.02968400  0.73033900  1
  H  56  1  0.32982500  0.06586700  0.72856300  1
  H  57  1  0.42736600  0.99122700  0.66423400  1
  H  58  1  0.47999100  0.99027600  0.66462900  1
  H  59  1  0.47990300  0.02942000  0.72879200  1
  H  60  1  0.42722000  0.02867700  0.72898400  1
  H  61  1  0.38781600  0.04083500  0.66047200  1
  H  62  1  0.36074800  0.07739900  0.65861600  1
  H  82  1  0.33919900  0.65038600  0.07392000  1
  H  83  1  0.36691000  0.65188800  0.03784900  1
  H  84  1  0.37772500  0.72573400  0.04586800  1
  H  85  1  0.34861400  0.72479600  0.08140700  1
  H  86  1  0.35793000  0.72342300  0.99743700  1
  H  87  1  0.32994000  0.72172400  0.96136000  1
  H  88  1  0.42750500  0.65707600  0.03570700  1
  H  89  1  0.48013300  0.65741000  0.03651300  1
  H  90  1  0.47999100  0.72156300  0.99734800  1
  H  91  1  0.42731700  0.72182700  0.99825300  1
  H  92  1  0.38737900  0.65331800  0.98638200  1
  H  93  1  0.36002200  0.65151900  0.94994800  1
  H  113  1  0.33912800  0.36947600  0.96033600  1
  H  114  1  0.36689600  0.36790000  0.99637200  1
  H  115  1  0.37737800  0.29402900  0.98834300  1
  H  116  1  0.34817000  0.29503600  0.95287600  1
  H  117  1  0.35750100  0.29628200  0.03648800  1
  H  118  1  0.32951600  0.29783800  0.07256600  1
  H  119  1  0.42730600  0.36300400  0.99909100  1
  H  120  1  0.47994900  0.36273400  0.99821100  1
  H  121  1  0.47998200  0.29773500  0.03594000  1
  H  122  1  0.42728000  0.29749500  0.03519700  1
  H  123  1  0.38768800  0.36607100  0.04820100  1
  H  124  1  0.36040400  0.36769900  0.08466400  1
  H  144  1  0.66328000  0.95224200  0.37703900  1
  H  145  1  0.63560000  0.98838400  0.37506900  1
  H  146  1  0.62797200  0.98086600  0.30091500  1
  H  147  1  0.65681600  0.94529000  0.30238400  1
  H  148  1  0.64616000  0.02907800  0.30246200  1
  H  149  1  0.67444900  0.06501800  0.30404800  1
  H  150  1  0.57735500  0.00575400  0.37405900  1
  H  151  1  0.52472300  0.00686900  0.37451200  1
  H  152  1  0.52444500  0.01278700  0.29955300  1
  H  153  1  0.57708600  0.01336100  0.29969200  1
  H  154  1  0.61755400  0.04023000  0.37278600  1
  H  155  1  0.64499800  0.07653000  0.37440600  1
  H  175  1  0.64538900  0.07615900  0.65884500  1
  H  176  1  0.61838000  0.03975900  0.66059300  1
  H  177  1  0.64379800  0.03062700  0.73199100  1
  H  178  1  0.67196400  0.06659800  0.73022500  1
  H  179  1  0.62941700  0.98247500  0.73362100  1
  H  180  1  0.65843100  0.94697700  0.73212200  1
  H  181  1  0.57607600  0.00733500  0.73446600  1
  H  182  1  0.52336900  0.00651300  0.73433900  1
  H  183  1  0.52393000  0.01263700  0.65942100  1
  H  184  1  0.57658600  0.01176100  0.65981200  1
  H  185  1  0.63289200  0.98791800  0.65907600  1
  H  186  1  0.66093900  0.95192500  0.65716000  1
  H  206  1  0.64608700  0.36846600  0.08299200  1
  H  207  1  0.61913400  0.36673100  0.04658500  1
  H  208  1  0.64326600  0.29497000  0.03808000  1
  H  209  1  0.67145800  0.29672600  0.07403100  1
  H  210  1  0.63069400  0.29346200  0.99017300  1
  H  211  1  0.65939400  0.29510500  0.95452100  1
  H  212  1  0.57613100  0.29272300  0.01333900  1
  H  213  1  0.52341300  0.29279400  0.01256700  1
  H  214  1  0.52380200  0.36747900  0.02102500  1
  H  215  1  0.57645200  0.36720200  0.02013100  1
  H  216  1  0.63134100  0.36813300  0.99440800  1
  H  217  1  0.65908100  0.37016000  0.95826300  1
  H  237  1  0.64602700  0.65177800  0.95077700  1
  H  238  1  0.61876500  0.65341700  0.98707200  1
  H  239  1  0.64387100  0.72486300  0.99639900  1
  H  240  1  0.67223400  0.72322400  0.96051800  1
  H  241  1  0.62934400  0.72617000  0.04471000  1
  H  242  1  0.65793600  0.72437600  0.08041200  1
  H  243  1  0.57617100  0.72722800  0.01942000  1
  H  244  1  0.52346800  0.72710200  0.02022300  1
  H  245  1  0.52402700  0.65218200  0.01408600  1
  H  246  1  0.57669200  0.65257500  0.01496700  1
  H  247  1  0.63268000  0.65165700  0.03877600  1
  H  248  1  0.66030500  0.64944400  0.07496500  1
  H  268  1  0.86006000  0.57716200  0.87520400  1
  H  269  1  0.88732500  0.54067800  0.87353300  1
  H  270  1  0.85795900  0.52948300  0.80343000  1
  H  271  1  0.83005600  0.56560600  0.80500300  1
  H  272  1  0.87697100  0.48126300  0.80124500  1
  H  273  1  0.84770700  0.44582300  0.80230100  1
  H  274  1  0.92727900  0.52821000  0.80489300  1
  H  275  1  0.97996800  0.52895100  0.80510100  1
  H  276  1  0.98000800  0.49062600  0.86975300  1
  H  277  1  0.92737800  0.49155400  0.87009700  1
  H  278  1  0.86725800  0.48899500  0.87521700  1
  H  279  1  0.83944900  0.45298300  0.87682900  1
  H  299  1  0.84198100  0.45174300  0.15760700  1
  H  300  1  0.86970700  0.48777600  0.15923700  1
  H  301  1  0.87516800  0.48215100  0.23368300  1
  H  302  1  0.84583600  0.44673300  0.23254100  1
  H  303  1  0.85905300  0.52998800  0.23107500  1
  H  304  1  0.83109500  0.56604200  0.22911900  1
  H  305  1  0.92803700  0.48843200  0.16625000  1
  H  306  1  0.98050500  0.48757300  0.16669900  1
  H  307  1  0.98039400  0.53240600  0.22702800  1
  H  308  1  0.92784900  0.53119500  0.22761500  1
  H  309  1  0.88680100  0.53960500  0.16031700  1
  H  310  1  0.85942800  0.57603700  0.15823300  1
  H  330  1  0.84443300  0.14987400  0.57594800  1
  H  331  1  0.87207600  0.15205000  0.53975700  1
  H  332  1  0.87296600  0.22670100  0.54441900  1
  H  333  1  0.84439800  0.22490900  0.58014000  1
  H  334  1  0.86035600  0.22553800  0.49645700  1
  H  335  1  0.83163800  0.22394400  0.46076400  1
  H  336  1  0.92666900  0.15294200  0.51377900  1
  H  337  1  0.97932500  0.15244500  0.51279900  1
  H  338  1  0.98022900  0.22705800  0.52186700  1
  H  339  1  0.92750900  0.22736200  0.52120000  1
  H  340  1  0.88355400  0.15358700  0.48783600  1
  H  341  1  0.85605100  0.15200000  0.45168300  1
  H  361  1  0.83962400  0.86935500  0.46005900  1
  H  362  1  0.86728200  0.86783300  0.49615300  1
  H  363  1  0.87752300  0.79391400  0.48838000  1
  H  364  1  0.84842100  0.79487100  0.45285800  1
  H  365  1  0.85767400  0.79622900  0.53645900  1
  H  366  1  0.82954400  0.79785900  0.57246200  1
  H  367  1  0.92755100  0.86306500  0.49936800  1
  H  368  1  0.98020400  0.86279100  0.49860100  1
  H  369  1  0.98009400  0.79748400  0.53579500  1
  H  370  1  0.92738300  0.79728700  0.53498200  1
  H  371  1  0.88768500  0.86608900  0.54804200  1
  H  372  1  0.86024400  0.86779600  0.58442700  1
  H  392  1  0.15942100  0.45096800  0.87726100  1
  H  393  1  0.13168200  0.48710700  0.87515800  1
  H  394  1  0.13031600  0.48236000  0.80052300  1
  H  395  1  0.15903300  0.44672300  0.80222900  1
  H  396  1  0.14338500  0.53035200  0.80189900  1
  H  397  1  0.17176800  0.56621400  0.80359700  1
  H  398  1  0.07661700  0.51216500  0.87426700  1
  H  399  1  0.02396300  0.51315700  0.87465500  1
  H  400  1  0.02334800  0.50572700  0.79985800  1
  H  401  1  0.07606000  0.50640100  0.79970300  1
  H  402  1  0.11918800  0.53910300  0.87361900  1
  H  403  1  0.14640200  0.57540400  0.87530900  1
  H  423  1  0.14380100  0.57730100  0.15924600  1
  H  424  1  0.11691800  0.54076000  0.16105600  1
  H  425  1  0.14612100  0.53002200  0.23128400  1
  H  426  1  0.17391600  0.56619800  0.22948900  1
  H  427  1  0.12754000  0.48146300  0.23316500  1
  H  428  1  0.15659700  0.44598100  0.23192600  1
  H  429  1  0.07701300  0.51301800  0.23436200  1
  H  430  1  0.02436700  0.51216500  0.23448600  1
  H  431  1  0.02469200  0.50762600  0.15942900  1
  H  432  1  0.07733100  0.50674400  0.15986700  1
  H  433  1  0.13633200  0.48916800  0.15911200  1
  H  434  1  0.16429800  0.45314800  0.15736800  1
  H  454  1  0.14672900  0.86810200  0.58321900  1
  H  455  1  0.11952700  0.86648700  0.54693500  1
  H  456  1  0.14343800  0.79471300  0.53816300  1
  H  457  1  0.17190600  0.79635500  0.57397300  1
  H  458  1  0.13100500  0.79334400  0.49043500  1
  H  459  1  0.15969200  0.79504500  0.45478000  1
  H  460  1  0.07628100  0.79264100  0.51308400  1
  H  461  1  0.02355700  0.79274300  0.51226600  1
  H  462  1  0.02397100  0.86730700  0.52170500  1
  H  463  1  0.07662400  0.86702300  0.52087800  1
  H  464  1  0.13134600  0.86801800  0.49463700  1
  H  465  1  0.15908400  0.87010000  0.45849200  1
  H  485  1  0.14300700  0.15149300  0.44950900  1
  H  486  1  0.11573100  0.15321900  0.48598000  1
  H  487  1  0.14565900  0.22313600  0.49737100  1
  H  488  1  0.17358200  0.22150400  0.46125500  1
  H  489  1  0.12547900  0.22534300  0.54585700  1
  H  490  1  0.15457400  0.22434700  0.58139500  1
  H  491  1  0.07620800  0.22209300  0.49891100  1
  H  492  1  0.02349900  0.22204100  0.49822100  1
  H  493  1  0.02323100  0.15691800  0.53574300  1
  H  494  1  0.07588700  0.15648000  0.53483400  1
  H  495  1  0.13678100  0.15158700  0.53745700  1
  H  496  1  0.16450600  0.15002300  0.57352500  1
  H  521  1  0.16798800  0.21919500  0.41664300  1
  H  522  1  0.19797900  0.21692600  0.38191900  1
  H  523  1  0.19581000  0.15046700  0.43674000  1
  H  524  1  0.22514300  0.14793300  0.40208400  1
  H  525  1  0.27553700  0.12297800  0.37742600  1
  H  526  1  0.30501900  0.08839400  0.37496400  1
  H  527  1  0.30722200  0.14547800  0.31043400  1
  H  528  1  0.33731400  0.11081700  0.30825600  1
  H  529  1  0.29174000  0.20372600  0.29569200  1
  H  530  1  0.29205600  0.23384800  0.26626300  1
  H  531  1  0.21115500  0.26016600  0.29266400  1
  H  532  1  0.21151500  0.23071200  0.32273700  1
  H  557  1  0.16811400  0.80008500  0.61807500  1
  H  558  1  0.19795000  0.80250900  0.65283800  1
  H  559  1  0.19833900  0.86772800  0.59656200  1
  H  560  1  0.22737800  0.87047500  0.63130900  1
  H  561  1  0.26226400  0.90268200  0.66600700  1
  H  562  1  0.29142200  0.93738400  0.66835000  1
  H  563  1  0.31549900  0.86991700  0.71823700  1
  H  564  1  0.34558500  0.90455200  0.71988700  1
  H  565  1  0.27132400  0.82606900  0.74938600  1
  H  566  1  0.27073900  0.79634300  0.77918500  1
  H  567  1  0.23357900  0.74785700  0.73035000  1
  H  568  1  0.23293900  0.77791200  0.70084400  1
  H  593  1  0.16850300  0.61063300  0.22693200  1
  H  594  1  0.19811700  0.64552900  0.22442500  1
  H  595  1  0.19604300  0.59053400  0.15812500  1
  H  596  1  0.22494400  0.62539300  0.15533700  1
  H  597  1  0.26281400  0.65862700  0.12447200  1
  H  598  1  0.29198600  0.66104100  0.08981000  1
  H  599  1  0.31617300  0.71063300  0.15747300  1
  H  600  1  0.34628500  0.71235900  0.12283800  1
  H  601  1  0.29175800  0.73162800  0.21136500  1
  H  602  1  0.29201000  0.76101500  0.24154300  1
  H  603  1  0.21119800  0.73441900  0.26786600  1
  H  604  1  0.21161700  0.70439800  0.23836200  1
  H  629  1  0.15899400  0.40467200  0.81329500  1
  H  630  1  0.18911900  0.37008000  0.81521200  1
  H  631  1  0.20831600  0.43556100  0.86899200  1
  H  632  1  0.23761700  0.40090500  0.87146700  1
  H  633  1  0.26289600  0.36167100  0.90955700  1
  H  634  1  0.29200800  0.35919100  0.94427100  1
  H  635  1  0.31557400  0.30901200  0.87690800  1
  H  636  1  0.34565600  0.30723900  0.91153900  1
  H  637  1  0.27088700  0.27773700  0.83347600  1
  H  638  1  0.27021900  0.24783700  0.80384400  1
  H  639  1  0.23278200  0.29647900  0.75531100  1
  H  640  1  0.23222300  0.32607800  0.78526700  1
  H  665  1  0.84600200  0.80692000  0.41147400  1
  H  666  1  0.81597300  0.80863500  0.37680800  1
  H  667  1  0.79251300  0.85912900  0.44396200  1
  H  668  1  0.76345900  0.86154800  0.40921700  1
  H  669  1  0.74007700  0.90134100  0.36974900  1
  H  670  1  0.71091700  0.93607200  0.36735300  1
  H  671  1  0.68830700  0.86922000  0.31618900  1
  H  672  1  0.65825000  0.90385300  0.31445000  1
  H  673  1  0.73253600  0.82562300  0.28510100  1
  H  674  1  0.73300400  0.79598400  0.25519300  1
  H  675  1  0.77043700  0.74737700  0.30376200  1
  H  676  1  0.77118800  0.77732500  0.33333333  1
  H  701  1  0.84486400  0.21365000  0.62231000  1
  H  702  1  0.81468300  0.21170800  0.65688600  1
  H  703  1  0.79529400  0.15823100  0.59118300  1
  H  704  1  0.76590800  0.15575300  0.62577000  1
  H  705  1  0.72625700  0.12425900  0.65606100  1
  H  706  1  0.69722300  0.08949700  0.65883600  1
  H  707  1  0.69726300  0.14559900  0.72421400  1
  H  708  1  0.66745500  0.11081500  0.72667100  1
  H  709  1  0.71180500  0.20407000  0.73845500  1
  H  710  1  0.71146500  0.23412400  0.76793100  1
  H  711  1  0.79238500  0.26051100  0.74162200  1
  H  712  1  0.79205100  0.23110100  0.71147400  1
  H  737  1  0.84416100  0.40492300  0.22144000  1
  H  738  1  0.81408200  0.37030900  0.21941400  1
  H  739  1  0.79409400  0.43621900  0.16638800  1
  H  740  1  0.76500300  0.40155900  0.16371500  1
  H  741  1  0.72652700  0.37088200  0.13144000  1
  H  742  1  0.69766500  0.36811900  0.09659300  1
  H  743  1  0.69679700  0.30300600  0.15299000  1
  H  744  1  0.66714000  0.30057200  0.11812700  1
  H  745  1  0.71156200  0.28850600  0.21138500  1
  H  746  1  0.71130400  0.25901100  0.24143100  1
  H  747  1  0.79205300  0.28555600  0.26793500  1
  H  748  1  0.79163300  0.31571200  0.23854400  1
  H  773  1  0.83567200  0.61018500  0.80742600  1
  H  774  1  0.80576700  0.64496200  0.80961300  1
  H  775  1  0.80727600  0.59001300  0.87598100  1
  H  776  1  0.77803000  0.62471700  0.87843500  1
  H  777  1  0.72730000  0.64935500  0.90306400  1
  H  778  1  0.69810700  0.65203200  0.93774800  1
  H  779  1  0.69769800  0.71725400  0.88145700  1
  H  780  1  0.66775600  0.71962000  0.91618500  1
  H  781  1  0.71179700  0.73111600  0.82268200  1
  H  782  1  0.71131100  0.76052000  0.79256000  1
  H  783  1  0.79224800  0.73429800  0.76612300  1
  H  784  1  0.79205500  0.70422200  0.79559800  1
  H  809  1  0.83463800  0.79999500  0.61699000  1
  H  810  1  0.80466300  0.80232000  0.65170700  1
  H  811  1  0.80759000  0.86901000  0.59719900  1
  H  812  1  0.77828200  0.87159900  0.63185700  1
  H  813  1  0.73924500  0.90216800  0.66386400  1
  H  814  1  0.70971800  0.93670500  0.66621500  1
  H  815  1  0.68931200  0.87052700  0.71884300  1
  H  816  1  0.65898800  0.90501400  0.72062700  1
  H  817  1  0.73227000  0.82631300  0.74887400  1
  H  818  1  0.73289800  0.79663100  0.77871700  1
  H  819  1  0.77051000  0.74821200  0.73004900  1
  H  820  1  0.77111500  0.77823000  0.70050800  1
  H  845  1  0.83540500  0.21990100  0.41657300  1
  H  846  1  0.80541200  0.21749500  0.38189100  1
  H  847  1  0.80413500  0.15277700  0.43874500  1
  H  848  1  0.77490600  0.15004800  0.40409400  1
  H  849  1  0.72676800  0.12388800  0.37787100  1
  H  850  1  0.69760500  0.08916400  0.37518100  1
  H  851  1  0.69929300  0.14438400  0.30905100  1
  H  852  1  0.66945500  0.10959400  0.30663300  1
  H  853  1  0.73262400  0.19336600  0.28522000  1
  H  854  1  0.73325800  0.22296600  0.25527200  1
  H  855  1  0.77010400  0.27173100  0.30398600  1
  H  856  1  0.77070200  0.24182400  0.33362500  1
  H  881  1  0.84532600  0.40442500  0.81438800  1
  H  882  1  0.81525100  0.36980100  0.81623700  1
  H  883  1  0.79219200  0.43701200  0.86677200  1
  H  884  1  0.76308300  0.40230100  0.86932100  1
  H  885  1  0.73735800  0.36449800  0.90827100  1
  H  886  1  0.70809000  0.36204900  0.94294300  1
  H  887  1  0.68929900  0.30783800  0.87774000  1
  H  888  1  0.65920900  0.30593800  0.91235900  1
  H  889  1  0.73235400  0.27802000  0.83359700  1
  H  890  1  0.73313200  0.24802700  0.80404100  1
  H  891  1  0.77052500  0.29659100  0.75540500  1
  H  892  1  0.77097200  0.32626400  0.78526900  1
  H  917  1  0.83679000  0.61044400  0.22575700  1
  H  918  1  0.80688300  0.64519300  0.22346400  1
  H  919  1  0.80669500  0.58913300  0.15802300  1
  H  920  1  0.77742400  0.62382500  0.15544800  1
  H  921  1  0.73838500  0.65589200  0.12504700  1
  H  922  1  0.70898000  0.65838100  0.09047900  1
  H  923  1  0.68825400  0.71064600  0.15689000  1
  H  924  1  0.65803100  0.71256600  0.12233600  1
  H  925  1  0.71155800  0.73051700  0.21116400  1
  H  926  1  0.71120200  0.75990200  0.24133300  1
  H  927  1  0.79209500  0.73349100  0.26765800  1
  H  928  1  0.79178100  0.70346300  0.23815600  1
  H  953  1  0.15695900  0.21171400  0.62276300  1
  H  954  1  0.18710700  0.21000000  0.65737700  1
  H  955  1  0.21164600  0.16082000  0.58949200  1
  H  956  1  0.24086500  0.15841600  0.62413200  1
  H  957  1  0.27908500  0.12532600  0.65476300  1
  H  958  1  0.30821400  0.09056200  0.65735500  1
  H  959  1  0.30568400  0.14514200  0.72399700  1
  H  960  1  0.33548500  0.11033200  0.72631900  1
  H  961  1  0.29175600  0.20406300  0.73821500  1
  H  962  1  0.29198100  0.23406000  0.76774400  1
  H  963  1  0.21104200  0.26038300  0.74140600  1
  H  964  1  0.21149400  0.23102800  0.71120400  1
  H  989  1  0.15933800  0.80590300  0.41260700  1
  H  990  1  0.18932500  0.80788100  0.37794000  1
  H  991  1  0.20815000  0.86207700  0.44314900  1
  H  992  1  0.23733000  0.86459400  0.40842700  1
  H  993  1  0.26562000  0.90146000  0.37142200  1
  H  994  1  0.29469000  0.93613900  0.36856000  1
  H  995  1  0.31244400  0.87106200  0.31402500  1
  H  996  1  0.34252100  0.90564000  0.31179800  1
  H  997  1  0.27028100  0.82668600  0.28520200  1
  H  998  1  0.26988800  0.79704300  0.25530700  1
  H  999  1  0.23295600  0.74828700  0.30398400  1
  H  1000  1  0.23212800  0.77824200  0.33358000  1
  H  1025  1  0.16749200  0.61044100  0.80749200  1
  H  1026  1  0.19742600  0.64516400  0.80989700  1
  H  1027  1  0.19831800  0.58855800  0.87484200  1
  H  1028  1  0.22748200  0.62324700  0.87756900  1
  H  1029  1  0.27789200  0.64814200  0.90247500  1
  H  1030  1  0.30717100  0.65068700  0.93716700  1
  H  1031  1  0.30566200  0.71689800  0.88203100  1
  H  1032  1  0.33558700  0.71917600  0.91678500  1
  H  1033  1  0.29215100  0.73076400  0.82297200  1
  H  1034  1  0.29256200  0.76023600  0.79291000  1
  H  1035  1  0.21169400  0.73393400  0.76640500  1
  H  1036  1  0.21195600  0.70379700  0.79581800  1
  H  1061  1  0.15827300  0.40451900  0.21959700  1
  H  1062  1  0.18846900  0.36994800  0.21801300  1
  H  1063  1  0.21199700  0.43725600  0.16771200  1
  H  1064  1  0.24134600  0.40261900  0.16548600  1
  H  1065  1  0.27862100  0.37150200  0.13225400  1
  H  1066  1  0.30783200  0.36895800  0.09755000  1
  H  1067  1  0.30481800  0.30211000  0.15186100  1
  H  1068  1  0.33471200  0.29983100  0.11708900  1
  H  1069  1  0.27114100  0.27794000  0.20068500  1
  H  1070  1  0.27042000  0.24787000  0.23017900  1
  H  1071  1  0.23283300  0.29626100  0.27888400  1
  H  1072  1  0.23232400  0.32599200  0.24909200  1
  H  1092  1  0.51259700  0.07556500  0.87350500  1
  H  1093  1  0.54024700  0.03925300  0.87149400  1
  H  1094  1  0.51464500  0.03043900  0.80011100  1
  H  1095  1  0.48647500  0.06638700  0.80196300  1
  H  1096  1  0.52837500  0.98279800  0.79785800  1
  H  1097  1  0.49877700  0.94753900  0.79914200  1
  H  1098  1  0.58260800  0.03167200  0.80434900  1
  H  1099  1  0.63513200  0.03285300  0.80505000  1
  H  1100  1  0.63504100  0.98723800  0.86478300  1
  H  1101  1  0.58260800  0.98816200  0.86518600  1
  H  1102  1  0.52535300  0.98744200  0.87246000  1
  H  1103  1  0.49746100  0.95151300  0.87419300  1
  H  1123  1  0.49326100  0.95324100  0.15550500  1
  H  1124  1  0.52121100  0.98920000  0.15685500  1
  H  1125  1  0.53212600  0.98136900  0.23070800  1
  H  1126  1  0.50278200  0.94596200  0.22992600  1
  H  1127  1  0.51221100  0.02968400  0.22814600  1
  H  1128  1  0.48446200  0.06586700  0.22637000  1
  H  1129  1  0.58200300  0.99122700  0.16204100  1
  H  1130  1  0.63462800  0.99027600  0.16243600  1
  H  1131  1  0.63454000  0.02942000  0.22659900  1
  H  1132  1  0.58185700  0.02867700  0.22679100  1
  H  1133  1  0.54245300  0.04083500  0.15827900  1
  H  1134  1  0.51538500  0.07739900  0.15642300  1
  H  1154  1  0.49383600  0.65038600  0.57172700  1
  H  1155  1  0.52154700  0.65188800  0.53565600  1
  H  1156  1  0.53236200  0.72573400  0.54367500  1
  H  1157  1  0.50325100  0.72479600  0.57921400  1
  H  1158  1  0.51256700  0.72342300  0.49524400  1
  H  1159  1  0.48457700  0.72172400  0.45916700  1
  H  1160  1  0.58214200  0.65707600  0.53351400  1
  H  1161  1  0.63477000  0.65741000  0.53432000  1
  H  1162  1  0.63462800  0.72156300  0.49515500  1
  H  1163  1  0.58195400  0.72182700  0.49606000  1
  H  1164  1  0.54201600  0.65331800  0.48418900  1
  H  1165  1  0.51465900  0.65151900  0.44775500  1
  H  1185  1  0.49376500  0.36947600  0.45814300  1
  H  1186  1  0.52153300  0.36790000  0.49417900  1
  H  1187  1  0.53201500  0.29402900  0.48615000  1
  H  1188  1  0.50280700  0.29503600  0.45068300  1
  H  1189  1  0.51213800  0.29628200  0.53429500  1
  H  1190  1  0.48415300  0.29783800  0.57037300  1
  H  1191  1  0.58194300  0.36300400  0.49689800  1
  H  1192  1  0.63458600  0.36273400  0.49601800  1
  H  1193  1  0.63461900  0.29773500  0.53374700  1
  H  1194  1  0.58191700  0.29749500  0.53300400  1
  H  1195  1  0.54232500  0.36607100  0.54600800  1
  H  1196  1  0.51504100  0.36769900  0.58247100  1
  H  1216  1  0.81791700  0.95224200  0.87484600  1
  H  1217  1  0.79023700  0.98838400  0.87287600  1
  H  1218  1  0.78260900  0.98086600  0.79872200  1
  H  1219  1  0.81145300  0.94529000  0.80019100  1
  H  1220  1  0.80079700  0.02907800  0.80026900  1
  H  1221  1  0.82908600  0.06501800  0.80185500  1
  H  1222  1  0.73199200  0.00575400  0.87186600  1
  H  1223  1  0.67936000  0.00686900  0.87231900  1
  H  1224  1  0.67908200  0.01278700  0.79736000  1
  H  1225  1  0.73172300  0.01336100  0.79749900  1
  H  1226  1  0.77219100  0.04023000  0.87059300  1
  H  1227  1  0.79963500  0.07653000  0.87221300  1
  H  1247  1  0.80002600  0.07615900  0.15665200  1
  H  1248  1  0.77301700  0.03975900  0.15840000  1
  H  1249  1  0.79843500  0.03062700  0.22979800  1
  H  1250  1  0.82660100  0.06659800  0.22803200  1
  H  1251  1  0.78405400  0.98247500  0.23142800  1
  H  1252  1  0.81306800  0.94697700  0.22992900  1
  H  1253  1  0.73071300  0.00733500  0.23227300  1
  H  1254  1  0.67800600  0.00651300  0.23214600  1
  H  1255  1  0.67856700  0.01263700  0.15722800  1
  H  1256  1  0.73122300  0.01176100  0.15761900  1
  H  1257  1  0.78752900  0.98791800  0.15688300  1
  H  1258  1  0.81557600  0.95192500  0.15496700  1
  H  1278  1  0.80072400  0.36846600  0.58079900  1
  H  1279  1  0.77377100  0.36673100  0.54439200  1
  H  1280  1  0.79790300  0.29497000  0.53588700  1
  H  1281  1  0.82609500  0.29672600  0.57183800  1
  H  1282  1  0.78533100  0.29346200  0.48798000  1
  H  1283  1  0.81403100  0.29510500  0.45232800  1
  H  1284  1  0.73076800  0.29272300  0.51114600  1
  H  1285  1  0.67805000  0.29279400  0.51037400  1
  H  1286  1  0.67843900  0.36747900  0.51883200  1
  H  1287  1  0.73108900  0.36720200  0.51793800  1
  H  1288  1  0.78597800  0.36813300  0.49221500  1
  H  1289  1  0.81371800  0.37016000  0.45607000  1
  H  1309  1  0.80066400  0.65177800  0.44858400  1
  H  1310  1  0.77340200  0.65341700  0.48487900  1
  H  1311  1  0.79850800  0.72486300  0.49420600  1
  H  1312  1  0.82687100  0.72322400  0.45832500  1
  H  1313  1  0.78398100  0.72617000  0.54251700  1
  H  1314  1  0.81257300  0.72437600  0.57821900  1
  H  1315  1  0.73080800  0.72722800  0.51722700  1
  H  1316  1  0.67810500  0.72710200  0.51803000  1
  H  1317  1  0.67866400  0.65218200  0.51189300  1
  H  1318  1  0.73132900  0.65257500  0.51277400  1
  H  1319  1  0.78731700  0.65165700  0.53658300  1
  H  1320  1  0.81494200  0.64944400  0.57277200  1
  H  1340  1  0.01469700  0.57716200  0.37301100  1
  H  1341  1  0.04196200  0.54067800  0.37134000  1
  H  1342  1  0.01259600  0.52948300  0.30123700  1
  H  1343  1  0.98469300  0.56560600  0.30281000  1
  H  1344  1  0.03160800  0.48126300  0.29905200  1
  H  1345  1  0.00234401  0.44582300  0.30010800  1
  H  1346  1  0.08191600  0.52821000  0.30270000  1
  H  1347  1  0.13460500  0.52895100  0.30290800  1
  H  1348  1  0.13464500  0.49062600  0.36756000  1
  H  1349  1  0.08201500  0.49155400  0.36790400  1
  H  1350  1  0.02189500  0.48899500  0.37302400  1
  H  1351  1  0.99408600  0.45298300  0.37463600  1
  H  1371  1  0.99661800  0.45174300  0.65541400  1
  H  1372  1  0.02434400  0.48777600  0.65704400  1
  H  1373  1  0.02980500  0.48215100  0.73149000  1
  H  1374  1  0.00047301  0.44673300  0.73034800  1
  H  1375  1  0.01369000  0.52998800  0.72888200  1
  H  1376  1  0.98573200  0.56604200  0.72692600  1
  H  1377  1  0.08267400  0.48843200  0.66405700  1
  H  1378  1  0.13514200  0.48757300  0.66450600  1
  H  1379  1  0.13503100  0.53240600  0.72483500  1
  H  1380  1  0.08248600  0.53119500  0.72542200  1
  H  1381  1  0.04143800  0.53960500  0.65812400  1
  H  1382  1  0.01406500  0.57603700  0.65604000  1
  H  1402  1  0.99907000  0.14987400  0.07375500  1
  H  1403  1  0.02671300  0.15205000  0.03756400  1
  H  1404  1  0.02760300  0.22670100  0.04222600  1
  H  1405  1  0.99903500  0.22490900  0.07794700  1
  H  1406  1  0.01499300  0.22553800  0.99426400  1
  H  1407  1  0.98627500  0.22394400  0.95857100  1
  H  1408  1  0.08130600  0.15294200  0.01158600  1
  H  1409  1  0.13396200  0.15244500  0.01060600  1
  H  1410  1  0.13486600  0.22705800  0.01967400  1
  H  1411  1  0.08214600  0.22736200  0.01900700  1
  H  1412  1  0.03819100  0.15358700  0.98564300  1
  H  1413  1  0.01068800  0.15200000  0.94949000  1
  H  1433  1  0.99426100  0.86935500  0.95786600  1
  H  1434  1  0.02191900  0.86783300  0.99396000  1
  H  1435  1  0.03216000  0.79391400  0.98618700  1
  H  1436  1  0.00305801  0.79487100  0.95066500  1
  H  1437  1  0.01231100  0.79622900  0.03426600  1
  H  1438  1  0.98418100  0.79785900  0.07026900  1
  H  1439  1  0.08218800  0.86306500  0.99717500  1
  H  1440  1  0.13484100  0.86279100  0.99640800  1
  H  1441  1  0.13473100  0.79748400  0.03360200  1
  H  1442  1  0.08202000  0.79728700  0.03278900  1
  H  1443  1  0.04232200  0.86608900  0.04584900  1
  H  1444  1  0.01488100  0.86779600  0.08223400  1
  H  1464  1  0.31405800  0.45096800  0.37506800  1
  H  1465  1  0.28631900  0.48710700  0.37296500  1
  H  1466  1  0.28495300  0.48236000  0.29833000  1
  H  1467  1  0.31367000  0.44672300  0.30003600  1
  H  1468  1  0.29802200  0.53035200  0.29970600  1
  H  1469  1  0.32640500  0.56621400  0.30140400  1
  H  1470  1  0.23125400  0.51216500  0.37207400  1
  H  1471  1  0.17860000  0.51315700  0.37246200  1
  H  1472  1  0.17798500  0.50572700  0.29766500  1
  H  1473  1  0.23069700  0.50640100  0.29751000  1
  H  1474  1  0.27382500  0.53910300  0.37142600  1
  H  1475  1  0.30103900  0.57540400  0.37311600  1
  H  1495  1  0.29843800  0.57730100  0.65705300  1
  H  1496  1  0.27155500  0.54076000  0.65886300  1
  H  1497  1  0.30075800  0.53002200  0.72909100  1
  H  1498  1  0.32855300  0.56619800  0.72729600  1
  H  1499  1  0.28217700  0.48146300  0.73097200  1
  H  1500  1  0.31123400  0.44598100  0.72973300  1
  H  1501  1  0.23165000  0.51301800  0.73216900  1
  H  1502  1  0.17900400  0.51216500  0.73229300  1
  H  1503  1  0.17932900  0.50762600  0.65723600  1
  H  1504  1  0.23196800  0.50674400  0.65767400  1
  H  1505  1  0.29096900  0.48916800  0.65691900  1
  H  1506  1  0.31893500  0.45314800  0.65517500  1
  H  1526  1  0.30136600  0.86810200  0.08102600  1
  H  1527  1  0.27416400  0.86648700  0.04474200  1
  H  1528  1  0.29807500  0.79471300  0.03597000  1
  H  1529  1  0.32654300  0.79635500  0.07178000  1
  H  1530  1  0.28564200  0.79334400  0.98824200  1
  H  1531  1  0.31432900  0.79504500  0.95258700  1
  H  1532  1  0.23091800  0.79264100  0.01089100  1
  H  1533  1  0.17819400  0.79274300  0.01007300  1
  H  1534  1  0.17860800  0.86730700  0.01951200  1
  H  1535  1  0.23126100  0.86702300  0.01868500  1
  H  1536  1  0.28598300  0.86801800  0.99244400  1
  H  1537  1  0.31372100  0.87010000  0.95629900  1
  H  1557  1  0.29764400  0.15149300  0.94731600  1
  H  1558  1  0.27036800  0.15321900  0.98378700  1
  H  1559  1  0.30029600  0.22313600  0.99517800  1
  H  1560  1  0.32821900  0.22150400  0.95906200  1
  H  1561  1  0.28011600  0.22534300  0.04366400  1
  H  1562  1  0.30921100  0.22434700  0.07920200  1
  H  1563  1  0.23084500  0.22209300  0.99671800  1
  H  1564  1  0.17813600  0.22204100  0.99602800  1
  H  1565  1  0.17786800  0.15691800  0.03355000  1
  H  1566  1  0.23052400  0.15648000  0.03264100  1
  H  1567  1  0.29141800  0.15158700  0.03526400  1
  H  1568  1  0.31914300  0.15002300  0.07133200  1
  H  1593  1  0.32262500  0.21919500  0.91445000  1
  H  1594  1  0.35261600  0.21692600  0.87972600  1
  H  1595  1  0.35044700  0.15046700  0.93454700  1
  H  1596  1  0.37978000  0.14793300  0.89989100  1
  H  1597  1  0.43017400  0.12297800  0.87523300  1
  H  1598  1  0.45965600  0.08839400  0.87277100  1
  H  1599  1  0.46185900  0.14547800  0.80824100  1
  H  1600  1  0.49195100  0.11081700  0.80606300  1
  H  1601  1  0.44637700  0.20372600  0.79349900  1
  H  1602  1  0.44669300  0.23384800  0.76407000  1
  H  1603  1  0.36579200  0.26016600  0.79047100  1
  H  1604  1  0.36615200  0.23071200  0.82054400  1
  H  1629  1  0.32275100  0.80008500  0.11588200  1
  H  1630  1  0.35258700  0.80250900  0.15064500  1
  H  1631  1  0.35297600  0.86772800  0.09436900  1
  H  1632  1  0.38201500  0.87047500  0.12911600  1
  H  1633  1  0.41690100  0.90268200  0.16381400  1
  H  1634  1  0.44605900  0.93738400  0.16615700  1
  H  1635  1  0.47013600  0.86991700  0.21604400  1
  H  1636  1  0.50022200  0.90455200  0.21769400  1
  H  1637  1  0.42596100  0.82606900  0.24719300  1
  H  1638  1  0.42537600  0.79634300  0.27699200  1
  H  1639  1  0.38821600  0.74785700  0.22815700  1
  H  1640  1  0.38757600  0.77791200  0.19865100  1
  H  1665  1  0.32314000  0.61063300  0.72473900  1
  H  1666  1  0.35275400  0.64552900  0.72223200  1
  H  1667  1  0.35068000  0.59053400  0.65593200  1
  H  1668  1  0.37958100  0.62539300  0.65314400  1
  H  1669  1  0.41745100  0.65862700  0.62227900  1
  H  1670  1  0.44662300  0.66104100  0.58761700  1
  H  1671  1  0.47081000  0.71063300  0.65528000  1
  H  1672  1  0.50092200  0.71235900  0.62064500  1
  H  1673  1  0.44639500  0.73162800  0.70917200  1
  H  1674  1  0.44664700  0.76101500  0.73935000  1
  H  1675  1  0.36583500  0.73441900  0.76567300  1
  H  1676  1  0.36625400  0.70439800  0.73616900  1
  H  1701  1  0.31363100  0.40467200  0.31110200  1
  H  1702  1  0.34375600  0.37008000  0.31301900  1
  H  1703  1  0.36295300  0.43556100  0.36679900  1
  H  1704  1  0.39225400  0.40090500  0.36927400  1
  H  1705  1  0.41753300  0.36167100  0.40736400  1
  H  1706  1  0.44664500  0.35919100  0.44207800  1
  H  1707  1  0.47021100  0.30901200  0.37471500  1
  H  1708  1  0.50029300  0.30723900  0.40934600  1
  H  1709  1  0.42552400  0.27773700  0.33128300  1
  H  1710  1  0.42485600  0.24783700  0.30165100  1
  H  1711  1  0.38741900  0.29647900  0.25311800  1
  H  1712  1  0.38686000  0.32607800  0.28307400  1
  H  1737  1  0.00063901  0.80692000  0.90928100  1
  H  1738  1  0.97061000  0.80863500  0.87461500  1
  H  1739  1  0.94715000  0.85912900  0.94176900  1
  H  1740  1  0.91809600  0.86154800  0.90702400  1
  H  1741  1  0.89471400  0.90134100  0.86755600  1
  H  1742  1  0.86555400  0.93607200  0.86516000  1
  H  1743  1  0.84294400  0.86922000  0.81399600  1
  H  1744  1  0.81288700  0.90385300  0.81225700  1
  H  1745  1  0.88717300  0.82562300  0.78290800  1
  H  1746  1  0.88764100  0.79598400  0.75300000  1
  H  1747  1  0.92507400  0.74737700  0.80156900  1
  H  1748  1  0.92582500  0.77732500  0.83116000  1
  H  1773  1  0.99950100  0.21365000  0.12011700  1
  H  1774  1  0.96932000  0.21170800  0.15469300  1
  H  1775  1  0.94993100  0.15823100  0.08899000  1
  H  1776  1  0.92054500  0.15575300  0.12357700  1
  H  1777  1  0.88089400  0.12425900  0.15386800  1
  H  1778  1  0.85186000  0.08949700  0.15664300  1
  H  1779  1  0.85190000  0.14559900  0.22202100  1
  H  1780  1  0.82209200  0.11081500  0.22447800  1
  H  1781  1  0.86644200  0.20407000  0.23626200  1
  H  1782  1  0.86610200  0.23412400  0.26573800  1
  H  1783  1  0.94702200  0.26051100  0.23942900  1
  H  1784  1  0.94668800  0.23110100  0.20928100  1
  H  1809  1  0.99879800  0.40492300  0.71924700  1
  H  1810  1  0.96871900  0.37030900  0.71722100  1
  H  1811  1  0.94873100  0.43621900  0.66419500  1
  H  1812  1  0.91964000  0.40155900  0.66152200  1
  H  1813  1  0.88116400  0.37088200  0.62924700  1
  H  1814  1  0.85230200  0.36811900  0.59440000  1
  H  1815  1  0.85143400  0.30300600  0.65079700  1
  H  1816  1  0.82177700  0.30057200  0.61593400  1
  H  1817  1  0.86619900  0.28850600  0.70919200  1
  H  1818  1  0.86594100  0.25901100  0.73923800  1
  H  1819  1  0.94669000  0.28555600  0.76574200  1
  H  1820  1  0.94627000  0.31571200  0.73635100  1
  H  1845  1  0.99030900  0.61018500  0.30523300  1
  H  1846  1  0.96040400  0.64496200  0.30742000  1
  H  1847  1  0.96191300  0.59001300  0.37378800  1
  H  1848  1  0.93266700  0.62471700  0.37624200  1
  H  1849  1  0.88193700  0.64935500  0.40087100  1
  H  1850  1  0.85274400  0.65203200  0.43555500  1
  H  1851  1  0.85233500  0.71725400  0.37926400  1
  H  1852  1  0.82239300  0.71962000  0.41399200  1
  H  1853  1  0.86643400  0.73111600  0.32048900  1
  H  1854  1  0.86594800  0.76052000  0.29036700  1
  H  1855  1  0.94688500  0.73429800  0.26393000  1
  H  1856  1  0.94669200  0.70422200  0.29340500  1
  H  1881  1  0.98927500  0.79999500  0.11479700  1
  H  1882  1  0.95930000  0.80232000  0.14951400  1
  H  1883  1  0.96222700  0.86901000  0.09500600  1
  H  1884  1  0.93291900  0.87159900  0.12966400  1
  H  1885  1  0.89388200  0.90216800  0.16167100  1
  H  1886  1  0.86435500  0.93670500  0.16402200  1
  H  1887  1  0.84394900  0.87052700  0.21665000  1
  H  1888  1  0.81362500  0.90501400  0.21843400  1
  H  1889  1  0.88690700  0.82631300  0.24668100  1
  H  1890  1  0.88753500  0.79663100  0.27652400  1
  H  1891  1  0.92514700  0.74821200  0.22785600  1
  H  1892  1  0.92575200  0.77823000  0.19831500  1
  H  1917  1  0.99004200  0.21990100  0.91438000  1
  H  1918  1  0.96004900  0.21749500  0.87969800  1
  H  1919  1  0.95877200  0.15277700  0.93655200  1
  H  1920  1  0.92954300  0.15004800  0.90190100  1
  H  1921  1  0.88140500  0.12388800  0.87567800  1
  H  1922  1  0.85224200  0.08916400  0.87298800  1
  H  1923  1  0.85393000  0.14438400  0.80685800  1
  H  1924  1  0.82409200  0.10959400  0.80444000  1
  H  1925  1  0.88726100  0.19336600  0.78302700  1
  H  1926  1  0.88789500  0.22296600  0.75307900  1
  H  1927  1  0.92474100  0.27173100  0.80179300  1
  H  1928  1  0.92533900  0.24182400  0.83143200  1
  H  1953  1  0.99996300  0.40442500  0.31219500  1
  H  1954  1  0.96988800  0.36980100  0.31404400  1
  H  1955  1  0.94682900  0.43701200  0.36457900  1
  H  1956  1  0.91772000  0.40230100  0.36712800  1
  H  1957  1  0.89199500  0.36449800  0.40607800  1
  H  1958  1  0.86272700  0.36204900  0.44075000  1
  H  1959  1  0.84393600  0.30783800  0.37554700  1
  H  1960  1  0.81384600  0.30593800  0.41016600  1
  H  1961  1  0.88699100  0.27802000  0.33140400  1
  H  1962  1  0.88776900  0.24802700  0.30184800  1
  H  1963  1  0.92516200  0.29659100  0.25321200  1
  H  1964  1  0.92560900  0.32626400  0.28307600  1
  H  1989  1  0.99142700  0.61044400  0.72356400  1
  H  1990  1  0.96152000  0.64519300  0.72127100  1
  H  1991  1  0.96133200  0.58913300  0.65583000  1
  H  1992  1  0.93206100  0.62382500  0.65325500  1
  H  1993  1  0.89302200  0.65589200  0.62285400  1
  H  1994  1  0.86361700  0.65838100  0.58828600  1
  H  1995  1  0.84289100  0.71064600  0.65469700  1
  H  1996  1  0.81266800  0.71256600  0.62014300  1
  H  1997  1  0.86619500  0.73051700  0.70897100  1
  H  1998  1  0.86583900  0.75990200  0.73914000  1
  H  1999  1  0.94673200  0.73349100  0.76546500  1
  H  2000  1  0.94641800  0.70346300  0.73596300  1
  H  2025  1  0.31159600  0.21171400  0.12057000  1
  H  2026  1  0.34174400  0.21000000  0.15518400  1
  H  2027  1  0.36628300  0.16082000  0.08729900  1
  H  2028  1  0.39550200  0.15841600  0.12193900  1
  H  2029  1  0.43372200  0.12532600  0.15257000  1
  H  2030  1  0.46285100  0.09056200  0.15516200  1
  H  2031  1  0.46032100  0.14514200  0.22180400  1
  H  2032  1  0.49012200  0.11033200  0.22412600  1
  H  2033  1  0.44639300  0.20406300  0.23602200  1
  H  2034  1  0.44661800  0.23406000  0.26555100  1
  H  2035  1  0.36567900  0.26038300  0.23921300  1
  H  2036  1  0.36613100  0.23102800  0.20901100  1
  H  2061  1  0.31397500  0.80590300  0.91041400  1
  H  2062  1  0.34396200  0.80788100  0.87574700  1
  H  2063  1  0.36278700  0.86207700  0.94095600  1
  H  2064  1  0.39196700  0.86459400  0.90623400  1
  H  2065  1  0.42025700  0.90146000  0.86922900  1
  H  2066  1  0.44932700  0.93613900  0.86636700  1
  H  2067  1  0.46708100  0.87106200  0.81183200  1
  H  2068  1  0.49715800  0.90564000  0.80960500  1
  H  2069  1  0.42491800  0.82668600  0.78300900  1
  H  2070  1  0.42452500  0.79704300  0.75311400  1
  H  2071  1  0.38759300  0.74828700  0.80179100  1
  H  2072  1  0.38676500  0.77824200  0.83138700  1
  H  2097  1  0.32212900  0.61044100  0.30529900  1
  H  2098  1  0.35206300  0.64516400  0.30770400  1
  H  2099  1  0.35295500  0.58855800  0.37264900  1
  H  2100  1  0.38211900  0.62324700  0.37537600  1
  H  2101  1  0.43252900  0.64814200  0.40028200  1
  H  2102  1  0.46180800  0.65068700  0.43497400  1
  H  2103  1  0.46029900  0.71689800  0.37983800  1
  H  2104  1  0.49022400  0.71917600  0.41459200  1
  H  2105  1  0.44678800  0.73076400  0.32077900  1
  H  2106  1  0.44719900  0.76023600  0.29071700  1
  H  2107  1  0.36633100  0.73393400  0.26421200  1
  H  2108  1  0.36659300  0.70379700  0.29362500  1
  H  2133  1  0.31291000  0.40451900  0.71740400  1
  H  2134  1  0.34310600  0.36994800  0.71582000  1
  H  2135  1  0.36663400  0.43725600  0.66551900  1
  H  2136  1  0.39598300  0.40261900  0.66329300  1
  H  2137  1  0.43325800  0.37150200  0.63006100  1
  H  2138  1  0.46246900  0.36895800  0.59535700  1
  H  2139  1  0.45945500  0.30211000  0.64966800  1
  H  2140  1  0.48934900  0.29983100  0.61489600  1
  H  2141  1  0.42577800  0.27794000  0.69849200  1
  H  2142  1  0.42505700  0.24787000  0.72798600  1
  H  2143  1  0.38747000  0.29626100  0.77669100  1
  H  2144  1  0.38696100  0.32599200  0.74689900  1
  C  2  1  0.37529500  0.03151800  0.33784000  1
  C  3  1  0.42282600  0.00982400  0.33686600  1
  C  4  1  0.37507200  0.98825600  0.33721800  1
  C  5  1  0.36735400  0.97614700  0.31617300  1
  C  6  1  0.35010900  0.95528000  0.31706700  1
  C  7  1  0.34026100  0.94564600  0.33900600  1
  C  8  1  0.34869300  0.95787000  0.36002100  1
  C  9  1  0.36543800  0.97893700  0.35915100  1
  C  10  1  0.37443400  0.04499500  0.35896500  1
  C  11  1  0.35795200  0.06623100  0.36008700  1
  C  12  1  0.34202600  0.07479000  0.34011000  1
  C  13  1  0.34338900  0.06121900  0.31891300  1
  C  14  1  0.35968100  0.03991400  0.31781700  1
  C  15  1  0.43892800  0.02234100  0.31941900  1
  C  16  1  0.47005200  0.02275200  0.31979100  1
  C  17  1  0.48655400  0.01001100  0.33709100  1
  C  18  1  0.47000400  0.99728400  0.35436200  1
  C  19  1  0.43887500  0.99751500  0.35451800  1
  C  33  1  0.37468800  0.98849100  0.69607000  1
  C  34  1  0.42231600  0.00986100  0.69667300  1
  C  35  1  0.37516900  0.03192300  0.69556000  1
  C  36  1  0.35837400  0.03972900  0.71519900  1
  C  37  1  0.34233800  0.06116900  0.71416200  1
  C  38  1  0.34245700  0.07548200  0.69342300  1
  C  39  1  0.35962800  0.06753300  0.67387000  1
  C  40  1  0.37578100  0.04614000  0.67491700  1
  C  41  1  0.36291300  0.98003000  0.67447300  1
  C  42  1  0.34621000  0.95892700  0.67385400  1
  C  43  1  0.34013300  0.94574500  0.69482200  1
  C  44  1  0.35229600  0.95444800  0.71639200  1
  C  45  1  0.36941700  0.97538600  0.71700700  1
  C  46  1  0.43833400  0.99918700  0.67798600  1
  C  47  1  0.46945800  0.99893100  0.67818000  1
  C  48  1  0.48586500  0.00979000  0.69675100  1
  C  49  1  0.46939900  0.02076500  0.71522700  1
  C  50  1  0.43827200  0.02059700  0.71533600  1
  C  64  1  0.37494600  0.68892200  0.03864400  1
  C  65  1  0.42243500  0.68952100  0.01708200  1
  C  66  1  0.37514900  0.68851800  0.99522700  1
  C  67  1  0.35849900  0.70824400  0.98743800  1
  C  68  1  0.34230000  0.70724400  0.96607700  1
  C  69  1  0.34212800  0.68645900  0.95183600  1
  C  70  1  0.35913800  0.66681200  0.95976900  1
  C  71  1  0.37545700  0.66782500  0.98108100  1
  C  72  1  0.36328000  0.66727900  0.04708500  1
  C  73  1  0.34672300  0.66656800  0.06825700  1
  C  74  1  0.34069200  0.68748900  0.08152600  1
  C  75  1  0.35275100  0.70910400  0.07284900  1
  C  76  1  0.36972600  0.70981200  0.05183700  1
  C  77  1  0.43846200  0.67080900  0.02770400  1
  C  78  1  0.46958600  0.67096500  0.02787300  1
  C  79  1  0.48597600  0.68952100  0.01697400  1
  C  80  1  0.46950000  0.70800900  0.00603100  1
  C  81  1  0.43837600  0.70815800  0.00629300  1
  C  95  1  0.37479200  0.33085100  0.99556700  1
  C  96  1  0.42232300  0.33017600  0.01704400  1
  C  97  1  0.37509400  0.33104300  0.03901200  1
  C  98  1  0.35825000  0.31135800  0.04663300  1
  C  99  1  0.34205100  0.31227000  0.06800200  1
  C  100  1  0.34208600  0.33291700  0.08244800  1
  C  101  1  0.35933700  0.35250700  0.07469900  1
  C  102  1  0.37562400  0.35159000  0.05336700  1
  C  103  1  0.36318500  0.35252000  0.98714200  1
  C  104  1  0.34657700  0.35327000  0.96599200  1
  C  105  1  0.34040900  0.33236800  0.95272900  1
  C  106  1  0.35240000  0.31072600  0.96140800  1
  C  107  1  0.36944600  0.30997700  0.98238000  1
  C  108  1  0.43830100  0.34910300  0.00676000  1
  C  109  1  0.46942500  0.34898200  0.00655400  1
  C  110  1  0.48585900  0.33020200  0.01701700  1
  C  111  1  0.46943600  0.31146900  0.02758600  1
  C  112  1  0.43830800  0.31132500  0.02741300  1
  C  126  1  0.62904600  0.98780100  0.33784900  1
  C  127  1  0.58204500  0.00955700  0.33684800  1
  C  128  1  0.62920000  0.03135700  0.33743800  1
  C  129  1  0.64574900  0.03908600  0.31763800  1
  C  130  1  0.66214500  0.06036300  0.31857800  1
  C  131  1  0.66261500  0.07458900  0.33937400  1
  C  132  1  0.64568500  0.06673300  0.35908900  1
  C  133  1  0.62924700  0.04548900  0.35815600  1
  C  134  1  0.63977300  0.97919600  0.35974200  1
  C  135  1  0.65633900  0.95800900  0.36072700  1
  C  136  1  0.66315900  0.94484400  0.33988600  1
  C  137  1  0.65202900  0.95370700  0.31803300  1
  C  138  1  0.63518300  0.97475100  0.31702800  1
  C  139  1  0.56622600  0.00732600  0.35831600  1
  C  140  1  0.53509500  0.00774700  0.35839900  1
  C  141  1  0.51850000  0.00990500  0.33705400  1
  C  142  1  0.53493600  0.01185100  0.31561300  1
  C  143  1  0.56606000  0.01192000  0.31550100  1
  C  157  1  0.62829900  0.03189100  0.69652900  1
  C  158  1  0.58122100  0.00977000  0.69719400  1
  C  159  1  0.62840100  0.98836800  0.69649700  1
  C  160  1  0.63581500  0.97596000  0.71744600  1
  C  161  1  0.65274900  0.95496200  0.71643800  1
  C  162  1  0.66278100  0.94557500  0.69446700  1
  C  163  1  0.65475500  0.95810500  0.67352200  1
  C  164  1  0.63799000  0.97919300  0.67449200  1
  C  165  1  0.62923400  0.04546600  0.67545200  1
  C  166  1  0.64551200  0.06678000  0.67442800  1
  C  167  1  0.66153500  0.07525300  0.69437800  1
  C  168  1  0.66028700  0.06153800  0.71549900  1
  C  169  1  0.64397000  0.04022300  0.71654800  1
  C  170  1  0.56513200  0.00834600  0.71858700  1
  C  171  1  0.53401000  0.00815300  0.71839200  1
  C  172  1  0.51773400  0.00968300  0.69686200  1
  C  173  1  0.53432800  0.01105400  0.67547700  1
  C  174  1  0.56545900  0.01088900  0.67559600  1
  C  188  1  0.62838300  0.33061100  0.03902500  1
  C  189  1  0.58120800  0.32990400  0.01699200  1
  C  190  1  0.62831200  0.33063200  0.99549600  1
  C  191  1  0.63645500  0.30968200  0.98339000  1
  C  192  1  0.65316900  0.31076800  0.96228000  1
  C  193  1  0.66229500  0.33282100  0.95249200  1
  C  194  1  0.65356900  0.35375600  0.96473500  1
  C  195  1  0.63698100  0.35271200  0.98591300  1
  C  196  1  0.62971500  0.35179300  0.05241500  1
  C  197  1  0.64597000  0.35280600  0.07374100  1
  C  198  1  0.66164100  0.33275500  0.08240000  1
  C  199  1  0.66004800  0.31154300  0.06884500  1
  C  200  1  0.64371600  0.31049600  0.04753400  1
  C  201  1  0.56515600  0.30854400  0.01486400  1
  C  202  1  0.53403200  0.30869500  0.01470100  1
  C  203  1  0.51771600  0.33014200  0.01691700  1
  C  204  1  0.53425100  0.35149600  0.01896100  1
  C  205  1  0.56538200  0.35142700  0.01880900  1
  C  219  1  0.62851800  0.68936400  0.99502500  1
  C  220  1  0.58131200  0.68995800  0.01695600  1
  C  221  1  0.62830800  0.68909100  0.03855000  1
  C  222  1  0.63561600  0.70993800  0.05116400  1
  C  223  1  0.65228600  0.70875700  0.07228800  1
  C  224  1  0.66214700  0.68670300  0.08159200  1
  C  225  1  0.65423200  0.66585700  0.06885100  1
  C  226  1  0.63772500  0.66700400  0.04764200  1
  C  227  1  0.62961600  0.66830400  0.98143100  1
  C  228  1  0.64601800  0.66735200  0.96017500  1
  C  229  1  0.66199700  0.68735900  0.95178700  1
  C  230  1  0.66057900  0.70846400  0.96551400  1
  C  231  1  0.64416300  0.70943300  0.98678200  1
  C  232  1  0.56522700  0.71135300  0.01837700  1
  C  233  1  0.53410800  0.71115600  0.01856600  1
  C  234  1  0.51783700  0.68962200  0.01703800  1
  C  235  1  0.53443000  0.66823800  0.01565700  1
  C  236  1  0.56556100  0.66835900  0.01582100  1
  C  250  1  0.87513100  0.53175300  0.83834500  1
  C  251  1  0.92234800  0.50978200  0.83742600  1
  C  252  1  0.87478600  0.48832700  0.83811400  1
  C  253  1  0.86920800  0.47523500  0.81722100  1
  C  254  1  0.85213800  0.45427500  0.81799600  1
  C  255  1  0.84035100  0.44552600  0.83968400  1
  C  256  1  0.84674800  0.45869500  0.86059900  1
  C  257  1  0.86338100  0.47982900  0.85982400  1
  C  258  1  0.87544000  0.54595900  0.85899700  1
  C  259  1  0.85917400  0.56730200  0.85993600  1
  C  260  1  0.84221100  0.57521400  0.84025100  1
  C  261  1  0.84239000  0.56091400  0.81950500  1
  C  262  1  0.85853400  0.53952100  0.81858200  1
  C  263  1  0.93832000  0.52030400  0.81864800  1
  C  264  1  0.96944600  0.52047100  0.81876900  1
  C  265  1  0.98589300  0.50972200  0.83738700  1
  C  266  1  0.96947700  0.49909900  0.85608700  1
  C  267  1  0.93835300  0.49933900  0.85625200  1
  C  281  1  0.87517300  0.48814400  0.19658200  1
  C  282  1  0.92284300  0.50971300  0.19701900  1
  C  283  1  0.87538700  0.53145500  0.19585700  1
  C  284  1  0.85923000  0.53965800  0.21567800  1
  C  285  1  0.84307900  0.56103200  0.21453500  1
  C  286  1  0.84242100  0.57487200  0.19348900  1
  C  287  1  0.85889600  0.56650700  0.17372100  1
  C  288  1  0.87521300  0.54519400  0.17488900  1
  C  289  1  0.86494500  0.47905500  0.17472700  1
  C  290  1  0.84833900  0.45791600  0.17392600  1
  C  291  1  0.84070000  0.44536400  0.19494500  1
  C  292  1  0.85118600  0.45474300  0.21680000  1
  C  293  1  0.86827400  0.47569700  0.21761600  1
  C  294  1  0.93892500  0.49763400  0.17923300  1
  C  295  1  0.97005100  0.49743700  0.17942900  1
  C  296  1  0.98653100  0.50996500  0.19688800  1
  C  297  1  0.96998500  0.52246200  0.21433800  1
  C  298  1  0.93886100  0.52203400  0.21464900  1
  C  312  1  0.87521700  0.18955400  0.53889200  1
  C  313  1  0.92218000  0.19023700  0.51722800  1
  C  314  1  0.87483500  0.18979100  0.49540600  1
  C  315  1  0.85961000  0.21000900  0.48702000  1
  C  316  1  0.84295700  0.20905200  0.46587000  1
  C  317  1  0.84092300  0.18783000  0.45237800  1
  C  318  1  0.85650100  0.16767500  0.46090300  1
  C  319  1  0.87308700  0.16859900  0.48206500  1
  C  320  1  0.86652000  0.16743300  0.54835900  1
  C  321  1  0.85000200  0.16629900  0.56956200  1
  C  322  1  0.84139800  0.18718800  0.58193600  1
  C  323  1  0.85054100  0.20928100  0.57226400  1
  C  324  1  0.86718000  0.21045500  0.55112500  1
  C  325  1  0.93784700  0.16865600  0.51520500  1
  C  326  1  0.96897600  0.16845200  0.51501100  1
  C  327  1  0.98564800  0.18972300  0.51719400  1
  C  328  1  0.96949300  0.21122300  0.51961200  1
  C  329  1  0.93837300  0.21150700  0.51951300  1
  C  343  1  0.87505600  0.83076400  0.49547900  1
  C  344  1  0.92250100  0.83010800  0.51706800  1
  C  345  1  0.87519900  0.83101500  0.53892900  1
  C  346  1  0.85835500  0.81133600  0.54656100  1
  C  347  1  0.84206700  0.81229400  0.56788500  1
  C  348  1  0.84200500  0.83298500  0.58226800  1
  C  349  1  0.85924700  0.85257200  0.57450400  1
  C  350  1  0.87563000  0.85160800  0.55322100  1
  C  351  1  0.86354800  0.85243200  0.48696100  1
  C  352  1  0.84700500  0.85315200  0.46577800  1
  C  353  1  0.84079700  0.83222100  0.45257200  1
  C  354  1  0.85268600  0.81057800  0.46134200  1
  C  355  1  0.86967000  0.80986000  0.48235000  1
  C  356  1  0.93851900  0.84910300  0.50695200  1
  C  357  1  0.96964300  0.84897700  0.50681200  1
  C  358  1  0.98603000  0.83010500  0.51715200  1
  C  359  1  0.96957400  0.81129300  0.52754300  1
  C  360  1  0.93844400  0.81117400  0.52732800  1
  C  374  1  0.12828200  0.48792700  0.83767000  1
  C  375  1  0.08123900  0.50951400  0.83692300  1
  C  376  1  0.12846900  0.53143700  0.83752800  1
  C  377  1  0.14387000  0.53984100  0.81740200  1
  C  378  1  0.16031900  0.56109200  0.81841700  1
  C  379  1  0.16196500  0.57467100  0.83960400  1
  C  380  1  0.14622500  0.56612300  0.85966700  1
  C  381  1  0.12982700  0.54486700  0.85868300  1
  C  382  1  0.13716300  0.47850100  0.85976200  1
  C  383  1  0.15375700  0.45733000  0.86084800  1
  C  384  1  0.16228600  0.44494700  0.83994200  1
  C  385  1  0.15296200  0.45458800  0.81788000  1
  C  386  1  0.13622100  0.47567900  0.81675100  1
  C  387  1  0.06548800  0.51106600  0.85850100  1
  C  388  1  0.03435900  0.51129200  0.85862600  1
  C  389  1  0.01775400  0.50957800  0.83727300  1
  C  390  1  0.03400800  0.50764200  0.81576800  1
  C  391  1  0.06513000  0.50773800  0.81556400  1
  C  405  1  0.12889200  0.53207000  0.19638100  1
  C  406  1  0.08199400  0.50991900  0.19714000  1
  C  407  1  0.12919400  0.48848700  0.19626000  1
  C  408  1  0.13505600  0.47541400  0.21712000  1
  C  409  1  0.15203600  0.45443300  0.21625100  1
  C  410  1  0.16358200  0.44567400  0.19449800  1
  C  411  1  0.15704200  0.45885700  0.17361400  1
  C  412  1  0.14032700  0.47997300  0.17446500  1
  C  413  1  0.12862000  0.54615200  0.17563100  1
  C  414  1  0.14474100  0.56754600  0.17458100  1
  C  415  1  0.16168600  0.57560800  0.19420300  1
  C  416  1  0.16156100  0.56141400  0.21502800  1
  C  417  1  0.14546800  0.53999200  0.21608900  1
  C  418  1  0.06599700  0.51177700  0.21853200  1
  C  419  1  0.03487500  0.51154100  0.21841800  1
  C  420  1  0.01846500  0.50994100  0.19693800  1
  C  421  1  0.03506300  0.50824600  0.17555600  1
  C  422  1  0.06619300  0.50797200  0.17563500  1
  C  436  1  0.12862200  0.83036600  0.53925800  1
  C  437  1  0.08137600  0.82976700  0.51726200  1
  C  438  1  0.12846600  0.83051000  0.49573900  1
  C  439  1  0.13670100  0.80957400  0.48364800  1
  C  440  1  0.15340700  0.81069600  0.46253500  1
  C  441  1  0.16244100  0.83276800  0.45273900  1
  C  442  1  0.15363600  0.85368700  0.46497300  1
  C  443  1  0.13704700  0.85260800  0.48614900  1
  C  444  1  0.13009200  0.85151600  0.55269200  1
  C  445  1  0.14650800  0.85245800  0.57394100  1
  C  446  1  0.16222500  0.83237500  0.58247500  1
  C  447  1  0.16047200  0.81119400  0.56888400  1
  C  448  1  0.14397000  0.81021200  0.54765700  1
  C  449  1  0.06531300  0.80844700  0.51481700  1
  C  450  1  0.03418700  0.80860700  0.51462400  1
  C  451  1  0.01788400  0.83003000  0.51710400  1
  C  452  1  0.03442400  0.85135100  0.51945400  1
  C  453  1  0.06555400  0.85126900  0.51934900  1
  C  467  1  0.12819500  0.18832400  0.49499400  1
  C  468  1  0.08100200  0.18933900  0.51696300  1
  C  469  1  0.12850000  0.18858000  0.53844400  1
  C  470  1  0.13355600  0.20942000  0.55175800  1
  C  471  1  0.15053200  0.20867900  0.57276700  1
  C  472  1  0.16274200  0.18707400  0.58133100  1
  C  473  1  0.15686800  0.16619900  0.56794400  1
  C  474  1  0.14030600  0.16694500  0.54677500  1
  C  475  1  0.12772700  0.16770800  0.48073700  1
  C  476  1  0.14399300  0.16673900  0.45939700  1
  C  477  1  0.16112800  0.18635000  0.45155000  1
  C  478  1  0.16109100  0.20707000  0.46588800  1
  C  479  1  0.14495400  0.20802100  0.48728500  1
  C  480  1  0.06511200  0.20827500  0.50665500  1
  C  481  1  0.03398700  0.20824100  0.50651100  1
  C  482  1  0.01749200  0.18953300  0.51704700  1
  C  483  1  0.03382500  0.17066200  0.52744400  1
  C  484  1  0.06494700  0.17043500  0.52721100  1
  C  497  1  0.23317900  0.18064900  0.36746800  1
  C  499  1  0.25161900  0.19587400  0.33052900  1
  C  501  1  0.26980400  0.15881600  0.34568600  1
  C  503  1  0.25163400  0.21392300  0.31251100  1
  C  504  1  0.22880300  0.23109100  0.31102400  1
  C  505  1  0.22870400  0.24873100  0.29319600  1
  C  506  1  0.25160600  0.25042000  0.27605900  1
  C  507  1  0.27451600  0.23328600  0.27770700  1
  C  508  1  0.27444500  0.21543100  0.29532700  1
  C  509  1  0.21478500  0.18218300  0.38813600  1
  C  510  1  0.19767300  0.20265300  0.39319100  1
  C  511  1  0.18010400  0.20409200  0.41387100  1
  C  512  1  0.17859700  0.18502800  0.43030000  1
  C  513  1  0.19557900  0.16454000  0.42520700  1
  C  514  1  0.21325800  0.16318100  0.40467900  1
  C  515  1  0.28814200  0.13810300  0.34417500  1
  C  516  1  0.28842700  0.12090600  0.36263400  1
  C  517  1  0.30617300  0.10040800  0.36132900  1
  C  518  1  0.32448600  0.09600300  0.34143500  1
  C  519  1  0.32421000  0.11307400  0.32290400  1
  C  520  1  0.30654100  0.13370300  0.32428500  1
  C  533  1  0.23378700  0.83856900  0.66688800  1
  C  535  1  0.25191900  0.82344800  0.70397000  1
  C  537  1  0.26834200  0.86135600  0.68980200  1
  C  539  1  0.25216700  0.80527300  0.72183400  1
  C  540  1  0.24098000  0.78219300  0.71729700  1
  C  541  1  0.24119200  0.76435200  0.73492200  1
  C  542  1  0.25217800  0.76869200  0.75814300  1
  C  543  1  0.26318600  0.79187000  0.76264500  1
  C  544  1  0.26337800  0.80962900  0.74494300  1
  C  545  1  0.21587300  0.83676300  0.64596300  1
  C  546  1  0.19827100  0.81648800  0.64120700  1
  C  547  1  0.18075100  0.81496800  0.62050200  1
  C  548  1  0.17989400  0.83369300  0.60365100  1
  C  549  1  0.19755400  0.85390900  0.60838000  1
  C  550  1  0.21506400  0.85540400  0.62898700  1
  C  551  1  0.28576000  0.88247200  0.69185200  1
  C  552  1  0.27976100  0.90262800  0.67752500  1
  C  553  1  0.29726800  0.92325200  0.67878400  1
  C  554  1  0.32197200  0.92472900  0.69417700  1
  C  555  1  0.32773800  0.90466700  0.70874000  1
  C  556  1  0.30997200  0.88406500  0.70770300  1
  C  569  1  0.23287500  0.66013200  0.18793400  1
  C  571  1  0.25158800  0.69687400  0.20340600  1
  C  573  1  0.26871300  0.68240900  0.16581400  1
  C  575  1  0.25172300  0.71472000  0.22159700  1
  C  576  1  0.22890300  0.71611300  0.23877800  1
  C  577  1  0.22875500  0.73391400  0.25643600  1
  C  578  1  0.25159900  0.75109400  0.25810700  1
  C  579  1  0.27452700  0.74951500  0.24098600  1
  C  580  1  0.27449600  0.73192700  0.22310800  1
  C  581  1  0.21469600  0.63935400  0.18959900  1
  C  582  1  0.19783000  0.63421800  0.21018500  1
  C  583  1  0.18048600  0.61342700  0.21176500  1
  C  584  1  0.17900800  0.59693200  0.19276000  1
  C  585  1  0.19577800  0.60210100  0.17216900  1
  C  586  1  0.21319500  0.62276000  0.17064700  1
  C  587  1  0.28640300  0.68431700  0.14482700  1
  C  588  1  0.28037700  0.67007800  0.12461000  1
  C  589  1  0.29788800  0.67138100  0.10399800  1
  C  590  1  0.32261700  0.68674900  0.10257900  1
  C  591  1  0.32844700  0.70120100  0.12270700  1
  C  592  1  0.31067000  0.70011900  0.14330400  1
  C  605  1  0.23418500  0.36061800  0.84551200  1
  C  607  1  0.25155500  0.32318500  0.83072000  1
  C  609  1  0.26863100  0.33767800  0.86832900  1
  C  611  1  0.25156800  0.30519500  0.81265900  1
  C  612  1  0.24027100  0.30963900  0.78959200  1
  C  613  1  0.24044300  0.29195600  0.77180500  1
  C  614  1  0.25149700  0.26876200  0.77617600  1
  C  615  1  0.26259400  0.26434800  0.79934800  1
  C  616  1  0.26282600  0.28210700  0.81705300  1
  C  617  1  0.21652200  0.38164300  0.84362000  1
  C  618  1  0.19357200  0.38376100  0.82665000  1
  C  619  1  0.17578300  0.40433600  0.82546100  1
  C  620  1  0.18022000  0.42384300  0.84103700  1
  C  621  1  0.20350300  0.42181500  0.85773000  1
  C  622  1  0.22108500  0.40122300  0.85906800  1
  C  623  1  0.28612900  0.33563400  0.88940300  1
  C  624  1  0.28029100  0.35005000  0.90952100  1
  C  625  1  0.29777100  0.34870600  0.93015500  1
  C  626  1  0.32231000  0.33314300  0.93167700  1
  C  627  1  0.32793400  0.31851600  0.91163300  1
  C  628  1  0.31017500  0.31962400  0.89102900  1
  C  641  1  0.76914500  0.83739100  0.36808200  1
  C  643  1  0.75194700  0.82280500  0.33053600  1
  C  645  1  0.73483500  0.86036400  0.34518300  1
  C  647  1  0.75187400  0.80476700  0.31251600  1
  C  648  1  0.76309400  0.78167200  0.31693400  1
  C  649  1  0.76281300  0.76388400  0.29924900  1
  C  650  1  0.75169700  0.76827200  0.27607800  1
  C  651  1  0.74067200  0.79147200  0.27168900  1
  C  652  1  0.74055900  0.80918300  0.28945000  1
  C  653  1  0.78661700  0.83537800  0.38917400  1
  C  654  1  0.81059900  0.81931500  0.39088500  1
  C  655  1  0.82833300  0.81825000  0.41150500  1
  C  656  1  0.82273800  0.83296200  0.43149200  1
  C  657  1  0.79826100  0.84857900  0.42988800  1
  C  658  1  0.78081100  0.84988700  0.40923600  1
  C  659  1  0.71731700  0.88144700  0.34324300  1
  C  660  1  0.72287100  0.90141600  0.35795300  1
  C  661  1  0.70536400  0.92205000  0.35666600  1
  C  662  1  0.68113000  0.92372800  0.34082100  1
  C  663  1  0.67574600  0.90381800  0.32595500  1
  C  664  1  0.69350100  0.88321600  0.32703200  1
  C  677  1  0.76924000  0.18167100  0.66610600  1
  C  679  1  0.75181400  0.19638500  0.70354300  1
  C  681  1  0.73317200  0.15957200  0.68818700  1
  C  683  1  0.75194700  0.21429200  0.72168600  1
  C  684  1  0.77477400  0.23145200  0.72319900  1
  C  685  1  0.77485800  0.24905400  0.74106700  1
  C  686  1  0.75192900  0.25070600  0.75818400  1
  C  687  1  0.72903000  0.23357100  0.75651100  1
  C  688  1  0.72912500  0.21575100  0.73886400  1
  C  689  1  0.78714700  0.18343100  0.64519600  1
  C  690  1  0.81022700  0.20030100  0.64317900  1
  C  691  1  0.82803300  0.20151900  0.62261400  1
  C  692  1  0.82351100  0.18604100  0.60304600  1
  C  693  1  0.80015400  0.16941400  0.60498600  1
  C  694  1  0.78253000  0.16807700  0.62554500  1
  C  695  1  0.71494700  0.13881900  0.68985700  1
  C  696  1  0.71401200  0.12190500  0.67116400  1
  C  697  1  0.69651600  0.10129200  0.67267700  1
  C  698  1  0.67904000  0.09649700  0.69297900  1
  C  699  1  0.67996800  0.11330900  0.71173000  1
  C  700  1  0.69743100  0.13403700  0.71017400  1
  C  713  1  0.76869400  0.36107700  0.18928600  1
  C  715  1  0.75143000  0.32353500  0.20380200  1
  C  717  1  0.73292200  0.33890500  0.16695500  1
  C  719  1  0.75160900  0.30537600  0.22167700  1
  C  720  1  0.77441800  0.30392900  0.23886000  1
  C  721  1  0.77454600  0.28606500  0.25645700  1
  C  722  1  0.75168800  0.26888700  0.25806500  1
  C  723  1  0.72881100  0.27048900  0.24090500  1
  C  724  1  0.72886200  0.28813400  0.22308800  1
  C  725  1  0.78643100  0.38205200  0.19123400  1
  C  726  1  0.80949200  0.38408400  0.20812400  1
  C  727  1  0.82722600  0.40469200  0.20940600  1
  C  728  1  0.82260900  0.42432300  0.19401800  1
  C  729  1  0.79912000  0.42239400  0.17749100  1
  C  730  1  0.78163100  0.40178000  0.17603400  1
  C  731  1  0.71483000  0.33722500  0.14612100  1
  C  732  1  0.71415400  0.35584300  0.12911600  1
  C  733  1  0.69675300  0.35434000  0.10845000  1
  C  734  1  0.67910200  0.33412600  0.10368100  1
  C  735  1  0.67977800  0.31544800  0.12058600  1
  C  736  1  0.69716800  0.31698700  0.14136000  1
  C  749  1  0.77037700  0.65944100  0.84576400  1
  C  751  1  0.75204000  0.69639600  0.83050300  1
  C  753  1  0.73394500  0.68138900  0.86763600  1
  C  755  1  0.75194300  0.71438100  0.81243100  1
  C  756  1  0.77472100  0.71589000  0.79522500  1
  C  757  1  0.77472500  0.73372200  0.77758300  1
  C  758  1  0.75176600  0.75081300  0.77593600  1
  C  759  1  0.72889100  0.74911700  0.79309500  1
  C  760  1  0.72906500  0.73150500  0.81095000  1
  C  761  1  0.78868200  0.63871400  0.84426200  1
  C  762  1  0.80591700  0.63365600  0.82386100  1
  C  763  1  0.82345300  0.61295100  0.82247800  1
  C  764  1  0.82477400  0.59648400  0.84151900  1
  C  765  1  0.80764500  0.60157100  0.86192900  1
  C  766  1  0.79002100  0.62213000  0.86323900  1
  C  767  1  0.71571300  0.68304200  0.88838600  1
  C  768  1  0.71492000  0.66439800  0.90535700  1
  C  769  1  0.69732700  0.66584300  0.92592000  1
  C  770  1  0.67962300  0.68604000  0.93060800  1
  C  771  1  0.68043200  0.70475900  0.91375800  1
  C  772  1  0.69797400  0.70325500  0.89306700  1
  C  785  1  0.77012100  0.83889500  0.66647800  1
  C  787  1  0.75187000  0.82371200  0.70350000  1
  C  789  1  0.73516000  0.86151100  0.68917900  1
  C  791  1  0.75164900  0.80555600  0.72139800  1
  C  792  1  0.76297000  0.78250400  0.71693000  1
  C  793  1  0.76278900  0.76468400  0.73458500  1
  C  794  1  0.75169100  0.76900400  0.75777500  1
  C  795  1  0.74054100  0.79215600  0.76220600  1
  C  796  1  0.74031600  0.80989200  0.74447300  1
  C  797  1  0.78822700  0.83720600  0.64564800  1
  C  798  1  0.80507100  0.81662000  0.64047300  1
  C  799  1  0.82265600  0.81516000  0.61979900  1
  C  800  1  0.82443000  0.83429700  0.60347300  1
  C  801  1  0.80764100  0.85487100  0.60865200  1
  C  802  1  0.78997000  0.85626500  0.62918300  1
  C  803  1  0.71747200  0.88251700  0.69109800  1
  C  804  1  0.72239400  0.90230300  0.67598800  1
  C  805  1  0.70467200  0.92281800  0.67723700  1
  C  806  1  0.68090000  0.92457100  0.69350900  1
  C  807  1  0.67613700  0.90488100  0.70878800  1
  C  808  1  0.69405700  0.88437500  0.70768400  1
  C  821  1  0.76904100  0.18165700  0.36819900  1
  C  823  1  0.75165300  0.19631900  0.33072700  1
  C  825  1  0.73415700  0.15892400  0.34551000  1
  C  827  1  0.75167100  0.21431800  0.31269700  1
  C  828  1  0.76279100  0.23743400  0.31715800  1
  C  829  1  0.76258800  0.25519500  0.29945700  1
  C  830  1  0.75168800  0.25073300  0.27623600  1
  C  831  1  0.74076900  0.22751200  0.27180400  1
  C  832  1  0.74055900  0.20983100  0.28958500  1
  C  833  1  0.78692400  0.18350900  0.38912800  1
  C  834  1  0.80487900  0.20363300  0.39365700  1
  C  835  1  0.82249200  0.20514400  0.41430700  1
  C  836  1  0.82310400  0.18654800  0.43130000  1
  C  837  1  0.80507600  0.16649000  0.42681200  1
  C  838  1  0.78745200  0.16501600  0.40627100  1
  C  839  1  0.71626600  0.13799700  0.34371200  1
  C  840  1  0.71490500  0.12132200  0.36260600  1
  C  841  1  0.69732500  0.10075100  0.36115300  1
  C  842  1  0.68024600  0.09575300  0.34068800  1
  C  843  1  0.68167800  0.11226700  0.32169700  1
  C  844  1  0.69917600  0.13298000  0.32322000  1
  C  857  1  0.76855900  0.36114800  0.84514900  1
  C  859  1  0.75154500  0.32350700  0.83069300  1
  C  861  1  0.73413900  0.33832000  0.86811200  1
  C  863  1  0.75165100  0.30543100  0.81271700  1
  C  864  1  0.76295700  0.30982800  0.78964200  1
  C  865  1  0.76286200  0.29209500  0.77190800  1
  C  866  1  0.75185900  0.26890100  0.77633500  1
  C  867  1  0.74074000  0.26453300  0.79950900  1
  C  868  1  0.74043800  0.28234300  0.81716900  1
  C  869  1  0.78605500  0.38222100  0.84307600  1
  C  870  1  0.80995600  0.38388700  0.82693000  1
  C  871  1  0.82771900  0.40448600  0.82578100  1
  C  872  1  0.82223400  0.42448700  0.84049700  1
  C  873  1  0.79784800  0.42292600  0.85620800  1
  C  874  1  0.78036300  0.40229500  0.85759300  1
  C  875  1  0.71648900  0.33644100  0.88915200  1
  C  876  1  0.72093800  0.35200400  0.90865900  1
  C  877  1  0.70336700  0.35068900  0.92925700  1
  C  878  1  0.68022000  0.33388600  0.93138000  1
  C  879  1  0.67590700  0.31818200  0.91195700  1
  C  880  1  0.69368200  0.31935900  0.89136900  1
  C  893  1  0.77060700  0.65910100  0.18766600  1
  C  895  1  0.75181400  0.69581100  0.20319200  1
  C  897  1  0.73438700  0.68117700  0.16572300  1
  C  899  1  0.75165100  0.71368700  0.22137800  1
  C  900  1  0.77445300  0.71513600  0.23857200  1
  C  901  1  0.77454200  0.73295100  0.25622800  1
  C  902  1  0.75164400  0.75009000  0.25790800  1
  C  903  1  0.72872900  0.74844700  0.24077800  1
  C  904  1  0.72882000  0.73084800  0.22290400  1
  C  905  1  0.78894500  0.63839400  0.18919500  1
  C  906  1  0.80665800  0.63364900  0.20940800  1
  C  907  1  0.82421100  0.61296300  0.21085500  1
  C  908  1  0.82503700  0.59616600  0.19208600  1
  C  909  1  0.80743700  0.60093400  0.17185900  1
  C  910  1  0.78982000  0.62149900  0.17047400  1
  C  911  1  0.71646700  0.68296600  0.14482900  1
  C  912  1  0.72146600  0.66795300  0.12497900  1
  C  913  1  0.70383000  0.66929900  0.10442600  1
  C  914  1  0.68006500  0.68557200  0.10269500  1
  C  915  1  0.67517600  0.70072100  0.12246700  1
  C  916  1  0.69300100  0.69950900  0.14302300  1
  C  929  1  0.23481200  0.18200500  0.66557400  1
  C  931  1  0.25187500  0.19643100  0.70320500  1
  C  933  1  0.27085600  0.15982900  0.68758300  1
  C  935  1  0.25160800  0.21424500  0.72143700  1
  C  936  1  0.22873500  0.23136600  0.72296300  1
  C  937  1  0.22858900  0.24894600  0.74085300  1
  C  938  1  0.25149300  0.25060300  0.75799000  1
  C  939  1  0.27443000  0.23350000  0.75631200  1
  C  940  1  0.27439700  0.21570500  0.73864200  1
  C  941  1  0.21708600  0.18389900  0.64460400  1
  C  942  1  0.19268400  0.19957400  0.64316100  1
  C  943  1  0.17488900  0.20065200  0.62257500  1
  C  944  1  0.18082400  0.18631800  0.60238100  1
  C  945  1  0.20567300  0.17107000  0.60372600  1
  C  946  1  0.22320800  0.16977100  0.62432800  1
  C  947  1  0.28918900  0.13912100  0.68912100  1
  C  948  1  0.29083500  0.12264800  0.67006400  1
  C  949  1  0.30839000  0.10205200  0.67146300  1
  C  950  1  0.32514000  0.09681400  0.69204400  1
  C  951  1  0.32353600  0.11319100  0.71114700  1
  C  952  1  0.30607100  0.13392600  0.70968200  1
  C  965  1  0.23403400  0.83845700  0.36823600  1
  C  967  1  0.25113300  0.82377200  0.33068800  1
  C  969  1  0.26834400  0.86134400  0.34519700  1
  C  971  1  0.25118100  0.80574600  0.31267200  1
  C  972  1  0.24010500  0.78261800  0.31713100  1
  C  973  1  0.24045000  0.76482800  0.29945600  1
  C  974  1  0.25146600  0.76926800  0.27626500  1
  C  975  1  0.26231300  0.79250600  0.27182400  1
  C  976  1  0.26237000  0.81021600  0.28957600  1
  C  977  1  0.21647700  0.83652300  0.38932200  1
  C  978  1  0.19370600  0.81940900  0.39156200  1
  C  979  1  0.17599800  0.81818100  0.41218200  1
  C  980  1  0.18032700  0.83387400  0.43160900  1
  C  981  1  0.20342900  0.85071400  0.42946300  1
  C  982  1  0.22093900  0.85207800  0.40883300  1
  C  983  1  0.28590200  0.88239800  0.34305400  1
  C  984  1  0.28174000  0.90188100  0.35867900  1
  C  985  1  0.29922700  0.92249400  0.35710500  1
  C  986  1  0.32208200  0.92465300  0.34003400  1
  C  987  1  0.32603200  0.90526700  0.32422300  1
  C  988  1  0.30830400  0.88466800  0.32562900  1
  C  1001  1  0.23388400  0.65883600  0.84568300  1
  C  1003  1  0.25202300  0.69594400  0.83067200  1
  C  1005  1  0.27027000  0.68071800  0.86766400  1
  C  1007  1  0.25203800  0.71399900  0.81268200  1
  C  1008  1  0.22924700  0.71550800  0.79548600  1
  C  1009  1  0.22920700  0.73336500  0.77787400  1
  C  1010  1  0.25213300  0.75048400  0.77627100  1
  C  1011  1  0.27501100  0.74880200  0.79342500  1
  C  1012  1  0.27487600  0.73116000  0.81124700  1
  C  1013  1  0.21566100  0.63808300  0.84400400  1
  C  1014  1  0.19780400  0.63348700  0.82384000  1
  C  1015  1  0.18025900  0.61280000  0.82231400  1
  C  1016  1  0.17958900  0.59585300  0.84095200  1
  C  1017  1  0.19742300  0.60045600  0.86109500  1
  C  1018  1  0.21500300  0.62102300  0.86257100  1
  C  1019  1  0.28856200  0.68227200  0.88838600  1
  C  1020  1  0.28989100  0.66334000  0.90502100  1
  C  1021  1  0.30753800  0.66470300  0.92556600  1
  C  1022  1  0.32467200  0.68512800  0.93058500  1
  C  1023  1  0.32335000  0.70412400  0.91407100  1
  C  1024  1  0.30581200  0.70268200  0.89337600  1
  C  1037  1  0.23558500  0.36137900  0.18955200  1
  C  1039  1  0.25201600  0.32345900  0.20374000  1
  C  1041  1  0.27040900  0.33871100  0.16678400  1
  C  1043  1  0.25169800  0.30525900  0.22159700  1
  C  1044  1  0.24033500  0.30956600  0.24466800  1
  C  1045  1  0.24049600  0.29180200  0.26237300  1
  C  1046  1  0.25160100  0.26864000  0.25792100  1
  C  1047  1  0.26273100  0.26434600  0.23473400  1
  C  1048  1  0.26297800  0.28219600  0.21710600  1
  C  1049  1  0.21805700  0.38245800  0.19149600  1
  C  1050  1  0.19386600  0.38404400  0.20736300  1
  C  1051  1  0.17602600  0.40460300  0.20835000  1
  C  1052  1  0.18167400  0.42463100  0.19370700  1
  C  1053  1  0.20627600  0.42314300  0.17822000  1
  C  1054  1  0.22388400  0.40256200  0.17703700  1
  C  1055  1  0.28848400  0.33704700  0.14593300  1
  C  1056  1  0.29025600  0.35615200  0.12952300  1
  C  1057  1  0.30786900  0.35478500  0.10895900  1
  C  1058  1  0.32458100  0.33419500  0.10369200  1
  C  1059  1  0.32278100  0.31500800  0.11996300  1
  C  1060  1  0.30524900  0.31644300  0.14066900  1
  C  1074  1  0.52993200  0.03151800  0.83564700  1
  C  1075  1  0.57746300  0.00982400  0.83467300  1
  C  1076  1  0.52970900  0.98825600  0.83502500  1
  C  1077  1  0.52199100  0.97614700  0.81398000  1
  C  1078  1  0.50474600  0.95528000  0.81487400  1
  C  1079  1  0.49489800  0.94564600  0.83681300  1
  C  1080  1  0.50333000  0.95787000  0.85782800  1
  C  1081  1  0.52007500  0.97893700  0.85695800  1
  C  1082  1  0.52907100  0.04499500  0.85677200  1
  C  1083  1  0.51258900  0.06623100  0.85789400  1
  C  1084  1  0.49666300  0.07479000  0.83791700  1
  C  1085  1  0.49802600  0.06121900  0.81672000  1
  C  1086  1  0.51431800  0.03991400  0.81562400  1
  C  1087  1  0.59356500  0.02234100  0.81722600  1
  C  1088  1  0.62468900  0.02275200  0.81759800  1
  C  1089  1  0.64119100  0.01001100  0.83489800  1
  C  1090  1  0.62464100  0.99728400  0.85216900  1
  C  1091  1  0.59351200  0.99751500  0.85232500  1
  C  1105  1  0.52932500  0.98849100  0.19387700  1
  C  1106  1  0.57695300  0.00986100  0.19448000  1
  C  1107  1  0.52980600  0.03192300  0.19336700  1
  C  1108  1  0.51301100  0.03972900  0.21300600  1
  C  1109  1  0.49697500  0.06116900  0.21196900  1
  C  1110  1  0.49709400  0.07548200  0.19123000  1
  C  1111  1  0.51426500  0.06753300  0.17167700  1
  C  1112  1  0.53041800  0.04614000  0.17272400  1
  C  1113  1  0.51755000  0.98003000  0.17228000  1
  C  1114  1  0.50084700  0.95892700  0.17166100  1
  C  1115  1  0.49477000  0.94574500  0.19262900  1
  C  1116  1  0.50693300  0.95444800  0.21419900  1
  C  1117  1  0.52405400  0.97538600  0.21481400  1
  C  1118  1  0.59297100  0.99918700  0.17579300  1
  C  1119  1  0.62409500  0.99893100  0.17598700  1
  C  1120  1  0.64050200  0.00979000  0.19455800  1
  C  1121  1  0.62403600  0.02076500  0.21303400  1
  C  1122  1  0.59290900  0.02059700  0.21314300  1
  C  1136  1  0.52958300  0.68892200  0.53645100  1
  C  1137  1  0.57707200  0.68952100  0.51488900  1
  C  1138  1  0.52978600  0.68851800  0.49303400  1
  C  1139  1  0.51313600  0.70824400  0.48524500  1
  C  1140  1  0.49693700  0.70724400  0.46388400  1
  C  1141  1  0.49676500  0.68645900  0.44964300  1
  C  1142  1  0.51377500  0.66681200  0.45757600  1
  C  1143  1  0.53009400  0.66782500  0.47888800  1
  C  1144  1  0.51791700  0.66727900  0.54489200  1
  C  1145  1  0.50136000  0.66656800  0.56606400  1
  C  1146  1  0.49532900  0.68748900  0.57933300  1
  C  1147  1  0.50738800  0.70910400  0.57065600  1
  C  1148  1  0.52436300  0.70981200  0.54964400  1
  C  1149  1  0.59309900  0.67080900  0.52551100  1
  C  1150  1  0.62422300  0.67096500  0.52568000  1
  C  1151  1  0.64061300  0.68952100  0.51478100  1
  C  1152  1  0.62413700  0.70800900  0.50383800  1
  C  1153  1  0.59301300  0.70815800  0.50410000  1
  C  1167  1  0.52942900  0.33085100  0.49337400  1
  C  1168  1  0.57696000  0.33017600  0.51485100  1
  C  1169  1  0.52973100  0.33104300  0.53681900  1
  C  1170  1  0.51288700  0.31135800  0.54444000  1
  C  1171  1  0.49668800  0.31227000  0.56580900  1
  C  1172  1  0.49672300  0.33291700  0.58025500  1
  C  1173  1  0.51397400  0.35250700  0.57250600  1
  C  1174  1  0.53026100  0.35159000  0.55117400  1
  C  1175  1  0.51782200  0.35252000  0.48494900  1
  C  1176  1  0.50121400  0.35327000  0.46379900  1
  C  1177  1  0.49504600  0.33236800  0.45053600  1
  C  1178  1  0.50703700  0.31072600  0.45921500  1
  C  1179  1  0.52408300  0.30997700  0.48018700  1
  C  1180  1  0.59293800  0.34910300  0.50456700  1
  C  1181  1  0.62406200  0.34898200  0.50436100  1
  C  1182  1  0.64049600  0.33020200  0.51482400  1
  C  1183  1  0.62407300  0.31146900  0.52539300  1
  C  1184  1  0.59294500  0.31132500  0.52522000  1
  C  1198  1  0.78368300  0.98780100  0.83565600  1
  C  1199  1  0.73668200  0.00955700  0.83465500  1
  C  1200  1  0.78383700  0.03135700  0.83524500  1
  C  1201  1  0.80038600  0.03908600  0.81544500  1
  C  1202  1  0.81678200  0.06036300  0.81638500  1
  C  1203  1  0.81725200  0.07458900  0.83718100  1
  C  1204  1  0.80032200  0.06673300  0.85689600  1
  C  1205  1  0.78388400  0.04548900  0.85596300  1
  C  1206  1  0.79441000  0.97919600  0.85754900  1
  C  1207  1  0.81097600  0.95800900  0.85853400  1
  C  1208  1  0.81779600  0.94484400  0.83769300  1
  C  1209  1  0.80666600  0.95370700  0.81584000  1
  C  1210  1  0.78982000  0.97475100  0.81483500  1
  C  1211  1  0.72086300  0.00732600  0.85612300  1
  C  1212  1  0.68973200  0.00774700  0.85620600  1
  C  1213  1  0.67313700  0.00990500  0.83486100  1
  C  1214  1  0.68957300  0.01185100  0.81342000  1
  C  1215  1  0.72069700  0.01192000  0.81330800  1
  C  1229  1  0.78293600  0.03189100  0.19433600  1
  C  1230  1  0.73585800  0.00977000  0.19500100  1
  C  1231  1  0.78303800  0.98836800  0.19430400  1
  C  1232  1  0.79045200  0.97596000  0.21525300  1
  C  1233  1  0.80738600  0.95496200  0.21424500  1
  C  1234  1  0.81741800  0.94557500  0.19227400  1
  C  1235  1  0.80939200  0.95810500  0.17132900  1
  C  1236  1  0.79262700  0.97919300  0.17229900  1
  C  1237  1  0.78387100  0.04546600  0.17325900  1
  C  1238  1  0.80014900  0.06678000  0.17223500  1
  C  1239  1  0.81617200  0.07525300  0.19218500  1
  C  1240  1  0.81492400  0.06153800  0.21330600  1
  C  1241  1  0.79860700  0.04022300  0.21435500  1
  C  1242  1  0.71976900  0.00834600  0.21639400  1
  C  1243  1  0.68864700  0.00815300  0.21619900  1
  C  1244  1  0.67237100  0.00968300  0.19466900  1
  C  1245  1  0.68896500  0.01105400  0.17328400  1
  C  1246  1  0.72009600  0.01088900  0.17340300  1
  C  1260  1  0.78302000  0.33061100  0.53683200  1
  C  1261  1  0.73584500  0.32990400  0.51479900  1
  C  1262  1  0.78294900  0.33063200  0.49330300  1
  C  1263  1  0.79109200  0.30968200  0.48119700  1
  C  1264  1  0.80780600  0.31076800  0.46008700  1
  C  1265  1  0.81693200  0.33282100  0.45029900  1
  C  1266  1  0.80820600  0.35375600  0.46254200  1
  C  1267  1  0.79161800  0.35271200  0.48372000  1
  C  1268  1  0.78435200  0.35179300  0.55022200  1
  C  1269  1  0.80060700  0.35280600  0.57154800  1
  C  1270  1  0.81627800  0.33275500  0.58020700  1
  C  1271  1  0.81468500  0.31154300  0.56665200  1
  C  1272  1  0.79835300  0.31049600  0.54534100  1
  C  1273  1  0.71979300  0.30854400  0.51267100  1
  C  1274  1  0.68866900  0.30869500  0.51250800  1
  C  1275  1  0.67235300  0.33014200  0.51472400  1
  C  1276  1  0.68888800  0.35149600  0.51676800  1
  C  1277  1  0.72001900  0.35142700  0.51661600  1
  C  1291  1  0.78315500  0.68936400  0.49283200  1
  C  1292  1  0.73594900  0.68995800  0.51476300  1
  C  1293  1  0.78294500  0.68909100  0.53635700  1
  C  1294  1  0.79025300  0.70993800  0.54897100  1
  C  1295  1  0.80692300  0.70875700  0.57009500  1
  C  1296  1  0.81678400  0.68670300  0.57939900  1
  C  1297  1  0.80886900  0.66585700  0.56665800  1
  C  1298  1  0.79236200  0.66700400  0.54544900  1
  C  1299  1  0.78425300  0.66830400  0.47923800  1
  C  1300  1  0.80065500  0.66735200  0.45798200  1
  C  1301  1  0.81663400  0.68735900  0.44959400  1
  C  1302  1  0.81521600  0.70846400  0.46332100  1
  C  1303  1  0.79880000  0.70943300  0.48458900  1
  C  1304  1  0.71986400  0.71135300  0.51618400  1
  C  1305  1  0.68874500  0.71115600  0.51637300  1
  C  1306  1  0.67247400  0.68962200  0.51484500  1
  C  1307  1  0.68906700  0.66823800  0.51346400  1
  C  1308  1  0.72019800  0.66835900  0.51362800  1
  C  1322  1  0.02976800  0.53175300  0.33615200  1
  C  1323  1  0.07698500  0.50978200  0.33523300  1
  C  1324  1  0.02942300  0.48832700  0.33592100  1
  C  1325  1  0.02384500  0.47523500  0.31502800  1
  C  1326  1  0.00677501  0.45427500  0.31580300  1
  C  1327  1  0.99498800  0.44552600  0.33749100  1
  C  1328  1  0.00138501  0.45869500  0.35840600  1
  C  1329  1  0.01801800  0.47982900  0.35763100  1
  C  1330  1  0.03007700  0.54595900  0.35680400  1
  C  1331  1  0.01381100  0.56730200  0.35774300  1
  C  1332  1  0.99684800  0.57521400  0.33805800  1
  C  1333  1  0.99702700  0.56091400  0.31731200  1
  C  1334  1  0.01317100  0.53952100  0.31638900  1
  C  1335  1  0.09295700  0.52030400  0.31645500  1
  C  1336  1  0.12408300  0.52047100  0.31657600  1
  C  1337  1  0.14053000  0.50972200  0.33519400  1
  C  1338  1  0.12411400  0.49909900  0.35389400  1
  C  1339  1  0.09299000  0.49933900  0.35405900  1
  C  1353  1  0.02981000  0.48814400  0.69438900  1
  C  1354  1  0.07748000  0.50971300  0.69482600  1
  C  1355  1  0.03002400  0.53145500  0.69366400  1
  C  1356  1  0.01386700  0.53965800  0.71348500  1
  C  1357  1  0.99771600  0.56103200  0.71234200  1
  C  1358  1  0.99705800  0.57487200  0.69129600  1
  C  1359  1  0.01353300  0.56650700  0.67152800  1
  C  1360  1  0.02985000  0.54519400  0.67269600  1
  C  1361  1  0.01958200  0.47905500  0.67253400  1
  C  1362  1  0.00297601  0.45791600  0.67173300  1
  C  1363  1  0.99533700  0.44536400  0.69275200  1
  C  1364  1  0.00582301  0.45474300  0.71460700  1
  C  1365  1  0.02291100  0.47569700  0.71542300  1
  C  1366  1  0.09356200  0.49763400  0.67704000  1
  C  1367  1  0.12468800  0.49743700  0.67723600  1
  C  1368  1  0.14116800  0.50996500  0.69469500  1
  C  1369  1  0.12462200  0.52246200  0.71214500  1
  C  1370  1  0.09349800  0.52203400  0.71245600  1
  C  1384  1  0.02985400  0.18955400  0.03669900  1
  C  1385  1  0.07681700  0.19023700  0.01503500  1
  C  1386  1  0.02947200  0.18979100  0.99321300  1
  C  1387  1  0.01424700  0.21000900  0.98482700  1
  C  1388  1  0.99759400  0.20905200  0.96367700  1
  C  1389  1  0.99556000  0.18783000  0.95018500  1
  C  1390  1  0.01113800  0.16767500  0.95871000  1
  C  1391  1  0.02772400  0.16859900  0.97987200  1
  C  1392  1  0.02115700  0.16743300  0.04616600  1
  C  1393  1  0.00463901  0.16629900  0.06736900  1
  C  1394  1  0.99603500  0.18718800  0.07974300  1
  C  1395  1  0.00517801  0.20928100  0.07007100  1
  C  1396  1  0.02181700  0.21045500  0.04893200  1
  C  1397  1  0.09248400  0.16865600  0.01301200  1
  C  1398  1  0.12361300  0.16845200  0.01281800  1
  C  1399  1  0.14028500  0.18972300  0.01500100  1
  C  1400  1  0.12413000  0.21122300  0.01741900  1
  C  1401  1  0.09301000  0.21150700  0.01732000  1
  C  1415  1  0.02969300  0.83076400  0.99328600  1
  C  1416  1  0.07713800  0.83010800  0.01487500  1
  C  1417  1  0.02983600  0.83101500  0.03673600  1
  C  1418  1  0.01299200  0.81133600  0.04436800  1
  C  1419  1  0.99670400  0.81229400  0.06569200  1
  C  1420  1  0.99664200  0.83298500  0.08007500  1
  C  1421  1  0.01388400  0.85257200  0.07231100  1
  C  1422  1  0.03026700  0.85160800  0.05102800  1
  C  1423  1  0.01818500  0.85243200  0.98476800  1
  C  1424  1  0.00164201  0.85315200  0.96358500  1
  C  1425  1  0.99543400  0.83222100  0.95037900  1
  C  1426  1  0.00732301  0.81057800  0.95914900  1
  C  1427  1  0.02430700  0.80986000  0.98015700  1
  C  1428  1  0.09315600  0.84910300  0.00475898  1
  C  1429  1  0.12428000  0.84897700  0.00461898  1
  C  1430  1  0.14066700  0.83010500  0.01495900  1
  C  1431  1  0.12421100  0.81129300  0.02535000  1
  C  1432  1  0.09308100  0.81117400  0.02513500  1
  C  1446  1  0.28291900  0.48792700  0.33547700  1
  C  1447  1  0.23587600  0.50951400  0.33473000  1
  C  1448  1  0.28310600  0.53143700  0.33533500  1
  C  1449  1  0.29850700  0.53984100  0.31520900  1
  C  1450  1  0.31495600  0.56109200  0.31622400  1
  C  1451  1  0.31660200  0.57467100  0.33741100  1
  C  1452  1  0.30086200  0.56612300  0.35747400  1
  C  1453  1  0.28446400  0.54486700  0.35649000  1
  C  1454  1  0.29180000  0.47850100  0.35756900  1
  C  1455  1  0.30839400  0.45733000  0.35865500  1
  C  1456  1  0.31692300  0.44494700  0.33774900  1
  C  1457  1  0.30759900  0.45458800  0.31568700  1
  C  1458  1  0.29085800  0.47567900  0.31455800  1
  C  1459  1  0.22012500  0.51106600  0.35630800  1
  C  1460  1  0.18899600  0.51129200  0.35643300  1
  C  1461  1  0.17239100  0.50957800  0.33508000  1
  C  1462  1  0.18864500  0.50764200  0.31357500  1
  C  1463  1  0.21976700  0.50773800  0.31337100  1
  C  1477  1  0.28352900  0.53207000  0.69418800  1
  C  1478  1  0.23663100  0.50991900  0.69494700  1
  C  1479  1  0.28383100  0.48848700  0.69406700  1
  C  1480  1  0.28969300  0.47541400  0.71492700  1
  C  1481  1  0.30667300  0.45443300  0.71405800  1
  C  1482  1  0.31821900  0.44567400  0.69230500  1
  C  1483  1  0.31167900  0.45885700  0.67142100  1
  C  1484  1  0.29496400  0.47997300  0.67227200  1
  C  1485  1  0.28325700  0.54615200  0.67343800  1
  C  1486  1  0.29937800  0.56754600  0.67238800  1
  C  1487  1  0.31632300  0.57560800  0.69201000  1
  C  1488  1  0.31619800  0.56141400  0.71283500  1
  C  1489  1  0.30010500  0.53999200  0.71389600  1
  C  1490  1  0.22063400  0.51177700  0.71633900  1
  C  1491  1  0.18951200  0.51154100  0.71622500  1
  C  1492  1  0.17310200  0.50994100  0.69474500  1
  C  1493  1  0.18970000  0.50824600  0.67336300  1
  C  1494  1  0.22083000  0.50797200  0.67344200  1
  C  1508  1  0.28325900  0.83036600  0.03706500  1
  C  1509  1  0.23601300  0.82976700  0.01506900  1
  C  1510  1  0.28310300  0.83051000  0.99354600  1
  C  1511  1  0.29133800  0.80957400  0.98145500  1
  C  1512  1  0.30804400  0.81069600  0.96034200  1
  C  1513  1  0.31707800  0.83276800  0.95054600  1
  C  1514  1  0.30827300  0.85368700  0.96278000  1
  C  1515  1  0.29168400  0.85260800  0.98395600  1
  C  1516  1  0.28472900  0.85151600  0.05049900  1
  C  1517  1  0.30114500  0.85245800  0.07174800  1
  C  1518  1  0.31686200  0.83237500  0.08028200  1
  C  1519  1  0.31510900  0.81119400  0.06669100  1
  C  1520  1  0.29860700  0.81021200  0.04546400  1
  C  1521  1  0.21995000  0.80844700  0.01262400  1
  C  1522  1  0.18882400  0.80860700  0.01243100  1
  C  1523  1  0.17252100  0.83003000  0.01491100  1
  C  1524  1  0.18906100  0.85135100  0.01726100  1
  C  1525  1  0.22019100  0.85126900  0.01715600  1
  C  1539  1  0.28283200  0.18832400  0.99280100  1
  C  1540  1  0.23563900  0.18933900  0.01477000  1
  C  1541  1  0.28313700  0.18858000  0.03625100  1
  C  1542  1  0.28819300  0.20942000  0.04956500  1
  C  1543  1  0.30516900  0.20867900  0.07057400  1
  C  1544  1  0.31737900  0.18707400  0.07913800  1
  C  1545  1  0.31150500  0.16619900  0.06575100  1
  C  1546  1  0.29494300  0.16694500  0.04458200  1
  C  1547  1  0.28236400  0.16770800  0.97854400  1
  C  1548  1  0.29863000  0.16673900  0.95720400  1
  C  1549  1  0.31576500  0.18635000  0.94935700  1
  C  1550  1  0.31572800  0.20707000  0.96369500  1
  C  1551  1  0.29959100  0.20802100  0.98509200  1
  C  1552  1  0.21974900  0.20827500  0.00446198  1
  C  1553  1  0.18862400  0.20824100  0.00431798  1
  C  1554  1  0.17212900  0.18953300  0.01485400  1
  C  1555  1  0.18846200  0.17066200  0.02525100  1
  C  1556  1  0.21958400  0.17043500  0.02501800  1
  C  1569  1  0.38781600  0.18064900  0.86527500  1
  C  1571  1  0.40625600  0.19587400  0.82833600  1
  C  1573  1  0.42444100  0.15881600  0.84349300  1
  C  1575  1  0.40627100  0.21392300  0.81031800  1
  C  1576  1  0.38344000  0.23109100  0.80883100  1
  C  1577  1  0.38334100  0.24873100  0.79100300  1
  C  1578  1  0.40624300  0.25042000  0.77386600  1
  C  1579  1  0.42915300  0.23328600  0.77551400  1
  C  1580  1  0.42908200  0.21543100  0.79313400  1
  C  1581  1  0.36942200  0.18218300  0.88594300  1
  C  1582  1  0.35231000  0.20265300  0.89099800  1
  C  1583  1  0.33474100  0.20409200  0.91167800  1
  C  1584  1  0.33323400  0.18502800  0.92810700  1
  C  1585  1  0.35021600  0.16454000  0.92301400  1
  C  1586  1  0.36789500  0.16318100  0.90248600  1
  C  1587  1  0.44277900  0.13810300  0.84198200  1
  C  1588  1  0.44306400  0.12090600  0.86044100  1
  C  1589  1  0.46081000  0.10040800  0.85913600  1
  C  1590  1  0.47912300  0.09600300  0.83924200  1
  C  1591  1  0.47884700  0.11307400  0.82071100  1
  C  1592  1  0.46117800  0.13370300  0.82209200  1
  C  1605  1  0.38842400  0.83856900  0.16469500  1
  C  1607  1  0.40655600  0.82344800  0.20177700  1
  C  1609  1  0.42297900  0.86135600  0.18760900  1
  C  1611  1  0.40680400  0.80527300  0.21964100  1
  C  1612  1  0.39561700  0.78219300  0.21510400  1
  C  1613  1  0.39582900  0.76435200  0.23272900  1
  C  1614  1  0.40681500  0.76869200  0.25595000  1
  C  1615  1  0.41782300  0.79187000  0.26045200  1
  C  1616  1  0.41801500  0.80962900  0.24275000  1
  C  1617  1  0.37051000  0.83676300  0.14377000  1
  C  1618  1  0.35290800  0.81648800  0.13901400  1
  C  1619  1  0.33538800  0.81496800  0.11830900  1
  C  1620  1  0.33453100  0.83369300  0.10145800  1
  C  1621  1  0.35219100  0.85390900  0.10618700  1
  C  1622  1  0.36970100  0.85540400  0.12679400  1
  C  1623  1  0.44039700  0.88247200  0.18965900  1
  C  1624  1  0.43439800  0.90262800  0.17533200  1
  C  1625  1  0.45190500  0.92325200  0.17659100  1
  C  1626  1  0.47660900  0.92472900  0.19198400  1
  C  1627  1  0.48237500  0.90466700  0.20654700  1
  C  1628  1  0.46460900  0.88406500  0.20551000  1
  C  1641  1  0.38751200  0.66013200  0.68574100  1
  C  1643  1  0.40622500  0.69687400  0.70121300  1
  C  1645  1  0.42335000  0.68240900  0.66362100  1
  C  1647  1  0.40636000  0.71472000  0.71940400  1
  C  1648  1  0.38354000  0.71611300  0.73658500  1
  C  1649  1  0.38339200  0.73391400  0.75424300  1
  C  1650  1  0.40623600  0.75109400  0.75591400  1
  C  1651  1  0.42916400  0.74951500  0.73879300  1
  C  1652  1  0.42913300  0.73192700  0.72091500  1
  C  1653  1  0.36933300  0.63935400  0.68740600  1
  C  1654  1  0.35246700  0.63421800  0.70799200  1
  C  1655  1  0.33512300  0.61342700  0.70957200  1
  C  1656  1  0.33364500  0.59693200  0.69056700  1
  C  1657  1  0.35041500  0.60210100  0.66997600  1
  C  1658  1  0.36783200  0.62276000  0.66845400  1
  C  1659  1  0.44104000  0.68431700  0.64263400  1
  C  1660  1  0.43501400  0.67007800  0.62241700  1
  C  1661  1  0.45252500  0.67138100  0.60180500  1
  C  1662  1  0.47725400  0.68674900  0.60038600  1
  C  1663  1  0.48308400  0.70120100  0.62051400  1
  C  1664  1  0.46530700  0.70011900  0.64111100  1
  C  1677  1  0.38882200  0.36061800  0.34331900  1
  C  1679  1  0.40619200  0.32318500  0.32852700  1
  C  1681  1  0.42326800  0.33767800  0.36613600  1
  C  1683  1  0.40620500  0.30519500  0.31046600  1
  C  1684  1  0.39490800  0.30963900  0.28739900  1
  C  1685  1  0.39508000  0.29195600  0.26961200  1
  C  1686  1  0.40613400  0.26876200  0.27398300  1
  C  1687  1  0.41723100  0.26434800  0.29715500  1
  C  1688  1  0.41746300  0.28210700  0.31486000  1
  C  1689  1  0.37115900  0.38164300  0.34142700  1
  C  1690  1  0.34820900  0.38376100  0.32445700  1
  C  1691  1  0.33042000  0.40433600  0.32326800  1
  C  1692  1  0.33485700  0.42384300  0.33884400  1
  C  1693  1  0.35814000  0.42181500  0.35553700  1
  C  1694  1  0.37572200  0.40122300  0.35687500  1
  C  1695  1  0.44076600  0.33563400  0.38721000  1
  C  1696  1  0.43492800  0.35005000  0.40732800  1
  C  1697  1  0.45240800  0.34870600  0.42796200  1
  C  1698  1  0.47694700  0.33314300  0.42948400  1
  C  1699  1  0.48257100  0.31851600  0.40944000  1
  C  1700  1  0.46481200  0.31962400  0.38883600  1
  C  1713  1  0.92378200  0.83739100  0.86588900  1
  C  1715  1  0.90658400  0.82280500  0.82834300  1
  C  1717  1  0.88947200  0.86036400  0.84299000  1
  C  1719  1  0.90651100  0.80476700  0.81032300  1
  C  1720  1  0.91773100  0.78167200  0.81474100  1
  C  1721  1  0.91745000  0.76388400  0.79705600  1
  C  1722  1  0.90633400  0.76827200  0.77388500  1
  C  1723  1  0.89530900  0.79147200  0.76949600  1
  C  1724  1  0.89519600  0.80918300  0.78725700  1
  C  1725  1  0.94125400  0.83537800  0.88698100  1
  C  1726  1  0.96523600  0.81931500  0.88869200  1
  C  1727  1  0.98297000  0.81825000  0.90931200  1
  C  1728  1  0.97737500  0.83296200  0.92929900  1
  C  1729  1  0.95289800  0.84857900  0.92769500  1
  C  1730  1  0.93544800  0.84988700  0.90704300  1
  C  1731  1  0.87195400  0.88144700  0.84105000  1
  C  1732  1  0.87750800  0.90141600  0.85576000  1
  C  1733  1  0.86000100  0.92205000  0.85447300  1
  C  1734  1  0.83576700  0.92372800  0.83862800  1
  C  1735  1  0.83038300  0.90381800  0.82376200  1
  C  1736  1  0.84813800  0.88321600  0.82483900  1
  C  1749  1  0.92387700  0.18167100  0.16391300  1
  C  1751  1  0.90645100  0.19638500  0.20135000  1
  C  1753  1  0.88780900  0.15957200  0.18599400  1
  C  1755  1  0.90658400  0.21429200  0.21949300  1
  C  1756  1  0.92941100  0.23145200  0.22100600  1
  C  1757  1  0.92949500  0.24905400  0.23887400  1
  C  1758  1  0.90656600  0.25070600  0.25599100  1
  C  1759  1  0.88366700  0.23357100  0.25431800  1
  C  1760  1  0.88376200  0.21575100  0.23667100  1
  C  1761  1  0.94178400  0.18343100  0.14300300  1
  C  1762  1  0.96486400  0.20030100  0.14098600  1
  C  1763  1  0.98267000  0.20151900  0.12042100  1
  C  1764  1  0.97814800  0.18604100  0.10085300  1
  C  1765  1  0.95479100  0.16941400  0.10279300  1
  C  1766  1  0.93716700  0.16807700  0.12335200  1
  C  1767  1  0.86958400  0.13881900  0.18766400  1
  C  1768  1  0.86864900  0.12190500  0.16897100  1
  C  1769  1  0.85115300  0.10129200  0.17048400  1
  C  1770  1  0.83367700  0.09649700  0.19078600  1
  C  1771  1  0.83460500  0.11330900  0.20953700  1
  C  1772  1  0.85206800  0.13403700  0.20798100  1
  C  1785  1  0.92333100  0.36107700  0.68709300  1
  C  1787  1  0.90606700  0.32353500  0.70160900  1
  C  1789  1  0.88755900  0.33890500  0.66476200  1
  C  1791  1  0.90624600  0.30537600  0.71948400  1
  C  1792  1  0.92905500  0.30392900  0.73666700  1
  C  1793  1  0.92918300  0.28606500  0.75426400  1
  C  1794  1  0.90632500  0.26888700  0.75587200  1
  C  1795  1  0.88344800  0.27048900  0.73871200  1
  C  1796  1  0.88349900  0.28813400  0.72089500  1
  C  1797  1  0.94106800  0.38205200  0.68904100  1
  C  1798  1  0.96412900  0.38408400  0.70593100  1
  C  1799  1  0.98186300  0.40469200  0.70721300  1
  C  1800  1  0.97724600  0.42432300  0.69182500  1
  C  1801  1  0.95375700  0.42239400  0.67529800  1
  C  1802  1  0.93626800  0.40178000  0.67384100  1
  C  1803  1  0.86946700  0.33722500  0.64392800  1
  C  1804  1  0.86879100  0.35584300  0.62692300  1
  C  1805  1  0.85139000  0.35434000  0.60625700  1
  C  1806  1  0.83373900  0.33412600  0.60148800  1
  C  1807  1  0.83441500  0.31544800  0.61839300  1
  C  1808  1  0.85180500  0.31698700  0.63916700  1
  C  1821  1  0.92501400  0.65944100  0.34357100  1
  C  1823  1  0.90667700  0.69639600  0.32831000  1
  C  1825  1  0.88858200  0.68138900  0.36544300  1
  C  1827  1  0.90658000  0.71438100  0.31023800  1
  C  1828  1  0.92935800  0.71589000  0.29303200  1
  C  1829  1  0.92936200  0.73372200  0.27539000  1
  C  1830  1  0.90640300  0.75081300  0.27374300  1
  C  1831  1  0.88352800  0.74911700  0.29090200  1
  C  1832  1  0.88370200  0.73150500  0.30875700  1
  C  1833  1  0.94331900  0.63871400  0.34206900  1
  C  1834  1  0.96055400  0.63365600  0.32166800  1
  C  1835  1  0.97809000  0.61295100  0.32028500  1
  C  1836  1  0.97941100  0.59648400  0.33932600  1
  C  1837  1  0.96228200  0.60157100  0.35973600  1
  C  1838  1  0.94465800  0.62213000  0.36104600  1
  C  1839  1  0.87035000  0.68304200  0.38619300  1
  C  1840  1  0.86955700  0.66439800  0.40316400  1
  C  1841  1  0.85196400  0.66584300  0.42372700  1
  C  1842  1  0.83426000  0.68604000  0.42841500  1
  C  1843  1  0.83506900  0.70475900  0.41156500  1
  C  1844  1  0.85261100  0.70325500  0.39087400  1
  C  1857  1  0.92475800  0.83889500  0.16428500  1
  C  1859  1  0.90650700  0.82371200  0.20130700  1
  C  1861  1  0.88979700  0.86151100  0.18698600  1
  C  1863  1  0.90628600  0.80555600  0.21920500  1
  C  1864  1  0.91760700  0.78250400  0.21473700  1
  C  1865  1  0.91742600  0.76468400  0.23239200  1
  C  1866  1  0.90632800  0.76900400  0.25558200  1
  C  1867  1  0.89517800  0.79215600  0.26001300  1
  C  1868  1  0.89495300  0.80989200  0.24228000  1
  C  1869  1  0.94286400  0.83720600  0.14345500  1
  C  1870  1  0.95970800  0.81662000  0.13828000  1
  C  1871  1  0.97729300  0.81516000  0.11760600  1
  C  1872  1  0.97906700  0.83429700  0.10128000  1
  C  1873  1  0.96227800  0.85487100  0.10645900  1
  C  1874  1  0.94460700  0.85626500  0.12699000  1
  C  1875  1  0.87210900  0.88251700  0.18890500  1
  C  1876  1  0.87703100  0.90230300  0.17379500  1
  C  1877  1  0.85930900  0.92281800  0.17504400  1
  C  1878  1  0.83553700  0.92457100  0.19131600  1
  C  1879  1  0.83077400  0.90488100  0.20659500  1
  C  1880  1  0.84869400  0.88437500  0.20549100  1
  C  1893  1  0.92367800  0.18165700  0.86600600  1
  C  1895  1  0.90629000  0.19631900  0.82853400  1
  C  1897  1  0.88879400  0.15892400  0.84331700  1
  C  1899  1  0.90630800  0.21431800  0.81050400  1
  C  1900  1  0.91742800  0.23743400  0.81496500  1
  C  1901  1  0.91722500  0.25519500  0.79726400  1
  C  1902  1  0.90632500  0.25073300  0.77404300  1
  C  1903  1  0.89540600  0.22751200  0.76961100  1
  C  1904  1  0.89519600  0.20983100  0.78739200  1
  C  1905  1  0.94156100  0.18350900  0.88693500  1
  C  1906  1  0.95951600  0.20363300  0.89146400  1
  C  1907  1  0.97712900  0.20514400  0.91211400  1
  C  1908  1  0.97774100  0.18654800  0.92910700  1
  C  1909  1  0.95971300  0.16649000  0.92461900  1
  C  1910  1  0.94208900  0.16501600  0.90407800  1
  C  1911  1  0.87090300  0.13799700  0.84151900  1
  C  1912  1  0.86954200  0.12132200  0.86041300  1
  C  1913  1  0.85196200  0.10075100  0.85896000  1
  C  1914  1  0.83488300  0.09575300  0.83849500  1
  C  1915  1  0.83631500  0.11226700  0.81950400  1
  C  1916  1  0.85381300  0.13298000  0.82102700  1
  C  1929  1  0.92319600  0.36114800  0.34295600  1
  C  1931  1  0.90618200  0.32350700  0.32850000  1
  C  1933  1  0.88877600  0.33832000  0.36591900  1
  C  1935  1  0.90628800  0.30543100  0.31052400  1
  C  1936  1  0.91759400  0.30982800  0.28744900  1
  C  1937  1  0.91749900  0.29209500  0.26971500  1
  C  1938  1  0.90649600  0.26890100  0.27414200  1
  C  1939  1  0.89537700  0.26453300  0.29731600  1
  C  1940  1  0.89507500  0.28234300  0.31497600  1
  C  1941  1  0.94069200  0.38222100  0.34088300  1
  C  1942  1  0.96459300  0.38388700  0.32473700  1
  C  1943  1  0.98235600  0.40448600  0.32358800  1
  C  1944  1  0.97687100  0.42448700  0.33830400  1
  C  1945  1  0.95248500  0.42292600  0.35401500  1
  C  1946  1  0.93500000  0.40229500  0.35540000  1
  C  1947  1  0.87112600  0.33644100  0.38695900  1
  C  1948  1  0.87557500  0.35200400  0.40646600  1
  C  1949  1  0.85800400  0.35068900  0.42706400  1
  C  1950  1  0.83485700  0.33388600  0.42918700  1
  C  1951  1  0.83054400  0.31818200  0.40976400  1
  C  1952  1  0.84831900  0.31935900  0.38917600  1
  C  1965  1  0.92524400  0.65910100  0.68547300  1
  C  1967  1  0.90645100  0.69581100  0.70099900  1
  C  1969  1  0.88902400  0.68117700  0.66353000  1
  C  1971  1  0.90628800  0.71368700  0.71918500  1
  C  1972  1  0.92909000  0.71513600  0.73637900  1
  C  1973  1  0.92917900  0.73295100  0.75403500  1
  C  1974  1  0.90628100  0.75009000  0.75571500  1
  C  1975  1  0.88336600  0.74844700  0.73858500  1
  C  1976  1  0.88345700  0.73084800  0.72071100  1
  C  1977  1  0.94358200  0.63839400  0.68700200  1
  C  1978  1  0.96129500  0.63364900  0.70721500  1
  C  1979  1  0.97884800  0.61296300  0.70866200  1
  C  1980  1  0.97967400  0.59616600  0.68989300  1
  C  1981  1  0.96207400  0.60093400  0.66966600  1
  C  1982  1  0.94445700  0.62149900  0.66828100  1
  C  1983  1  0.87110400  0.68296600  0.64263600  1
  C  1984  1  0.87610300  0.66795300  0.62278600  1
  C  1985  1  0.85846700  0.66929900  0.60223300  1
  C  1986  1  0.83470200  0.68557200  0.60050200  1
  C  1987  1  0.82981300  0.70072100  0.62027400  1
  C  1988  1  0.84763800  0.69950900  0.64083000  1
  C  2001  1  0.38944900  0.18200500  0.16338100  1
  C  2003  1  0.40651200  0.19643100  0.20101200  1
  C  2005  1  0.42549300  0.15982900  0.18539000  1
  C  2007  1  0.40624500  0.21424500  0.21924400  1
  C  2008  1  0.38337200  0.23136600  0.22077000  1
  C  2009  1  0.38322600  0.24894600  0.23866000  1
  C  2010  1  0.40613000  0.25060300  0.25579700  1
  C  2011  1  0.42906700  0.23350000  0.25411900  1
  C  2012  1  0.42903400  0.21570500  0.23644900  1
  C  2013  1  0.37172300  0.18389900  0.14241100  1
  C  2014  1  0.34732100  0.19957400  0.14096800  1
  C  2015  1  0.32952600  0.20065200  0.12038200  1
  C  2016  1  0.33546100  0.18631800  0.10018800  1
  C  2017  1  0.36031000  0.17107000  0.10153300  1
  C  2018  1  0.37784500  0.16977100  0.12213500  1
  C  2019  1  0.44382600  0.13912100  0.18692800  1
  C  2020  1  0.44547200  0.12264800  0.16787100  1
  C  2021  1  0.46302700  0.10205200  0.16927000  1
  C  2022  1  0.47977700  0.09681400  0.18985100  1
  C  2023  1  0.47817300  0.11319100  0.20895400  1
  C  2024  1  0.46070800  0.13392600  0.20748900  1
  C  2037  1  0.38867100  0.83845700  0.86604300  1
  C  2039  1  0.40577000  0.82377200  0.82849500  1
  C  2041  1  0.42298100  0.86134400  0.84300400  1
  C  2043  1  0.40581800  0.80574600  0.81047900  1
  C  2044  1  0.39474200  0.78261800  0.81493800  1
  C  2045  1  0.39508700  0.76482800  0.79726300  1
  C  2046  1  0.40610300  0.76926800  0.77407200  1
  C  2047  1  0.41695000  0.79250600  0.76963100  1
  C  2048  1  0.41700700  0.81021600  0.78738300  1
  C  2049  1  0.37111400  0.83652300  0.88712900  1
  C  2050  1  0.34834300  0.81940900  0.88936900  1
  C  2051  1  0.33063500  0.81818100  0.90998900  1
  C  2052  1  0.33496400  0.83387400  0.92941600  1
  C  2053  1  0.35806600  0.85071400  0.92727000  1
  C  2054  1  0.37557600  0.85207800  0.90664000  1
  C  2055  1  0.44053900  0.88239800  0.84086100  1
  C  2056  1  0.43637700  0.90188100  0.85648600  1
  C  2057  1  0.45386400  0.92249400  0.85491200  1
  C  2058  1  0.47671900  0.92465300  0.83784100  1
  C  2059  1  0.48066900  0.90526700  0.82203000  1
  C  2060  1  0.46294100  0.88466800  0.82343600  1
  C  2073  1  0.38852100  0.65883600  0.34349000  1
  C  2075  1  0.40666000  0.69594400  0.32847900  1
  C  2077  1  0.42490700  0.68071800  0.36547100  1
  C  2079  1  0.40667500  0.71399900  0.31048900  1
  C  2080  1  0.38388400  0.71550800  0.29329300  1
  C  2081  1  0.38384400  0.73336500  0.27568100  1
  C  2082  1  0.40677000  0.75048400  0.27407800  1
  C  2083  1  0.42964800  0.74880200  0.29123200  1
  C  2084  1  0.42951300  0.73116000  0.30905400  1
  C  2085  1  0.37029800  0.63808300  0.34181100  1
  C  2086  1  0.35244100  0.63348700  0.32164700  1
  C  2087  1  0.33489600  0.61280000  0.32012100  1
  C  2088  1  0.33422600  0.59585300  0.33875900  1
  C  2089  1  0.35206000  0.60045600  0.35890200  1
  C  2090  1  0.36964000  0.62102300  0.36037800  1
  C  2091  1  0.44319900  0.68227200  0.38619300  1
  C  2092  1  0.44452800  0.66334000  0.40282800  1
  C  2093  1  0.46217500  0.66470300  0.42337300  1
  C  2094  1  0.47930900  0.68512800  0.42839200  1
  C  2095  1  0.47798700  0.70412400  0.41187800  1
  C  2096  1  0.46044900  0.70268200  0.39118300  1
  C  2109  1  0.39022200  0.36137900  0.68735900  1
  C  2111  1  0.40665300  0.32345900  0.70154700  1
  C  2113  1  0.42504600  0.33871100  0.66459100  1
  C  2115  1  0.40633500  0.30525900  0.71940400  1
  C  2116  1  0.39497200  0.30956600  0.74247500  1
  C  2117  1  0.39513300  0.29180200  0.76018000  1
  C  2118  1  0.40623800  0.26864000  0.75572800  1
  C  2119  1  0.41736800  0.26434600  0.73254100  1
  C  2120  1  0.41761500  0.28219600  0.71491300  1
  C  2121  1  0.37269400  0.38245800  0.68930300  1
  C  2122  1  0.34850300  0.38404400  0.70517000  1
  C  2123  1  0.33066300  0.40460300  0.70615700  1
  C  2124  1  0.33631100  0.42463100  0.69151400  1
  C  2125  1  0.36091300  0.42314300  0.67602700  1
  C  2126  1  0.37852100  0.40256200  0.67484400  1
  C  2127  1  0.44312100  0.33704700  0.64374000  1
  C  2128  1  0.44489300  0.35615200  0.62733000  1
  C  2129  1  0.46250600  0.35478500  0.60676600  1
  C  2130  1  0.47921800  0.33419500  0.60149900  1
  C  2131  1  0.47741800  0.31500800  0.61777000  1
  C  2132  1  0.45988600  0.31644300  0.63847600  1
  N  1  1  0.39133600  0.00984500  0.33645700  1
  N  32  1  0.39089600  0.01009100  0.69668900  1
  N  63  1  0.39101700  0.68962200  0.01698500  1
  N  94  1  0.39090300  0.33007800  0.01721100  1
  N  125  1  0.61337000  0.00958700  0.33645100  1
  N  156  1  0.61255500  0.01007800  0.69780700  1
  N  187  1  0.61255300  0.32929500  0.01724800  1
  N  218  1  0.61264100  0.69059500  0.01677200  1
  N  249  1  0.89092800  0.50995300  0.83733400  1
  N  280  1  0.89137000  0.50975700  0.19728100  1
  N  311  1  0.89084600  0.19100800  0.51709300  1
  N  342  1  0.89108300  0.83001400  0.51716400  1
  N  373  1  0.11257500  0.50969500  0.83625300  1
  N  404  1  0.11331400  0.51018600  0.19751900  1
  N  435  1  0.11272600  0.82915400  0.51750400  1
  N  466  1  0.11241000  0.18933900  0.51679600  1
  N  498  1  0.23377400  0.19749100  0.35004900  1
  N  500  1  0.26939300  0.17630900  0.32890800  1
  N  502  1  0.25144600  0.16172900  0.36454900  1
  N  534  1  0.23486700  0.82145500  0.68403100  1
  N  536  1  0.26846500  0.84362000  0.70629900  1
  N  538  1  0.25078800  0.85813500  0.67049700  1
  N  570  1  0.23384400  0.67730100  0.20501500  1
  N  572  1  0.26888500  0.69886000  0.18360400  1
  N  574  1  0.25053200  0.66342700  0.16870100  1
  N  606  1  0.23470100  0.34322700  0.82863800  1
  N  608  1  0.26832200  0.32096800  0.85078900  1
  N  610  1  0.25135800  0.35713500  0.86499900  1
  N  642  1  0.76872500  0.82060700  0.35060900  1
  N  644  1  0.73519800  0.84289900  0.32838500  1
  N  646  1  0.75200200  0.85690800  0.36467400  1
  N  678  1  0.76925300  0.19822700  0.68380500  1
  N  680  1  0.73403100  0.17683700  0.70517500  1
  N  682  1  0.75100400  0.16273100  0.66903600  1
  N  714  1  0.76871800  0.34333500  0.20578300  1
  N  716  1  0.73377500  0.32187500  0.18418000  1
  N  718  1  0.75060800  0.35812600  0.17025300  1
  N  750  1  0.76980300  0.67682500  0.82887800  1
  N  752  1  0.73436700  0.69812200  0.85011100  1
  N  754  1  0.75219700  0.66246100  0.86472000  1
  N  786  1  0.76906500  0.82178800  0.68363200  1
  N  788  1  0.73513300  0.84379800  0.70571500  1
  N  790  1  0.75289200  0.85835200  0.66997100  1
  N  822  1  0.76850600  0.19846500  0.35075300  1
  N  824  1  0.73477100  0.17630300  0.32862900  1
  N  826  1  0.75158200  0.16231500  0.36486200  1
  N  858  1  0.76827900  0.34359000  0.82846000  1
  N  860  1  0.73469200  0.32142300  0.85073700  1
  N  862  1  0.75128600  0.35782000  0.86460600  1
  N  894  1  0.76970400  0.67630900  0.20471900  1
  N  896  1  0.73432700  0.69766900  0.18348300  1
  N  898  1  0.75271800  0.66228400  0.16855300  1
  N  930  1  0.23454000  0.19839000  0.68342100  1
  N  932  1  0.26977500  0.17693500  0.70472900  1
  N  934  1  0.25314300  0.16310600  0.66838000  1
  N  966  1  0.23443400  0.82162300  0.35080300  1
  N  968  1  0.26785800  0.84385100  0.32844600  1
  N  970  1  0.25120800  0.85794500  0.36472700  1
  N  1002  1  0.23434400  0.67634300  0.82893300  1
  N  1004  1  0.26973800  0.69758000  0.85026400  1
  N  1006  1  0.25209600  0.66175700  0.86463800  1
  N  1038  1  0.23539300  0.34360400  0.20601700  1
  N  1040  1  0.26922800  0.32154200  0.18387400  1
  N  1042  1  0.25331300  0.35822700  0.17034600  1
  N  1073  1  0.54597300  0.00984500  0.83426400  1
  N  1104  1  0.54553300  0.01009100  0.19449600  1
  N  1135  1  0.54565400  0.68962200  0.51479200  1
  N  1166  1  0.54554000  0.33007800  0.51501800  1
  N  1197  1  0.76800700  0.00958700  0.83425800  1
  N  1228  1  0.76719200  0.01007800  0.19561400  1
  N  1259  1  0.76719000  0.32929500  0.51505500  1
  N  1290  1  0.76727800  0.69059500  0.51457900  1
  N  1321  1  0.04556500  0.50995300  0.33514100  1
  N  1352  1  0.04600700  0.50975700  0.69508800  1
  N  1383  1  0.04548300  0.19100800  0.01490000  1
  N  1414  1  0.04572000  0.83001400  0.01497100  1
  N  1445  1  0.26721200  0.50969500  0.33406000  1
  N  1476  1  0.26795100  0.51018600  0.69532600  1
  N  1507  1  0.26736300  0.82915400  0.01531100  1
  N  1538  1  0.26704700  0.18933900  0.01460300  1
  N  1570  1  0.38841100  0.19749100  0.84785600  1
  N  1572  1  0.42403000  0.17630900  0.82671500  1
  N  1574  1  0.40608300  0.16172900  0.86235600  1
  N  1606  1  0.38950400  0.82145500  0.18183800  1
  N  1608  1  0.42310200  0.84362000  0.20410600  1
  N  1610  1  0.40542500  0.85813500  0.16830400  1
  N  1642  1  0.38848100  0.67730100  0.70282200  1
  N  1644  1  0.42352200  0.69886000  0.68141100  1
  N  1646  1  0.40516900  0.66342700  0.66650800  1
  N  1678  1  0.38933800  0.34322700  0.32644500  1
  N  1680  1  0.42295900  0.32096800  0.34859600  1
  N  1682  1  0.40599500  0.35713500  0.36280600  1
  N  1714  1  0.92336200  0.82060700  0.84841600  1
  N  1716  1  0.88983500  0.84289900  0.82619200  1
  N  1718  1  0.90663900  0.85690800  0.86248100  1
  N  1750  1  0.92389000  0.19822700  0.18161200  1
  N  1752  1  0.88866800  0.17683700  0.20298200  1
  N  1754  1  0.90564100  0.16273100  0.16684300  1
  N  1786  1  0.92335500  0.34333500  0.70359000  1
  N  1788  1  0.88841200  0.32187500  0.68198700  1
  N  1790  1  0.90524500  0.35812600  0.66806000  1
  N  1822  1  0.92444000  0.67682500  0.32668500  1
  N  1824  1  0.88900400  0.69812200  0.34791800  1
  N  1826  1  0.90683400  0.66246100  0.36252700  1
  N  1858  1  0.92370200  0.82178800  0.18143900  1
  N  1860  1  0.88977000  0.84379800  0.20352200  1
  N  1862  1  0.90752900  0.85835200  0.16777800  1
  N  1894  1  0.92314300  0.19846500  0.84856000  1
  N  1896  1  0.88940800  0.17630300  0.82643600  1
  N  1898  1  0.90621900  0.16231500  0.86266900  1
  N  1930  1  0.92291600  0.34359000  0.32626700  1
  N  1932  1  0.88932900  0.32142300  0.34854400  1
  N  1934  1  0.90592300  0.35782000  0.36241300  1
  N  1966  1  0.92434100  0.67630900  0.70252600  1
  N  1968  1  0.88896400  0.69766900  0.68129000  1
  N  1970  1  0.90735500  0.66228400  0.66636000  1
  N  2002  1  0.38917700  0.19839000  0.18122800  1
  N  2004  1  0.42441200  0.17693500  0.20253600  1
  N  2006  1  0.40778000  0.16310600  0.16618700  1
  N  2038  1  0.38907100  0.82162300  0.84861000  1
  N  2040  1  0.42249500  0.84385100  0.82625300  1
  N  2042  1  0.40584500  0.85794500  0.86253400  1
  N  2074  1  0.38898100  0.67634300  0.32674000  1
  N  2076  1  0.42437500  0.69758000  0.34807100  1
  N  2078  1  0.40673300  0.66175700  0.36244500  1
  N  2110  1  0.39003000  0.34360400  0.70382400  1
  N  2112  1  0.42386500  0.32154200  0.68168100  1
  N  2114  1  0.40795000  0.35822700  0.66815300  1
