# generated using pymatgen
data_H2C4N2O
_symmetry_space_group_name_H-M   'P 1'
_cell_length_a   9.92313333
_cell_length_b   66.58945000
_cell_length_c   66.58940000
_cell_angle_alpha   119.99992548
_cell_angle_beta   90.00000000
_cell_angle_gamma   90.00000000
_symmetry_Int_Tables_number   1
_chemical_formula_structural   H2C4N2O
_chemical_formula_sum   'H216 C432 N216 O108'
_cell_volume   38105.73248009
_cell_formula_units_Z   108
loop_
 _symmetry_equiv_pos_site_id
 _symmetry_equiv_pos_as_xyz
  1  'x, y, z'
loop_
 _atom_site_type_symbol
 _atom_site_label
 _atom_site_symmetry_multiplicity
 _atom_site_fract_x
 _atom_site_fract_y
 _atom_site_fract_z
 _atom_site_occupancy
  C  1  1  0.07727000  0.82797000  0.24116500  1
  C  3  1  0.01224600  0.85896600  0.27836900  1
  C  5  1  0.00564100  0.86453500  0.24568500  1
  C  7  1  0.09686100  0.40463300  0.16536400  1
  C  9  1  0.02349800  0.41045100  0.13447200  1
  C  11  1  0.04290600  0.37206400  0.12817200  1
  C  13  1  0.07051800  0.75078900  0.58867500  1
  C  15  1  0.00785300  0.71352300  0.58259600  1
  C  17  1  0.99781900  0.74634400  0.62066400  1
  C  19  1  0.07277200  0.16041200  0.75514400  1
  C  21  1  0.01041200  0.12925000  0.71784600  1
  C  23  1  0.99999800  0.12396800  0.75064900  1
  C  25  1  0.07705800  0.58471700  0.83218300  1
  C  27  1  0.01236700  0.57858200  0.86324400  1
  C  29  1  0.00581600  0.61681300  0.86874600  1
  C  31  1  0.09772300  0.23750100  0.40872700  1
  C  33  1  0.02278600  0.27413100  0.41456000  1
  C  35  1  0.04291600  0.24208200  0.37616800  1
  C  37  1  0.06882600  0.58554200  0.74983900  1
  C  39  1  0.97762100  0.57695600  0.71321600  1
  C  41  1  0.97658800  0.61600500  0.74461700  1
  C  43  1  0.06652900  0.24264200  0.83827800  1
  C  45  1  0.97655100  0.27929500  0.86652200  1
  C  47  1  0.97275800  0.24762400  0.87376900  1
  C  49  1  0.07448900  0.15490200  0.40826600  1
  C  51  1  0.97588700  0.12685500  0.41609300  1
  C  53  1  0.96980500  0.12075000  0.37755700  1
  C  55  1  0.07222100  0.40406500  0.24747000  1
  C  57  1  0.97436500  0.41176600  0.28337600  1
  C  59  1  0.96796100  0.37334300  0.25087800  1
  C  61  1  0.06884100  0.74564400  0.15800200  1
  C  63  1  0.97721700  0.70902800  0.13004200  1
  C  65  1  0.97612000  0.74039200  0.12233800  1
  C  67  1  0.06544000  0.83393200  0.58955400  1
  C  69  1  0.97606800  0.86214000  0.58104000  1
  C  71  1  0.97294500  0.86958300  0.62002700  1
  C  73  1  0.87329300  0.85816100  0.16461100  1
  C  75  1  0.94324600  0.85730800  0.12988200  1
  C  77  1  0.87260800  0.82237000  0.12848000  1
  C  79  1  0.89095400  0.29643100  0.13171800  1
  C  81  1  0.94787500  0.26291600  0.13419100  1
  C  83  1  0.87490100  0.29739700  0.16801500  1
  C  85  1  0.87226000  0.82765800  0.69553400  1
  C  87  1  0.94310000  0.86231100  0.72943800  1
  C  89  1  0.87244700  0.86383400  0.69597000  1
  C  91  1  0.87455700  0.13000700  0.83161500  1
  C  93  1  0.94444500  0.13085300  0.86634100  1
  C  95  1  0.87395400  0.16578700  0.86771600  1
  C  97  1  0.87476000  0.69160400  0.86240200  1
  C  99  1  0.94474700  0.72546500  0.86151400  1
  C  101  1  0.87399300  0.69191800  0.82659200  1
  C  103  1  0.89037400  0.16292000  0.30058000  1
  C  105  1  0.94736200  0.12692600  0.26709100  1
  C  107  1  0.87482600  0.12762000  0.30161900  1
  C  109  1  0.99225700  0.91099000  0.41355700  1
  C  111  1  0.98420100  0.90906400  0.37686500  1
  C  113  1  0.96559300  0.94568100  0.41200500  1
  C  115  1  0.98925900  0.49288900  0.08172900  1
  C  117  1  0.98076500  0.45825700  0.08388700  1
  C  119  1  0.96382400  0.45652900  0.04711500  1
  C  121  1  0.99177900  0.57820500  0.49974700  1
  C  123  1  0.98409900  0.61497300  0.53444600  1
  C  125  1  0.96691400  0.57990100  0.53609100  1
  C  127  1  0.99321000  0.07698500  0.58258500  1
  C  129  1  0.98554700  0.07894400  0.61930000  1
  C  131  1  0.96873300  0.04227500  0.58416700  1
  C  133  1  0.99266100  0.49558800  0.91551200  1
  C  135  1  0.98472100  0.53030900  0.91349000  1
  C  137  1  0.96637500  0.53188500  0.95015900  1
  C  139  1  0.98755600  0.40927800  0.49702400  1
  C  141  1  0.97865300  0.37248700  0.46240500  1
  C  143  1  0.96077600  0.40752000  0.46068000  1
  C  145  1  0.99101400  0.49050200  0.57892700  1
  C  147  1  0.95201800  0.52448800  0.61537900  1
  C  149  1  0.97462900  0.52710300  0.58103900  1
  C  151  1  0.99147000  0.41371600  0.91485400  1
  C  153  1  0.95262300  0.37722900  0.91233200  1
  C  155  1  0.97368500  0.41158600  0.94932700  1
  C  157  1  0.98962500  0.07786900  0.50154200  1
  C  159  1  0.95038100  0.08040700  0.46759000  1
  C  161  1  0.97185600  0.04342200  0.46493700  1
  C  163  1  0.98791400  0.49693200  0.41787800  1
  C  165  1  0.94882800  0.46300600  0.38135800  1
  C  167  1  0.96938300  0.46031400  0.41568800  1
  C  169  1  0.98990700  0.57478600  0.08242900  1
  C  171  1  0.95086500  0.61120900  0.08483600  1
  C  173  1  0.97274300  0.57681600  0.04790600  1
  C  175  1  0.99271000  0.91004500  0.49459700  1
  C  177  1  0.95323200  0.90757500  0.52857700  1
  C  179  1  0.97597300  0.94453100  0.53119300  1
  C  181  1  0.99876300  0.91212400  0.05045100  1
  C  183  1  0.99536700  0.91170500  0.08620400  1
  C  185  1  0.00044500  0.94791900  0.08643600  1
  C  187  1  0.99670700  0.12848300  0.08029500  1
  C  189  1  0.99411600  0.16461900  0.08064900  1
  C  191  1  0.00040500  0.12858000  0.04445500  1
  C  193  1  0.99967500  0.94170600  0.86369200  1
  C  195  1  0.99628400  0.90594100  0.82752500  1
  C  197  1  0.00233400  0.90572700  0.86351800  1
  C  199  1  0.99920100  0.07609300  0.94586800  1
  C  201  1  0.99656000  0.07649500  0.91009800  1
  C  203  1  0.00216300  0.04028600  0.90989000  1
  C  205  1  0.00001500  0.85969400  0.91604500  1
  C  207  1  0.99694400  0.82357100  0.91572800  1
  C  209  1  0.00253000  0.85960700  0.95189400  1
  C  211  1  0.99632400  0.04646700  0.13264900  1
  C  213  1  0.99332100  0.08222000  0.16880800  1
  C  215  1  0.99901900  0.08242800  0.13279900  1
  C  217  1  0.94322600  0.87333200  0.23273200  1
  C  219  1  0.79763700  0.85730400  0.19938200  1
  C  220  1  0.87573100  0.86719900  0.18880800  1
  C  222  1  0.01797600  0.88447700  0.22283700  1
  C  224  1  0.13724600  0.89596300  0.23245100  1
  C  227  1  0.33597500  0.88605800  0.24372500  1
  C  231  1  0.99491400  0.34924400  0.11839700  1
  C  233  1  0.82326400  0.33010600  0.12817300  1
  C  234  1  0.90869600  0.31102100  0.12228700  1
  C  236  1  0.08278200  0.33019800  0.11271200  1
  C  238  1  0.21798300  0.32947300  0.10700100  1
  C  241  1  0.30475400  0.33225000  0.07625200  1
  C  245  1  0.93687100  0.75921800  0.64256200  1
  C  247  1  0.79423700  0.79306900  0.66004900  1
  C  248  1  0.87312700  0.80343900  0.68042500  1
  C  250  1  0.01178700  0.76901700  0.66357500  1
  C  252  1  0.12999200  0.75914500  0.66531100  1
  C  255  1  0.32917700  0.74817700  0.64418700  1
  C  259  1  0.93960800  0.11467700  0.76333500  1
  C  261  1  0.79574300  0.13069200  0.79692000  1
  C  262  1  0.87533400  0.12086400  0.80739400  1
  C  264  1  0.01585400  0.10362200  0.77314300  1
  C  266  1  0.13491700  0.09223900  0.76338300  1
  C  269  1  0.32939800  0.10163200  0.75044100  1
  C  273  1  0.94375500  0.63859600  0.87754400  1
  C  275  1  0.79864000  0.65599100  0.86152700  1
  C  276  1  0.87698200  0.67643200  0.87143100  1
  C  278  1  0.01874600  0.65961100  0.88870500  1
  C  280  1  0.13787200  0.66144200  0.90021700  1
  C  283  1  0.33577300  0.64004400  0.89050700  1
  C  287  1  0.99519600  0.22899600  0.35333900  1
  C  289  1  0.82280900  0.20025700  0.33411600  1
  C  290  1  0.90856000  0.18693200  0.31511700  1
  C  292  1  0.08328200  0.21548200  0.33438600  1
  C  294  1  0.21898500  0.22017700  0.33386300  1
  C  297  1  0.31693200  0.25189400  0.33430300  1
  C  301  1  0.90880200  0.63722300  0.75800100  1
  C  303  1  0.96468000  0.67695900  0.78672500  1
  C  304  1  0.87019500  0.67664400  0.80239500  1
  C  306  1  0.80226200  0.63819000  0.77281000  1
  C  308  1  0.72023200  0.61988500  0.76911400  1
  C  311  1  0.52734900  0.60753000  0.74683800  1
  C  315  1  0.90513300  0.23438400  0.88180800  1
  C  317  1  0.96263500  0.20580000  0.89285600  1
  C  318  1  0.86898700  0.19000400  0.87674700  1
  C  320  1  0.79889300  0.21954800  0.86793800  1
  C  322  1  0.71708800  0.22307700  0.85319000  1
  C  325  1  0.52413500  0.24531100  0.86281000  1
  C  329  1  0.89986200  0.11407800  0.35673000  1
  C  331  1  0.94997700  0.10166300  0.31652700  1
  C  332  1  0.86675800  0.11923400  0.31732100  1
  C  334  1  0.80382400  0.12990300  0.35651400  1
  C  336  1  0.72982500  0.14602400  0.37532900  1
  C  339  1  0.53322600  0.13852600  0.38883900  1
  C  343  1  0.89809900  0.35249000  0.23672200  1
  C  345  1  0.94898000  0.31230400  0.20894000  1
  C  346  1  0.86629100  0.31309500  0.19210400  1
  C  348  1  0.80276600  0.35225200  0.22057800  1
  C  350  1  0.72797000  0.37103000  0.22339000  1
  C  353  1  0.53373400  0.38444500  0.24509200  1
  C  357  1  0.90814600  0.75377100  0.11451800  1
  C  359  1  0.96363700  0.78254000  0.10354900  1
  C  360  1  0.86900600  0.79816900  0.11953400  1
  C  362  1  0.80145700  0.76853700  0.12836000  1
  C  364  1  0.71957200  0.76480400  0.14295800  1
  C  367  1  0.52651300  0.74257300  0.13304500  1
  C  371  1  0.90584900  0.87777400  0.64137300  1
  C  373  1  0.96375300  0.88869100  0.68095200  1
  C  374  1  0.86840100  0.87288300  0.68079700  1
  C  376  1  0.79837300  0.86417400  0.64245000  1
  C  378  1  0.71544700  0.84963800  0.62425700  1
  C  381  1  0.52361100  0.86026700  0.61231700  1
  C  385  1  0.10650700  0.80503800  0.22333500  1
  C  387  1  0.16393000  0.78407200  0.18282400  1
  C  388  1  0.10965000  0.76333000  0.18028000  1
  C  390  1  0.07525400  0.78353700  0.22198000  1
  C  392  1  0.01988500  0.78270000  0.24050200  1
  C  395  1  0.79858500  0.79374400  0.25099700  1
  C  399  1  0.12190400  0.41012600  0.18854800  1
  C  401  1  0.18091300  0.39144800  0.21028400  1
  C  402  1  0.11826600  0.40914400  0.23040000  1
  C  404  1  0.08080900  0.42994300  0.20964100  1
  C  406  1  0.01903200  0.44851100  0.20978400  1
  C  409  1  0.79637300  0.44515900  0.19845900  1
  C  413  1  0.10121400  0.76853400  0.58351500  1
  C  415  1  0.15959900  0.80902000  0.60308400  1
  C  416  1  0.10590000  0.81160100  0.58486500  1
  C  418  1  0.07077400  0.76992400  0.56336400  1
  C  420  1  0.01576400  0.75142500  0.54401200  1
  C  423  1  0.79401800  0.74107200  0.54452300  1
  C  427  1  0.10332600  0.18332100  0.77289300  1
  C  429  1  0.16185400  0.20425400  0.81337100  1
  C  430  1  0.10750800  0.22502300  0.81597000  1
  C  432  1  0.07256500  0.20484700  0.77427300  1
  C  434  1  0.01691800  0.20572700  0.75583200  1
  C  437  1  0.79536900  0.19462200  0.74553000  1
  C  441  1  0.10621200  0.57959500  0.80924000  1
  C  443  1  0.16393100  0.59911000  0.78825600  1
  C  444  1  0.10946700  0.58093000  0.76752000  1
  C  446  1  0.07477600  0.55945700  0.78774400  1
  C  448  1  0.01918500  0.54011800  0.78692000  1
  C  451  1  0.79787400  0.54077600  0.79801000  1
  C  455  1  0.12336600  0.21984400  0.41424100  1
  C  457  1  0.18293200  0.17946000  0.39562100  1
  C  458  1  0.12074000  0.17703300  0.41335100  1
  C  460  1  0.08239000  0.21858800  0.43407100  1
  C  462  1  0.02008700  0.23697400  0.45260100  1
  C  465  1  0.79700100  0.24461700  0.44909600  1
  C  469  1  0.99204800  0.89667100  0.35202800  1
  C  471  1  0.99800600  0.85933100  0.31666000  1
  C  472  1  0.00241900  0.86998900  0.30292100  1
  C  474  1  0.00128200  0.90732500  0.33809500  1
  C  476  1  0.01422100  0.93071000  0.34608900  1
  C  479  1  0.21317000  0.94913400  0.36428000  1
  C  483  1  0.98921000  0.44598100  0.09645100  1
  C  485  1  0.00042900  0.44825100  0.13392500  1
  C  486  1  0.00572700  0.42387200  0.12343500  1
  C  488  1  0.99811300  0.42141200  0.08594000  1
  C  490  1  0.00914800  0.40585500  0.06256300  1
  C  493  1  0.21031800  0.40549200  0.04457300  1
  C  497  1  0.99141300  0.63982200  0.54682400  1
  C  499  1  0.99457600  0.67514000  0.54474200  1
  C  500  1  0.99957400  0.68894300  0.56913000  1
  C  502  1  0.00138200  0.65382300  0.57139900  1
  C  504  1  0.01661500  0.64585500  0.58681500  1
  C  507  1  0.21575000  0.62778700  0.58708700  1
  C  511  1  0.99289800  0.09138600  0.64414900  1
  C  513  1  0.99729200  0.12876800  0.67948700  1
  C  514  1  0.00207800  0.11815800  0.69326800  1
  C  516  1  0.00253100  0.08078700  0.65812900  1
  C  518  1  0.01647300  0.05740300  0.65015700  1
  C  521  1  0.21651100  0.03931500  0.63232700  1
  C  525  1  0.99249400  0.54271600  0.90105300  1
  C  527  1  0.99810200  0.54068600  0.86368100  1
  C  528  1  0.00265100  0.56507700  0.87430000  1
  C  530  1  0.00186600  0.56730100  0.91166600  1
  C  532  1  0.01505200  0.58271800  0.93503700  1
  C  535  1  0.21430900  0.58291400  0.95337200  1
  C  539  1  0.98732000  0.34765200  0.45011900  1
  C  541  1  0.99954300  0.31245000  0.45237300  1
  C  542  1  0.00446500  0.29857300  0.42799300  1
  C  544  1  0.99581500  0.33360500  0.42554400  1
  C  546  1  0.00627000  0.34143300  0.40998500  1
  C  549  1  0.20707700  0.35912500  0.40956700  1
  C  553  1  0.93962200  0.53669500  0.64005200  1
  C  555  1  0.01159600  0.53931400  0.67590400  1
  C  556  1  0.95710200  0.56184800  0.68901700  1
  C  558  1  0.87925500  0.55900400  0.65330800  1
  C  560  1  0.80495900  0.57083600  0.64501600  1
  C  563  1  0.57524800  0.56586600  0.63942600  1
  C  567  1  0.94036900  0.35254600  0.89980900  1
  C  569  1  0.01206900  0.31673100  0.86648000  1
  C  570  1  0.95711300  0.30355100  0.87579300  1
  C  572  1  0.87977200  0.33922700  0.90876900  1
  C  574  1  0.80500300  0.34748800  0.92882500  1
  C  577  1  0.57584800  0.35311100  0.92844600  1
  C  581  1  0.93829900  0.09297000  0.45546800  1
  C  583  1  0.00961100  0.12650500  0.45336700  1
  C  584  1  0.95562500  0.11730200  0.43081500  1
  C  586  1  0.87882700  0.08408600  0.43311100  1
  C  588  1  0.80563800  0.06390800  0.42104300  1
  C  591  1  0.57571300  0.06368500  0.42617300  1
  C  595  1  0.93710500  0.45093100  0.35666600  1
  C  597  1  0.00851200  0.44895600  0.32108400  1
  C  598  1  0.95422000  0.42643700  0.30766600  1
  C  600  1  0.87750000  0.42859700  0.34312800  1
  C  602  1  0.80392500  0.41651100  0.35117300  1
  C  605  1  0.57404300  0.42190300  0.35641100  1
  C  609  1  0.93870600  0.63588500  0.09726600  1
  C  611  1  0.01113800  0.67174900  0.13043400  1
  C  612  1  0.95655300  0.68484200  0.12099600  1
  C  614  1  0.87827200  0.64912400  0.08819900  1
  C  616  1  0.80372500  0.64082200  0.06810000  1
  C  619  1  0.57395300  0.63535500  0.06762200  1
  C  623  1  0.94034900  0.89511700  0.54079100  1
  C  625  1  0.01152600  0.86186600  0.54344900  1
  C  626  1  0.95667000  0.87130000  0.56596100  1
  C  628  1  0.87974800  0.90419400  0.56308500  1
  C  630  1  0.80531100  0.92429600  0.57482000  1
  C  633  1  0.57623000  0.92426500  0.56894000  1
  C  637  1  0.98876700  0.89886900  0.09822900  1
  C  639  1  0.99475100  0.86086700  0.09469600  1
  C  640  1  0.97043400  0.87032800  0.11864700  1
  C  642  1  0.96405600  0.90839300  0.12236900  1
  C  644  1  0.93661500  0.93136200  0.13759600  1
  C  647  1  0.72839500  0.94450600  0.13295700  1
  C  651  1  0.98788800  0.18949700  0.09341800  1
  C  653  1  0.99210600  0.22416900  0.13134100  1
  C  654  1  0.97242500  0.23855500  0.12163400  1
  C  656  1  0.96655900  0.20400300  0.08367300  1
  C  658  1  0.94062500  0.19621000  0.06064400  1
  C  661  1  0.73292000  0.17845200  0.04690200  1
  C  665  1  0.98937000  0.89391100  0.80265800  1
  C  667  1  0.99502400  0.89745500  0.76819100  1
  C  668  1  0.97056700  0.87351200  0.75369300  1
  C  670  1  0.96459500  0.86977200  0.78804200  1
  C  672  1  0.93683600  0.85455600  0.79583900  1
  C  675  1  0.73000700  0.85890500  0.81385400  1
  C  679  1  0.99004900  0.08932100  0.89805200  1
  C  681  1  0.99525600  0.12732500  0.90157400  1
  C  682  1  0.97156400  0.11784800  0.87760400  1
  C  684  1  0.96604600  0.07977500  0.87388800  1
  C  686  1  0.93930700  0.05675900  0.85864200  1
  C  689  1  0.73176600  0.04314800  0.86273300  1
  C  693  1  0.99028500  0.79870500  0.90294800  1
  C  695  1  0.99624300  0.76417300  0.86499000  1
  C  696  1  0.97193700  0.74972700  0.87450200  1
  C  698  1  0.96557800  0.78413500  0.91252600  1
  C  700  1  0.93812300  0.79194100  0.93550700  1
  C  703  1  0.73085900  0.80996400  0.94894900  1
  C  707  1  0.98713400  0.09430400  0.19368200  1
  C  709  1  0.99196100  0.09104200  0.22834500  1
  C  710  1  0.97183400  0.11512100  0.24273200  1
  C  712  1  0.96531200  0.11853800  0.20819000  1
  C  714  1  0.93867100  0.13376400  0.20041100  1
  C  717  1  0.72993600  0.12941600  0.18283500  1
  C  721  1  0.01336300  0.90217800  0.42871900  1
  C  723  1  0.89683400  0.89373500  0.45537500  1
  C  724  1  0.00821500  0.90140800  0.47057700  1
  C  726  1  0.12785500  0.90909900  0.44359000  1
  C  728  1  0.24388700  0.91894400  0.44080100  1
  C  731  1  0.42544100  0.89991600  0.41727800  1
  C  735  1  0.01071900  0.51683200  0.09043700  1
  C  737  1  0.89468500  0.55195900  0.09885700  1
  C  738  1  0.00589100  0.55944000  0.09107900  1
  C  740  1  0.12492600  0.52466000  0.08333300  1
  C  742  1  0.24096500  0.51199200  0.07359500  1
  C  745  1  0.41761700  0.50723200  0.09331800  1
  C  749  1  0.01293100  0.56295800  0.47579500  1
  C  751  1  0.89466200  0.53630100  0.44084100  1
  C  752  1  0.00520100  0.52090600  0.43326300  1
  C  754  1  0.12634300  0.54785200  0.46776900  1
  C  756  1  0.24274300  0.55062300  0.48027400  1
  C  759  1  0.41837800  0.57508900  0.48435200  1
  C  763  1  0.01420000  0.08580200  0.56741700  1
  C  765  1  0.89586300  0.09417400  0.54086500  1
  C  766  1  0.00670700  0.08646500  0.52551900  1
  C  768  1  0.12819200  0.07893000  0.55246600  1
  C  770  1  0.24452800  0.06915300  0.55518900  1
  C  773  1  0.42041300  0.08936700  0.57968100  1
  C  777  1  0.01345600  0.47161600  0.90677700  1
  C  779  1  0.89631600  0.43660100  0.89844900  1
  C  780  1  0.00735300  0.42908400  0.90620600  1
  C  782  1  0.12759100  0.46367400  0.91379300  1
  C  784  1  0.24377600  0.47627400  0.92361100  1
  C  787  1  0.42490300  0.48049900  0.90432900  1
  C  791  1  0.00984300  0.42451800  0.52094400  1
  C  793  1  0.89505100  0.45128200  0.55619300  1
  C  794  1  0.00642700  0.46650100  0.56353900  1
  C  796  1  0.12426300  0.43940400  0.52864000  1
  C  798  1  0.23983000  0.43641600  0.51584500  1
  C  801  1  0.41646100  0.41186300  0.51089500  1
  C  805  1  0.96088600  0.97031000  0.42415000  1
  C  807  1  0.01543500  0.00457900  0.46020300  1
  C  808  1  0.97088900  0.01894000  0.45157900  1
  C  810  1  0.91430000  0.98468800  0.41544400  1
  C  812  1  0.85112800  0.97643500  0.39437800  1
  C  815  1  0.65595900  0.95433100  0.38431400  1
  C  819  1  0.96034300  0.44396800  0.02246400  1
  C  821  1  0.01552500  0.44576400  0.98821100  1
  C  822  1  0.97209300  0.42271700  0.97381900  1
  C  824  1  0.91503000  0.42081000  0.00805300  1
  C  826  1  0.85194500  0.40794700  0.01625200  1
  C  829  1  0.65409800  0.41994000  0.03761400  1
  C  833  1  0.96327900  0.56782000  0.54864500  1
  C  835  1  0.01839900  0.53181200  0.54691700  1
  C  836  1  0.97391000  0.54045100  0.56990400  1
  C  838  1  0.91703900  0.57656800  0.57175400  1
  C  840  1  0.85290200  0.59760500  0.58450200  1
  C  843  1  0.65681000  0.60797600  0.57305400  1
  C  847  1  0.96491200  0.01764000  0.57202800  1
  C  849  1  0.02014100  0.98339200  0.53598900  1
  C  850  1  0.97515800  0.96901300  0.54456200  1
  C  852  1  0.91808300  0.00324000  0.58069100  1
  C  854  1  0.85402100  0.01148500  0.60170500  1
  C  857  1  0.65811400  0.03327500  0.61121800  1
  C  861  1  0.96179300  0.54440200  0.97479100  1
  C  863  1  0.01610500  0.54265000  0.00908800  1
  C  864  1  0.97180100  0.56565200  0.02342100  1
  C  866  1  0.91546300  0.56750400  0.98914400  1
  C  868  1  0.85254000  0.58032000  0.98087200  1
  C  871  1  0.65706600  0.56831800  0.95884800  1
  C  875  1  0.95677500  0.41959100  0.44810600  1
  C  877  1  0.01168600  0.45562300  0.44985500  1
  C  878  1  0.96785500  0.44696100  0.42682700  1
  C  880  1  0.91113000  0.41083200  0.42496400  1
  C  882  1  0.84809500  0.38976000  0.41213300  1
  C  885  1  0.65074000  0.38033500  0.42420300  1
  C  889  1  0.00523700  0.87205700  0.97674000  1
  C  891  1  0.97228900  0.90911300  0.01150700  1
  C  892  1  0.00010433  0.89952600  0.02577800  1
  C  894  1  0.03658800  0.86250700  0.99112500  1
  C  896  1  0.08253100  0.84023200  0.98303000  1
  C  899  1  0.28816200  0.82955500  0.96394900  1
  C  903  1  0.00189100  0.09484500  0.12036900  1
  C  905  1  0.96908300  0.09258200  0.08332200  1
  C  906  1  0.99752300  0.11642200  0.09290600  1
  C  908  1  0.03379700  0.11875900  0.12990900  1
  C  910  1  0.07985100  0.13290500  0.15215700  1
  C  913  1  0.28554700  0.12387700  0.16222800  1
  C  917  1  0.00518800  0.01543600  0.89744900  1
  C  919  1  0.97272800  0.98061200  0.89965200  1
  C  920  1  0.00076700  0.96638200  0.87579100  1
  C  922  1  0.03690000  0.00108900  0.87352100  1
  C  924  1  0.08234000  0.00921200  0.85938000  1
  C  927  1  0.28867500  0.02820600  0.86836500  1
  C  931  1  0.00385600  0.11613800  0.01960600  1
  C  933  1  0.97115500  0.07910400  0.98479200  1
  C  934  1  0.99999400  0.08868900  0.97054900  1
  C  936  1  0.03631100  0.12567500  0.00524900  1
  C  938  1  0.08277300  0.14787600  0.01335100  1
  C  941  1  0.28785100  0.15807900  0.03274100  1
  C  945  1  0.00530200  0.89331300  0.87594800  1
  C  947  1  0.97288900  0.89559100  0.91300800  1
  C  948  1  0.00098900  0.87174000  0.90341600  1
  C  950  1  0.03684900  0.86938300  0.86638600  1
  C  952  1  0.08281800  0.85523800  0.84410500  1
  C  955  1  0.28835900  0.86375900  0.83350600  1
  C  959  1  0.00279300  0.97276300  0.09889400  1
  C  961  1  0.97003200  0.00756600  0.09667200  1
  C  962  1  0.99758800  0.02179900  0.12054800  1
  C  964  1  0.03373600  0.98711500  0.12285000  1
  C  966  1  0.07902900  0.97900200  0.13703000  1
  C  969  1  0.28521500  0.96009500  0.12837500  1
  H  223  1  0.72126500  0.84592300  0.19072400  1
  H  228  1  0.41991300  0.87397400  0.23625000  1
  H  229  1  0.28660000  0.88279600  0.25649500  1
  H  230  1  0.37682800  0.90366500  0.25240200  1
  H  237  1  0.73148300  0.33151000  0.13572600  1
  H  242  1  0.34086200  0.34527500  0.07219000  1
  H  243  1  0.21995300  0.32316400  0.06477100  1
  H  244  1  0.38678500  0.32001400  0.07294000  1
  H  251  1  0.71933500  0.80193100  0.65727200  1
  H  256  1  0.41519800  0.75589100  0.64035900  1
  H  257  1  0.27946000  0.73634000  0.62780800  1
  H  258  1  0.36705200  0.73839000  0.65217200  1
  H  265  1  0.72025700  0.14220200  0.80575900  1
  H  270  1  0.41347500  0.11377500  0.75715800  1
  H  271  1  0.27618900  0.10441700  0.73766600  1
  H  272  1  0.37048500  0.08404400  0.74195200  1
  H  279  1  0.72231300  0.65329900  0.85014800  1
  H  284  1  0.41968100  0.63519700  0.87838300  1
  H  285  1  0.28567200  0.62414100  0.88745800  1
  H  286  1  0.37677200  0.64911000  0.90810100  1
  H  293  1  0.73052600  0.19421400  0.33545000  1
  H  298  1  0.35071300  0.26942400  0.34656400  1
  H  299  1  0.23985100  0.25306000  0.32319000  1
  H  300  1  0.40341100  0.24212100  0.32377100  1
  H  307  1  0.03502600  0.68982500  0.79208400  1
  H  312  1  0.49584200  0.59621600  0.72893400  1
  H  313  1  0.49272300  0.62510100  0.75221900  1
  H  314  1  0.47899800  0.60142200  0.75756500  1
  H  321  1  0.03341500  0.20037800  0.90023400  1
  H  326  1  0.49261300  0.26319300  0.86927500  1
  H  327  1  0.48895500  0.24002000  0.87504000  1
  H  328  1  0.47629300  0.23450100  0.84594300  1
  H  335  1  0.01393900  0.09252000  0.30291500  1
  H  340  1  0.49880600  0.13271600  0.40064400  1
  H  341  1  0.49520800  0.12633900  0.37150900  1
  H  342  1  0.49067300  0.15572900  0.39467700  1
  H  349  1  0.01304200  0.29871500  0.20451200  1
  H  354  1  0.50094100  0.39676000  0.26266800  1
  H  355  1  0.49965600  0.36717800  0.24097500  1
  H  356  1  0.48600800  0.38925200  0.23328700  1
  H  363  1  0.03390200  0.78793300  0.09606000  1
  H  368  1  0.49488000  0.72466800  0.12640800  1
  H  369  1  0.49174500  0.74802400  0.12091600  1
  H  370  1  0.47840000  0.75326600  0.14991000  1
  H  377  1  0.03504700  0.89589400  0.69368000  1
  H  382  1  0.49259900  0.86678700  0.60092200  1
  H  383  1  0.49155500  0.87280000  0.62994600  1
  H  384  1  0.47253900  0.84371700  0.60659300  1
  H  391  1  0.19502000  0.78559600  0.16901400  1
  H  396  1  0.69803500  0.78621900  0.24823500  1
  H  397  1  0.79785800  0.80655500  0.24529800  1
  H  398  1  0.82049300  0.80235800  0.26957100  1
  H  405  1  0.21539100  0.37648500  0.20923500  1
  H  410  1  0.69564700  0.44980600  0.20593100  1
  H  411  1  0.79991900  0.42632300  0.18723100  1
  H  412  1  0.81312600  0.45350400  0.18809200  1
  H  419  1  0.18985500  0.82279700  0.61850900  1
  H  424  1  0.69389000  0.74361900  0.53943300  1
  H  425  1  0.79219500  0.74727000  0.56313700  1
  H  426  1  0.81604300  0.72248700  0.53503800  1
  H  433  1  0.19200300  0.20264700  0.82717400  1
  H  438  1  0.69493900  0.20215700  0.74809600  1
  H  439  1  0.79436200  0.18220800  0.75173100  1
  H  440  1  0.81727400  0.18554500  0.72694100  1
  H  447  1  0.19523800  0.61443300  0.78977600  1
  H  452  1  0.69727000  0.53604300  0.79050300  1
  H  453  1  0.79739500  0.55928900  0.81080100  1
  H  454  1  0.81962700  0.53082800  0.80664200  1
  H  461  1  0.21746300  0.16554500  0.38066400  1
  H  466  1  0.69646400  0.24171000  0.45374200  1
  H  467  1  0.80070400  0.23690500  0.43024900  1
  H  468  1  0.81294500  0.26334300  0.45734100  1
  H  475  1  0.99731500  0.84170400  0.30926000  1
  H  480  1  0.30913700  0.95431000  0.36028700  1
  H  481  1  0.23435700  0.93770600  0.37127700  1
  H  482  1  0.16217500  0.96476700  0.37741600  1
  H  489  1  0.00290400  0.45859800  0.15153400  1
  H  494  1  0.30506600  0.39595300  0.03919900  1
  H  495  1  0.23371300  0.42372300  0.05652700  1
  H  496  1  0.16090300  0.40379600  0.02913300  1
  H  503  1  0.99247900  0.68249600  0.53447800  1
  H  508  1  0.31298800  0.63194900  0.59587300  1
  H  509  1  0.23431700  0.62001500  0.56848500  1
  H  510  1  0.16534800  0.61520800  0.59051000  1
  H  517  1  0.99570500  0.14639000  0.68685700  1
  H  522  1  0.31179300  0.03402500  0.63641500  1
  H  523  1  0.23896400  0.05110200  0.62580400  1
  H  524  1  0.16660700  0.02379800  0.61878500  1
  H  531  1  0.99722500  0.53043500  0.84605500  1
  H  536  1  0.31032100  0.59207200  0.95851200  1
  H  537  1  0.23538200  0.56448700  0.94192600  1
  H  538  1  0.16355400  0.58540400  0.96902200  1
  H  545  1  0.00260700  0.30518700  0.46271500  1
  H  550  1  0.30167600  0.35499600  0.39999100  1
  H  551  1  0.23078600  0.36538800  0.42778500  1
  H  552  1  0.15733500  0.37287000  0.40791400  1
  H  559  1  0.06462700  0.53186800  0.68363000  1
  H  564  1  0.50228700  0.55539900  0.62597000  1
  H  565  1  0.55603000  0.58410100  0.64505000  1
  H  566  1  0.55962900  0.56287200  0.65398100  1
  H  573  1  0.06497700  0.30904100  0.85129600  1
  H  578  1  0.50346700  0.36683200  0.93207300  1
  H  579  1  0.55273000  0.34607400  0.93978700  1
  H  580  1  0.56347800  0.33954100  0.91033500  1
  H  587  1  0.06213500  0.14172900  0.46104800  1
  H  592  1  0.50235700  0.06014400  0.43619600  1
  H  593  1  0.55530500  0.05193500  0.40776900  1
  H  594  1  0.56197000  0.08162800  0.43023500  1
  H  601  1  0.06129900  0.45665200  0.31358300  1
  H  606  1  0.50063400  0.43190400  0.36997400  1
  H  607  1  0.55270500  0.40349300  0.34954100  1
  H  608  1  0.56138200  0.42619400  0.34267100  1
  H  615  1  0.06435200  0.67948500  0.14558700  1
  H  620  1  0.50081000  0.62194300  0.06469200  1
  H  621  1  0.55461500  0.64096600  0.05500400  1
  H  622  1  0.55874000  0.64993200  0.08517100  1
  H  629  1  0.06428500  0.84666700  0.53601500  1
  H  634  1  0.50420100  0.92787700  0.55878700  1
  H  635  1  0.55366600  0.93580400  0.58730400  1
  H  636  1  0.56272200  0.90623400  0.56460100  1
  H  643  1  0.00340300  0.84339300  0.08385500  1
  H  648  1  0.62793700  0.94818700  0.14058800  1
  H  649  1  0.71865900  0.93154800  0.11458700  1
  H  650  1  0.76923500  0.96054400  0.13470600  1
  H  657  1  0.99891900  0.23095000  0.14885800  1
  H  662  1  0.63300100  0.18245300  0.04306200  1
  H  663  1  0.72165800  0.17283400  0.05967900  1
  H  664  1  0.77475600  0.16429100  0.03087700  1
  H  671  1  0.00374500  0.90830200  0.76156600  1
  H  676  1  0.62885100  0.85156100  0.80985100  1
  H  677  1  0.72177900  0.87748700  0.82015000  1
  H  678  1  0.77140500  0.85620300  0.82753000  1
  H  685  1  0.00352500  0.14480400  0.91241700  1
  H  690  1  0.63214900  0.03913200  0.85477900  1
  H  691  1  0.71983800  0.05619700  0.88103100  1
  H  692  1  0.77352600  0.02728400  0.86127200  1
  H  699  1  0.00489500  0.75750300  0.84751100  1
  H  704  1  0.63020600  0.80609000  0.95263000  1
  H  705  1  0.72139100  0.81561000  0.93616700  1
  H  706  1  0.77245400  0.82406300  0.96504400  1
  H  713  1  0.99919000  0.08030900  0.23512400  1
  H  718  1  0.62995300  0.13723100  0.18687100  1
  H  719  1  0.71909800  0.11108200  0.17750500  1
  H  720  1  0.77073100  0.13102200  0.16846000  1
  H  727  1  0.80665100  0.89014200  0.46030100  1
  H  732  1  0.45820800  0.89258000  0.39933500  1
  H  733  1  0.42488100  0.88600600  0.42148700  1
  H  734  1  0.49827200  0.91321000  0.42833700  1
  H  741  1  0.80463000  0.56052200  0.10251600  1
  H  746  1  0.45004100  0.49586600  0.09979200  1
  H  747  1  0.41047100  0.52486800  0.10808100  1
  H  748  1  0.49420000  0.50662300  0.08121100  1
  H  755  1  0.80385500  0.53148300  0.43252300  1
  H  760  1  0.45131600  0.59292500  0.49557100  1
  H  761  1  0.40859300  0.57218300  0.46673500  1
  H  762  1  0.49586300  0.56358400  0.48470000  1
  H  769  1  0.80498900  0.09752100  0.53593300  1
  H  774  1  0.45318400  0.09594200  0.59751900  1
  H  775  1  0.41130900  0.10409800  0.57679100  1
  H  776  1  0.49769100  0.07745500  0.56817900  1
  H  783  1  0.80604100  0.42810700  0.89484300  1
  H  788  1  0.45794700  0.49109100  0.89699100  1
  H  789  1  0.42302800  0.46240100  0.89038100  1
  H  790  1  0.49825500  0.48255100  0.91748600  1
  H  797  1  0.80532100  0.45622200  0.56485800  1
  H  802  1  0.44852300  0.39400900  0.49950200  1
  H  803  1  0.41005700  0.41475200  0.52854400  1
  H  804  1  0.49293000  0.42332400  0.51018700  1
  H  811  1  0.05381000  0.01121200  0.47654200  1
  H  816  1  0.54689900  0.95655400  0.38565600  1
  H  817  1  0.68450200  0.94450300  0.39276500  1
  H  818  1  0.68218000  0.94445400  0.36591900  1
  H  825  1  0.05361400  0.45550900  0.98160400  1
  H  830  1  0.54531200  0.41869100  0.03500200  1
  H  831  1  0.68091000  0.43831400  0.04705900  1
  H  832  1  0.67969100  0.41200700  0.04805900  1
  H  839  1  0.05668300  0.51546600  0.53721600  1
  H  844  1  0.54795400  0.60604800  0.57349300  1
  H  845  1  0.68694600  0.60058900  0.55493400  1
  H  846  1  0.68023500  0.62649700  0.58255600  1
  H  853  1  0.05872400  0.97677000  0.51966600  1
  H  858  1  0.54913700  0.03091500  0.61010300  1
  H  859  1  0.68508200  0.04247300  0.60204700  1
  H  860  1  0.68504200  0.04383800  0.62952700  1
  H  867  1  0.05426800  0.53295200  0.01574400  1
  H  872  1  0.54802900  0.56927100  0.96111500  1
  H  873  1  0.68525400  0.55001900  0.94908000  1
  H  874  1  0.68338900  0.57674500  0.94889000  1
  H  881  1  0.04987500  0.47197200  0.45957800  1
  H  886  1  0.54189800  0.38168800  0.42301500  1
  H  887  1  0.67788700  0.38924200  0.44256200  1
  H  888  1  0.67644600  0.36195900  0.41623100  1
  H  895  1  0.94762900  0.92619700  0.01839800  1
  H  900  1  0.39428200  0.82862800  0.96761300  1
  H  901  1  0.27953500  0.84075500  0.95637300  1
  H  902  1  0.25438200  0.81206000  0.95139500  1
  H  909  1  0.94428300  0.08240600  0.06624300  1
  H  914  1  0.39118200  0.12893500  0.16385900  1
  H  915  1  0.27922700  0.10529300  0.14985800  1
  H  916  1  0.25036300  0.12733600  0.17921900  1
  H  923  1  0.94804200  0.97368400  0.90981100  1
  H  928  1  0.39444300  0.02466700  0.86343900  1
  H  929  1  0.28154500  0.03470600  0.88699300  1
  H  930  1  0.25430200  0.04156100  0.86458600  1
  H  937  1  0.94597800  0.06203700  0.97787200  1
  H  942  1  0.39405600  0.15932500  0.02934700  1
  H  943  1  0.27926800  0.14624000  0.03957100  1
  H  944  1  0.25328800  0.17533400  0.04578700  1
  H  951  1  0.94835500  0.90578200  0.93009800  1
  H  956  1  0.39451900  0.85919400  0.83257900  1
  H  957  1  0.27954000  0.88252400  0.84476100  1
  H  958  1  0.25463400  0.85887100  0.81602400  1
  H  965  1  0.94563500  0.01448600  0.08649400  1
  H  970  1  0.39054800  0.96362000  0.13361200  1
  H  971  1  0.27995300  0.95386700  0.10978000  1
  H  972  1  0.24985300  0.94653900  0.13178500  1
  N  2  1  0.05424300  0.83650600  0.26430900  1
  N  4  1  0.98283100  0.87212700  0.26840000  1
  N  6  1  0.04981300  0.84255200  0.23299800  1
  N  8  1  0.06376800  0.41911000  0.15704600  1
  N  10  1  0.00650700  0.38700800  0.12098600  1
  N  12  1  0.08451100  0.38151500  0.15029500  1
  N  14  1  0.04927400  0.72757200  0.57413500  1
  N  16  1  0.97744400  0.72352000  0.60569900  1
  N  18  1  0.04208600  0.75904300  0.61140100  1
  N  20  1  0.05164300  0.15176300  0.73192800  1
  N  22  1  0.98010000  0.11611300  0.72781000  1
  N  24  1  0.04435800  0.14591900  0.76337800  1
  N  26  1  0.05409700  0.57014100  0.84076000  1
  N  28  1  0.98315200  0.60172400  0.87638700  1
  N  30  1  0.04975000  0.60747600  0.84674700  1
  N  32  1  0.06391300  0.26025500  0.42321000  1
  N  34  1  0.00570400  0.26416700  0.39112000  1
  N  36  1  0.08536900  0.22944200  0.38560700  1
  N  38  1  0.03582800  0.56995500  0.72740900  1
  N  40  1  0.94231300  0.59980500  0.72264400  1
  N  42  1  0.03636500  0.60800300  0.75742000  1
  N  44  1  0.03457100  0.26515300  0.84529300  1
  N  46  1  0.94031900  0.26974700  0.87980200  1
  N  48  1  0.03281900  0.23491500  0.85298800  1
  N  50  1  0.03940400  0.14768700  0.42345100  1
  N  52  1  0.93612700  0.11436900  0.39336400  1
  N  54  1  0.03615400  0.14106100  0.38591200  1
  N  56  1  0.03741500  0.41919300  0.26990900  1
  N  58  1  0.93462100  0.38903300  0.27310700  1
  N  60  1  0.03397300  0.38169900  0.23890600  1
  N  62  1  0.03573200  0.72322900  0.15120400  1
  N  64  1  0.94170400  0.71843900  0.11661400  1
  N  66  1  0.03620500  0.75320700  0.14311200  1
  N  68  1  0.03356500  0.84088600  0.57400900  1
  N  70  1  0.94038900  0.87553100  0.60387800  1
  N  72  1  0.03237100  0.84875500  0.61200000  1
  N  74  1  0.92446600  0.86880900  0.15339300  1
  N  76  1  0.92347400  0.83379700  0.11790900  1
  N  78  1  0.84710800  0.83520800  0.15151800  1
  N  80  1  0.93970800  0.27449300  0.12211200  1
  N  82  1  0.92160900  0.27509900  0.15750900  1
  N  84  1  0.85893800  0.30717100  0.15450600  1
  N  86  1  0.92357000  0.83881300  0.71740300  1
  N  88  1  0.92363000  0.87433700  0.71794400  1
  N  90  1  0.84620100  0.84082200  0.68574600  1
  N  92  1  0.92563100  0.11933600  0.84282200  1
  N  94  1  0.92461200  0.15436800  0.87831200  1
  N  96  1  0.84803500  0.15294000  0.84470200  1
  N  98  1  0.92597500  0.71347100  0.87303500  1
  N  100  1  0.92490700  0.71391300  0.83800500  1
  N  102  1  0.84851800  0.68174000  0.83944900  1
  N  104  1  0.93902900  0.15057500  0.27864200  1
  N  106  1  0.92140800  0.11582100  0.27931100  1
  N  108  1  0.85877700  0.15090400  0.31137000  1
  N  110  1  0.99592100  0.89845000  0.38989100  1
  N  112  1  0.96929100  0.93257900  0.38855500  1
  N  114  1  0.97904600  0.93434100  0.42401400  1
  N  116  1  0.99243800  0.48188600  0.09438400  1
  N  118  1  0.96685900  0.44630600  0.06034400  1
  N  120  1  0.97694500  0.47988100  0.05837400  1
  N  122  1  0.99519500  0.60187300  0.51080000  1
  N  124  1  0.97018800  0.60334500  0.54635300  1
  N  126  1  0.97980700  0.56782900  0.51273400  1
  N  128  1  0.99656100  0.08954700  0.60625400  1
  N  130  1  0.97181000  0.05540500  0.60762000  1
  N  132  1  0.98145000  0.05361400  0.57214300  1
  N  134  1  0.99625400  0.50666700  0.90292200  1
  N  136  1  0.97002300  0.54218200  0.93701000  1
  N  138  1  0.97963500  0.50853400  0.93886000  1
  N  140  1  0.99094500  0.38562200  0.48602300  1
  N  142  1  0.96401000  0.38407200  0.45046000  1
  N  144  1  0.97451600  0.41962100  0.48402300  1
  N  146  1  0.97065600  0.50099400  0.60232800  1
  N  148  1  0.95528300  0.53692100  0.60421100  1
  N  150  1  0.99247500  0.50385500  0.56883700  1
  N  152  1  0.97165100  0.39030200  0.90192300  1
  N  154  1  0.95493200  0.38839700  0.93593900  1
  N  156  1  0.99197100  0.42380400  0.93830000  1
  N  158  1  0.96969100  0.09080600  0.49107100  1
  N  160  1  0.95273400  0.05680400  0.45513900  1
  N  162  1  0.99041100  0.05443200  0.48817100  1
  N  164  1  0.96835800  0.48647700  0.39446200  1
  N  166  1  0.95064200  0.45053500  0.39249600  1
  N  168  1  0.98813600  0.48354500  0.42792700  1
  N  170  1  0.96983500  0.59819400  0.09531100  1
  N  172  1  0.95365000  0.59999700  0.06123300  1
  N  174  1  0.99088900  0.56464900  0.05897900  1
  N  176  1  0.97210300  0.89713500  0.50508400  1
  N  178  1  0.95646800  0.93117400  0.54100300  1
  N  180  1  0.99406100  0.93349000  0.50795000  1
  N  182  1  0.99721100  0.90061100  0.06259200  1
  N  184  1  0.99744200  0.93532500  0.09745500  1
  N  186  1  0.99950300  0.93575600  0.06279100  1
  N  188  1  0.99508900  0.15213900  0.09178100  1
  N  190  1  0.99733200  0.15219800  0.05702400  1
  N  192  1  0.99848500  0.11714900  0.05666300  1
  N  194  1  0.99785500  0.92955800  0.84003900  1
  N  196  1  0.99898000  0.89469500  0.83990200  1
  N  198  1  0.00104400  0.92937000  0.87498600  1
  N  200  1  0.99778000  0.08759700  0.93371600  1
  N  202  1  0.99920100  0.05287300  0.89885900  1
  N  204  1  0.00053200  0.05246100  0.93353400  1
  N  206  1  0.99846000  0.83604000  0.90458000  1
  N  208  1  0.99941700  0.83599000  0.93934800  1
  N  210  1  0.00120200  0.87103400  0.93968000  1
  N  212  1  0.99471800  0.05860800  0.15630600  1
  N  214  1  0.99603800  0.09345000  0.15641200  1
  N  216  1  0.99759800  0.05878900  0.12134100  1
  N  218  1  0.83778500  0.86002500  0.21997600  1
  N  221  1  0.98184700  0.88059900  0.20133400  1
  N  232  1  0.87052300  0.34824600  0.12643200  1
  N  235  1  0.03461900  0.31212100  0.11482600  1
  N  246  1  0.83309000  0.77238600  0.64216500  1
  N  249  1  0.97773600  0.79062400  0.68123900  1
  N  260  1  0.83479100  0.12802600  0.77629800  1
  N  263  1  0.98122800  0.10751000  0.79471100  1
  N  274  1  0.83845600  0.63809500  0.86423600  1
  N  277  1  0.98296200  0.67725900  0.88483500  1
  N  288  1  0.87021000  0.22012800  0.35226700  1
  N  291  1  0.03510600  0.19530800  0.31631600  1
  N  302  1  0.98687200  0.65670500  0.76652300  1
  N  305  1  0.79402400  0.65713400  0.79425900  1
  N  316  1  0.98409900  0.22601800  0.89279200  1
  N  319  1  0.79219600  0.19805100  0.86535700  1
  N  330  1  0.97066200  0.10138200  0.33665400  1
  N  333  1  0.79800900  0.13221400  0.33743500  1
  N  344  1  0.96905000  0.33243100  0.22937900  1
  N  347  1  0.79719400  0.33316600  0.19919400  1
  N  358  1  0.98608400  0.76233600  0.10358400  1
  N  361  1  0.79297700  0.78999600  0.13089000  1
  N  372  1  0.98556700  0.88855000  0.66064200  1
  N  375  1  0.79110600  0.86164600  0.66139500  1
  N  386  1  0.15365700  0.80352700  0.20346000  1
  N  389  1  0.07146200  0.76396100  0.20033400  1
  N  400  1  0.17393800  0.39237600  0.19064900  1
  N  403  1  0.07427800  0.42800400  0.22925600  1
  N  414  1  0.14814100  0.78840200  0.60191400  1
  N  417  1  0.06763700  0.79156500  0.56542600  1
  N  428  1  0.15041900  0.18480200  0.79275500  1
  N  431  1  0.06907800  0.22441000  0.79593200  1
  N  442  1  0.15359800  0.59793700  0.80771500  1
  N  445  1  0.07105200  0.56152200  0.76816300  1
  N  456  1  0.17557000  0.20000100  0.39650500  1
  N  459  1  0.07632400  0.19704500  0.43215400  1
  N  470  1  0.99180000  0.87294500  0.34023800  1
  N  473  1  0.00574700  0.89348400  0.31474100  1
  N  484  1  0.99166200  0.45805600  0.12018100  1
  N  487  1  0.00624400  0.41210200  0.09992400  1
  N  498  1  0.98941500  0.65156000  0.53483800  1
  N  501  1  0.00475900  0.67718400  0.58085500  1
  N  512  1  0.99169200  0.11511100  0.65590700  1
  N  515  1  0.00645600  0.09466700  0.68148700  1
  N  526  1  0.99200400  0.53075200  0.87732700  1
  N  529  1  0.00621400  0.57678100  0.89779400  1
  N  540  1  0.99045900  0.33599800  0.46219000  1
  N  543  1  0.00431100  0.31031600  0.41622500  1
  N  554  1  0.00259700  0.52803600  0.65232200  1
  N  557  1  0.89291500  0.57024600  0.67672000  1
  N  568  1  0.00334100  0.34031800  0.87887200  1
  N  571  1  0.89295000  0.31580700  0.89649700  1
  N  582  1  0.00063100  0.11397200  0.46439600  1
  N  585  1  0.89219900  0.09650700  0.42211000  1
  N  596  1  0.99960300  0.45990700  0.34464700  1
  N  599  1  0.89076400  0.41767600  0.31970700  1
  N  610  1  0.00194200  0.64816800  0.11816800  1
  N  613  1  0.89210900  0.67253300  0.10032900  1
  N  624  1  0.00306500  0.87417000  0.53216300  1
  N  627  1  0.89275300  0.89201400  0.57433000  1
  N  638  1  0.00241400  0.87530100  0.08574300  1
  N  641  1  0.95495100  0.89372200  0.13099000  1
  N  652  1  0.99901900  0.20072800  0.11704500  1
  N  655  1  0.95886600  0.22732400  0.09819900  1
  N  666  1  0.00293900  0.90639700  0.79157600  1
  N  669  1  0.95512400  0.86116400  0.76474500  1
  N  680  1  0.00302600  0.11289900  0.91053900  1
  N  683  1  0.95667400  0.09444000  0.86525600  1
  N  694  1  0.00391200  0.78756900  0.87937800  1
  N  697  1  0.95645700  0.76082900  0.89789800  1
  N  708  1  0.99878800  0.08190600  0.20490400  1
  N  711  1  0.95773800  0.12731900  0.23150600  1
  N  722  1  0.90219500  0.89542700  0.43583300  1
  N  725  1  0.11664800  0.90918500  0.46397300  1
  N  736  1  0.89983700  0.53076000  0.09724800  1
  N  739  1  0.11390700  0.54496300  0.08326000  1
  N  750  1  0.90123800  0.55588700  0.46203400  1
  N  753  1  0.11405900  0.52743800  0.44753600  1
  N  764  1  0.90223200  0.09244100  0.56038100  1
  N  767  1  0.11579200  0.07878500  0.53206800  1
  N  778  1  0.90212500  0.45778900  0.90004200  1
  N  781  1  0.11594300  0.44342800  0.91397100  1
  N  792  1  0.89948000  0.43168400  0.53499300  1
  N  795  1  0.11392200  0.45978900  0.54894600  1
  N  806  1  0.00914700  0.98128300  0.44625700  1
  N  809  1  0.92113100  0.00813500  0.42962300  1
  N  820  1  0.00838200  0.45513100  0.01150300  1
  N  823  1  0.92254800  0.41153000  0.98460800  1
  N  834  1  0.01168000  0.54572100  0.53752900  1
  N  837  1  0.92398300  0.56239800  0.58103200  1
  N  848  1  0.01358600  0.00668800  0.54994500  1
  N  851  1  0.92491100  0.97979800  0.56648400  1
  N  862  1  0.00981400  0.53327500  0.98578900  1
  N  865  1  0.92229000  0.57679500  0.01259200  1
  N  876  1  0.00485000  0.44171200  0.45923700  1
  N  879  1  0.91835000  0.42498300  0.41566400  1
  N  890  1  0.97518100  0.89515600  0.98804400  1
  N  893  1  0.03238400  0.87664300  0.01458000  1
  N  904  1  0.97167500  0.08307300  0.09727600  1
  N  907  1  0.02996200  0.12808400  0.11577700  1
  N  918  1  0.97525100  0.00408100  0.90919600  1
  N  921  1  0.03287500  0.97762700  0.86414600  1
  N  932  1  0.97341300  0.09305300  0.00826100  1
  N  935  1  0.03259200  0.11155700  0.98178800  1
  N  946  1  0.97542800  0.90509900  0.89905400  1
  N  949  1  0.03303500  0.86005900  0.88052200  1
  N  960  1  0.97301900  0.98410000  0.08712200  1
  N  963  1  0.02955400  0.01057400  0.13221400  1
  O  225  1  0.15014100  0.91468200  0.23339000  1
  O  226  1  0.24597300  0.88225800  0.22520500  1
  O  239  1  0.29682900  0.32617100  0.11919300  1
  O  240  1  0.26468100  0.34395100  0.10018200  1
  O  253  1  0.14279900  0.75758200  0.68275400  1
  O  254  1  0.24092800  0.76663300  0.65962400  1
  O  267  1  0.15302900  0.07390900  0.76307300  1
  O  268  1  0.24384700  0.10593100  0.76964100  1
  O  281  1  0.15138000  0.67929800  0.91885000  1
  O  282  1  0.24655600  0.65471600  0.88649400  1
  O  295  1  0.29597200  0.20520000  0.33254000  1
  O  296  1  0.26400600  0.24181300  0.34734000  1
  O  309  1  0.75281300  0.60932000  0.77900700  1
  O  310  1  0.67181600  0.60644800  0.74771400  1
  O  323  1  0.74993500  0.21306200  0.83274100  1
  O  324  1  0.66866700  0.24444800  0.86098800  1
  O  337  1  0.77323300  0.16586900  0.38497800  1
  O  338  1  0.67808800  0.13908000  0.38937600  1
  O  351  1  0.76923900  0.38031800  0.21269500  1
  O  352  1  0.67820900  0.38561200  0.24437600  1
  O  365  1  0.75241400  0.77462900  0.16340200  1
  O  366  1  0.67100900  0.74340700  0.13494400  1
  O  379  1  0.74679200  0.82912200  0.61374100  1
  O  380  1  0.66767300  0.85758300  0.61076500  1
  O  393  1  0.09431600  0.77449400  0.24915500  1
  O  394  1  0.89235600  0.77530500  0.23773600  1
  O  407  1  0.09043100  0.46572800  0.21725300  1
  O  408  1  0.89158800  0.45299900  0.21718700  1
  O  421  1  0.08909500  0.74258200  0.52700200  1
  O  422  1  0.88857700  0.75395700  0.53898500  1
  O  435  1  0.08953100  0.21402700  0.74702900  1
  O  436  1  0.88939700  0.21314400  0.75840000  1
  O  449  1  0.09341900  0.52323400  0.77870400  1
  O  450  1  0.89160100  0.53553300  0.77954800  1
  O  463  1  0.09132400  0.24683800  0.46982800  1
  O  464  1  0.89282800  0.23394900  0.45708300  1
  O  477  1  0.92365400  0.93930400  0.34041600  1
  O  478  1  0.13622900  0.93744800  0.34319400  1
  O  491  1  0.91682300  0.39191200  0.05426600  1
  O  492  1  0.12990000  0.39575300  0.05556700  1
  O  505  1  0.92567200  0.65145700  0.60099400  1
  O  506  1  0.13996300  0.64894700  0.59597800  1
  O  519  1  0.92313700  0.04906900  0.65556900  1
  O  520  1  0.13738700  0.05051800  0.65319800  1
  O  533  1  0.92460300  0.59700900  0.94363700  1
  O  534  1  0.13714000  0.59233400  0.94172800  1
  O  547  1  0.91374900  0.33574800  0.39607300  1
  O  548  1  0.12685100  0.33837300  0.39983900  1
  O  561  1  0.86910200  0.58418600  0.64111800  1
  O  562  1  0.70791700  0.55891100  0.62972700  1
  O  575  1  0.86918800  0.35099400  0.94595900  1
  O  576  1  0.70863300  0.36304100  0.93277700  1
  O  589  1  0.86954900  0.04663900  0.40765300  1
  O  590  1  0.70801900  0.05999300  0.43250900  1
  O  603  1  0.86753300  0.40308300  0.35503900  1
  O  604  1  0.70622400  0.42797500  0.36653900  1
  O  617  1  0.86767900  0.63685600  0.05081300  1
  O  618  1  0.70648100  0.62558900  0.06481300  1
  O  631  1  0.86967500  0.94140900  0.58844400  1
  O  632  1  0.70934900  0.92826200  0.56316700  1
  O  645  1  0.01758800  0.94108100  0.15342400  1
  O  646  1  0.80912000  0.93604700  0.14509800  1
  O  659  1  0.02262100  0.20226500  0.05102200  1
  O  660  1  0.81366400  0.19909000  0.05576600  1
  O  673  1  0.01913900  0.83893400  0.78974400  1
  O  674  1  0.80882300  0.84737000  0.79297100  1
  O  687  1  0.02397100  0.04743700  0.84335900  1
  O  688  1  0.81309100  0.05165200  0.85069800  1
  O  701  1  0.01874600  0.78580000  0.94524900  1
  O  702  1  0.81048600  0.78921600  0.94019600  1
  O  715  1  0.02040700  0.14947400  0.20642900  1
  O  716  1  0.81156900  0.14147000  0.20333500  1
  O  729  1  0.24815400  0.94011800  0.45210600  1
  O  730  1  0.29315500  0.90954100  0.41928500  1
  O  743  1  0.24709100  0.50282400  0.05246400  1
  O  744  1  0.28939700  0.49905400  0.08211300  1
  O  757  1  0.25056700  0.53896600  0.48974400  1
  O  758  1  0.29172900  0.57210700  0.49301300  1
  O  771  1  0.25227100  0.04802800  0.54348000  1
  O  772  1  0.29335700  0.07783200  0.57667400  1
  O  785  1  0.24816300  0.48616200  0.94478500  1
  O  786  1  0.29330100  0.48834600  0.91418300  1
  O  799  1  0.24555900  0.44837000  0.50666400  1
  O  800  1  0.28786500  0.41493700  0.50286200  1
  O  813  1  0.89383600  0.98389800  0.38214200  1
  O  814  1  0.71651900  0.97698000  0.39554800  1
  O  827  1  0.89668800  0.38842300  0.00910700  1
  O  828  1  0.71737500  0.40809200  0.01519900  1
  O  841  1  0.89724700  0.60978500  0.60408300  1
  O  842  1  0.71861600  0.59592700  0.58353200  1
  O  855  1  0.90096600  0.00428100  0.61390700  1
  O  856  1  0.71963800  0.01072300  0.60075300  1
  O  869  1  0.89567600  0.59998600  0.98828400  1
  O  870  1  0.71791900  0.57978900  0.98147200  1
  O  883  1  0.89253600  0.37738800  0.39258300  1
  O  884  1  0.71351100  0.39094100  0.41235100  1
  O  897  1  0.01570700  0.82891400  0.98926400  1
  O  898  1  0.21534800  0.83884700  0.98543700  1
  O  911  1  0.01178700  0.15034700  0.16339200  1
  O  912  1  0.21209700  0.13717000  0.15424800  1
  O  925  1  0.01705700  0.00301300  0.84166900  1
  O  926  1  0.21502000  0.00692100  0.85526700  1
  O  939  1  0.01914400  0.15937900  0.00694100  1
  O  940  1  0.21581500  0.14953300  0.01125700  1
  O  953  1  0.01610100  0.83767800  0.83276200  1
  O  954  1  0.21566400  0.85147300  0.84271200  1
  O  967  1  0.00985700  0.98506600  0.15432900  1
  O  968  1  0.21099900  0.98130500  0.14153600  1
