# generated using pymatgen
data_Ni2H19C15O7
_symmetry_space_group_name_H-M   'P 1'
_cell_length_a   28.35816000
_cell_length_b   29.32466000
_cell_length_c   29.36758000
_cell_angle_alpha   90.80582000
_cell_angle_beta   90.16182000
_cell_angle_gamma   90.78374000
_symmetry_Int_Tables_number   1
_chemical_formula_structural   Ni2H19C15O7
_chemical_formula_sum   'Ni64 H608 C480 O224'
_cell_volume   24417.07471755
_cell_formula_units_Z   32
loop_
 _symmetry_equiv_pos_site_id
 _symmetry_equiv_pos_as_xyz
  1  'x, y, z'
loop_
 _atom_site_type_symbol
 _atom_site_label
 _atom_site_symmetry_multiplicity
 _atom_site_fract_x
 _atom_site_fract_y
 _atom_site_fract_z
 _atom_site_occupancy
  Ni  Ni1  1  0.48974000  0.50791000  0.46085000  1.0
  Ni  Ni2  1  0.49150000  0.47870000  0.56222000  1.0
  Ni  Ni3  1  0.59347000  0.49713000  0.51520000  1.0
  Ni  Ni4  1  0.38920000  0.50598000  0.51263000  1.0
  Ni  Ni5  1  0.05368000  0.49259000  0.50531000  1.0
  Ni  Ni6  1  0.96853000  0.55859000  0.50400000  1.0
  Ni  Ni7  1  0.02245000  0.54572000  0.40978000  1.0
  Ni  Ni8  1  0.00912000  0.52046000  0.60051000  1.0
  Ni  Ni9  1  0.50443000  0.46486000  0.05260000  1.0
  Ni  Ni10  1  0.51072000  0.49287000  0.95160000  1.0
  Ni  Ni11  1  0.60701000  0.50380000  0.00636000  1.0
  Ni  Ni12  1  0.40438000  0.47218000  0.00128000  1.0
  Ni  Ni13  1  0.51952000  0.95944000  0.45544000  1.0
  Ni  Ni14  1  0.52678000  0.03717000  0.52728000  1.0
  Ni  Ni15  1  0.62314000  0.00079000  0.48621000  1.0
  Ni  Ni16  1  0.42226000  0.00292000  0.48403000  1.0
  Ni  Ni17  1  0.05320000  0.54689000  0.01091000  1.0
  Ni  Ni18  1  0.95610000  0.49607000  0.00835000  1.0
  Ni  Ni19  1  0.99797000  0.52081000  0.10855000  1.0
  Ni  Ni20  1  0.00339000  0.54392000  0.91255000  1.0
  Ni  Ni21  1  0.01596000  0.97166000  0.50330000  1.0
  Ni  Ni22  1  0.01688000  0.07023000  0.46556000  1.0
  Ni  Ni23  1  0.91511000  0.03076000  0.49063000  1.0
  Ni  Ni24  1  0.11831000  0.01127000  0.47613000  1.0
  Ni  Ni25  1  0.49998000  0.01550000  0.03179000  1.0
  Ni  Ni26  1  0.50887000  0.99210000  0.92909000  1.0
  Ni  Ni27  1  0.40364000  0.98468000  0.97054000  1.0
  Ni  Ni28  1  0.60514000  0.01594000  0.99106000  1.0
  Ni  Ni29  1  0.01614000  0.00706000  0.91932000  1.0
  Ni  Ni30  1  0.00222000  0.99237000  0.02342000  1.0
  Ni  Ni31  1  0.10918000  0.00621000  0.98998000  1.0
  Ni  Ni32  1  0.90580000  0.00344000  0.95584000  1.0
  Ni  Ni33  1  0.83092000  0.25078000  0.74476000  1.0
  Ni  Ni34  1  0.72310000  0.26537000  0.75734000  1.0
  Ni  Ni35  1  0.76160000  0.26152000  0.65236000  1.0
  Ni  Ni36  1  0.79126000  0.25233000  0.85023000  1.0
  Ni  Ni37  1  0.73349000  0.71627000  0.26285000  1.0
  Ni  Ni38  1  0.73329000  0.77363000  0.17505000  1.0
  Ni  Ni39  1  0.83025000  0.77403000  0.23012000  1.0
  Ni  Ni40  1  0.63331000  0.72480000  0.21453000  1.0
  Ni  Ni41  1  0.24572000  0.21644000  0.19751000  1.0
  Ni  Ni42  1  0.24711000  0.28824000  0.27479000  1.0
  Ni  Ni43  1  0.15231000  0.28363000  0.21623000  1.0
  Ni  Ni44  1  0.33836000  0.21911000  0.26141000  1.0
  Ni  Ni45  1  0.30574000  0.72706000  0.23378000  1.0
  Ni  Ni46  1  0.22923000  0.79799000  0.22253000  1.0
  Ni  Ni47  1  0.29210000  0.77971000  0.13375000  1.0
  Ni  Ni48  1  0.23860000  0.74614000  0.31971000  1.0
  Ni  Ni49  1  0.19697000  0.27752000  0.76772000  1.0
  Ni  Ni50  1  0.29594000  0.23311000  0.76052000  1.0
  Ni  Ni51  1  0.23945000  0.24168000  0.66710000  1.0
  Ni  Ni52  1  0.25339000  0.27099000  0.86242000  1.0
  Ni  Ni53  1  0.78236000  0.78405000  0.73187000  1.0
  Ni  Ni54  1  0.67890000  0.74816000  0.73543000  1.0
  Ni  Ni55  1  0.73217000  0.75940000  0.83174000  1.0
  Ni  Ni56  1  0.73148000  0.76719000  0.63513000  1.0
  Ni  Ni57  1  0.29096000  0.76004000  0.67309000  1.0
  Ni  Ni58  1  0.29008000  0.71541000  0.76901000  1.0
  Ni  Ni59  1  0.39102000  0.71817000  0.71945000  1.0
  Ni  Ni60  1  0.19030000  0.73683000  0.71566000  1.0
  Ni  Ni61  1  0.69756000  0.24618000  0.27044000  1.0
  Ni  Ni62  1  0.79094000  0.30206000  0.27403000  1.0
  Ni  Ni63  1  0.73577000  0.29655000  0.36819000  1.0
  Ni  Ni64  1  0.75727000  0.24988000  0.17813000  1.0
  H  H1  1  0.53211000  0.43899000  0.49569000  1.0
  H  H2  1  0.46063000  0.55070000  0.52881000  1.0
  H  H3  1  0.05306000  0.57927000  0.48221000  1.0
  H  H4  1  0.97153000  0.47694000  0.53637000  1.0
  H  H5  1  0.53089000  0.54065000  0.01951000  1.0
  H  H6  1  0.47118000  0.42106000  0.98513000  1.0
  H  H7  1  0.56341000  0.95923000  0.53254000  1.0
  H  H8  1  0.49041000  0.04036000  0.44492000  1.0
  H  H9  1  0.03043000  0.47033000  0.04823000  1.0
  H  H10  1  0.97631000  0.57665000  0.98429000  1.0
  H  H11  1  0.97225000  0.00196000  0.43227000  1.0
  H  H12  1  0.06181000  0.03958000  0.53511000  1.0
  H  H13  1  0.47551000  0.94018000  0.99016000  1.0
  H  H14  1  0.53669000  0.06606000  0.97097000  1.0
  H  H15  1  0.05145000  0.94418000  0.96931000  1.0
  H  H16  1  0.97122000  0.05849000  0.97475000  1.0
  H  H17  1  0.78104000  0.31685000  0.71516000  1.0
  H  H18  1  0.77250000  0.19798000  0.78562000  1.0
  H  H19  1  0.75229000  0.80380000  0.25475000  1.0
  H  H20  1  0.70717000  0.68927000  0.18470000  1.0
  H  H21  1  0.23365000  0.30394000  0.19149000  1.0
  H  H22  1  0.25506000  0.19976000  0.28208000  1.0
  H  H23  1  0.31632000  0.81099000  0.20936000  1.0
  H  H24  1  0.21686000  0.71258000  0.24419000  1.0
  H  H25  1  0.21789000  0.19653000  0.73582000  1.0
  H  H26  1  0.27466000  0.31348000  0.79245000  1.0
  H  H27  1  0.75116000  0.70782000  0.76611000  1.0
  H  H28  1  0.71055000  0.82200000  0.69787000  1.0
  H  H29  1  0.31758000  0.68064000  0.69558000  1.0
  H  H30  1  0.25080000  0.79108000  0.74448000  1.0
  H  H31  1  0.71035000  0.33110000  0.29536000  1.0
  H  H32  1  0.77943000  0.21552000  0.25254000  1.0
  H  H33  1  0.96820000  0.83252000  0.89651000  1.0
  H  H34  1  0.92506000  0.83770000  0.94067000  1.0
  H  H35  1  0.87383000  0.87658000  0.78551000  1.0
  H  H36  1  0.91857000  0.83429000  0.78992000  1.0
  H  H37  1  0.91983000  0.78098000  0.85866000  1.0
  H  H38  1  0.87676000  0.78670000  0.90279000  1.0
  H  H39  1  0.81188000  0.84764000  0.89580000  1.0
  H  H40  1  0.81181000  0.88445000  0.84766000  1.0
  H  H41  1  0.85860000  0.93496000  0.88693000  1.0
  H  H42  1  0.85935000  0.89719000  0.93427000  1.0
  H  H43  1  0.92154000  0.92809000  0.82422000  1.0
  H  H44  1  0.96635000  0.88579000  0.82810000  1.0
  H  H45  1  0.09656000  0.16097000  0.81258000  1.0
  H  H46  1  0.13656000  0.13171000  0.77559000  1.0
  H  H47  1  0.14733000  0.09808000  0.93873000  1.0
  H  H48  1  0.09025000  0.11374000  0.91742000  1.0
  H  H49  1  0.06601000  0.09181000  0.83592000  1.0
  H  H50  1  0.10632000  0.06235000  0.79962000  1.0
  H  H51  1  0.18703000  0.04014000  0.82915000  1.0
  H  H52  1  0.20481000  0.05444000  0.88617000  1.0
  H  H53  1  0.23530000  0.12151000  0.86242000  1.0
  H  H54  1  0.21784000  0.10829000  0.80508000  1.0
  H  H55  1  0.17800000  0.16537000  0.91525000  1.0
  H  H56  1  0.12138000  0.18147000  0.89424000  1.0
  H  H57  1  0.21897000  0.89714000  0.06037000  1.0
  H  H58  1  0.17831000  0.84966000  0.05794000  1.0
  H  H59  1  0.13284000  0.97895000  0.15665000  1.0
  H  H60  1  0.16874000  0.99286000  0.10855000  1.0
  H  H61  1  0.16121000  0.94332000  0.03420000  1.0
  H  H62  1  0.12043000  0.89611000  0.03226000  1.0
  H  H63  1  0.06914000  0.87766000  0.10152000  1.0
  H  H64  1  0.07421000  0.91183000  0.15260000  1.0
  H  H65  1  0.13182000  0.86484000  0.17845000  1.0
  H  H66  1  0.12707000  0.83080000  0.12745000  1.0
  H  H67  1  0.19073000  0.93358000  0.18186000  1.0
  H  H68  1  0.22597000  0.94637000  0.13294000  1.0
  H  H69  1  0.19165000  0.13194000  0.09912000  1.0
  H  H70  1  0.15657000  0.11985000  0.14824000  1.0
  H  H71  1  0.07714000  0.17475000  0.00946000  1.0
  H  H72  1  0.13059000  0.14351000  0.00326000  1.0
  H  H73  1  0.14959000  0.07836000  0.05935000  1.0
  H  H74  1  0.11141000  0.07015000  0.10779000  1.0
  H  H75  1  0.03545000  0.11392000  0.11582000  1.0
  H  H76  1  0.02260000  0.15877000  0.07710000  1.0
  H  H77  1  0.06307000  0.20853000  0.12413000  1.0
  H  H78  1  0.07872000  0.16305000  0.16109000  1.0
  H  H79  1  0.11576000  0.22728000  0.05578000  1.0
  H  H80  1  0.16951000  0.19722000  0.04655000  1.0
  H  H81  1  0.89037000  0.88697000  0.17998000  1.0
  H  H82  1  0.90962000  0.84659000  0.13786000  1.0
  H  H83  1  0.81250000  0.97242000  0.08268000  1.0
  H  H84  1  0.84896000  0.98461000  0.13137000  1.0
  H  H85  1  0.92769000  0.94415000  0.14114000  1.0
  H  H86  1  0.94672000  0.90359000  0.09905000  1.0
  H  H87  1  0.89465000  0.88536000  0.02926000  1.0
  H  H88  1  0.83944000  0.91334000  0.02232000  1.0
  H  H89  1  0.80217000  0.85650000  0.06128000  1.0
  H  H90  1  0.85729000  0.82826000  0.06827000  1.0
  H  H91  1  0.77511000  0.91536000  0.12120000  1.0
  H  H92  1  0.81118000  0.92736000  0.17020000  1.0
  H  H93  1  0.82768000  0.13572000  0.81677000  1.0
  H  H94  1  0.87017000  0.13668000  0.77176000  1.0
  H  H95  1  0.93006000  0.11507000  0.92739000  1.0
  H  H96  1  0.87176000  0.09382000  0.91507000  1.0
  H  H97  1  0.85132000  0.06404000  0.83456000  1.0
  H  H98  1  0.89491000  0.06607000  0.79041000  1.0
  H  H99  1  0.97845000  0.09842000  0.80788000  1.0
  H  H100  1  0.99206000  0.11904000  0.86447000  1.0
  H  H101  1  0.96929000  0.18948000  0.84479000  1.0
  H  H102  1  0.95496000  0.16851000  0.78870000  1.0
  H  H103  1  0.90765000  0.18726000  0.90827000  1.0
  H  H104  1  0.84908000  0.16615000  0.89645000  1.0
  H  H105  1  0.67415000  0.98777000  0.82557000  1.0
  H  H106  1  0.69609000  0.96496000  0.87765000  1.0
  H  H107  1  0.58513000  0.86676000  0.78994000  1.0
  H  H108  1  0.62194000  0.90433000  0.75751000  1.0
  H  H109  1  0.70448000  0.92665000  0.78647000  1.0
  H  H110  1  0.72599000  0.90461000  0.83901000  1.0
  H  H111  1  0.67314000  0.84928000  0.88536000  1.0
  H  H112  1  0.61529000  0.83453000  0.86495000  1.0
  H  H113  1  0.58548000  0.89559000  0.90423000  1.0
  H  H114  1  0.64357000  0.91028000  0.92412000  1.0
  H  H115  1  0.55503000  0.92811000  0.82880000  1.0
  H  H116  1  0.59167000  0.96596000  0.79673000  1.0
  H  H117  1  0.33511000  0.87259000  0.77916000  1.0
  H  H118  1  0.31162000  0.85303000  0.83212000  1.0
  H  H119  1  0.48244000  0.88155000  0.82837000  1.0
  H  H120  1  0.44764000  0.91675000  0.79228000  1.0
  H  H121  1  0.36324000  0.93739000  0.81540000  1.0
  H  H122  1  0.33910000  0.91738000  0.86799000  1.0
  H  H123  1  0.38928000  0.86791000  0.92037000  1.0
  H  H124  1  0.44848000  0.85401000  0.90477000  1.0
  H  H125  1  0.42178000  0.78957000  0.86792000  1.0
  H  H126  1  0.36262000  0.80298000  0.88411000  1.0
  H  H127  1  0.45504000  0.81841000  0.79157000  1.0
  H  H128  1  0.41896000  0.85261000  0.75572000  1.0
  H  H129  1  0.46890000  0.15902000  0.92427000  1.0
  H  H130  1  0.47615000  0.13436000  0.86863000  1.0
  H  H131  1  0.31279000  0.16487000  0.91564000  1.0
  H  H132  1  0.35750000  0.20214000  0.93914000  1.0
  H  H133  1  0.43181000  0.22046000  0.89278000  1.0
  H  H134  1  0.43927000  0.19574000  0.83720000  1.0
  H  H135  1  0.37545000  0.14156000  0.80382000  1.0
  H  H136  1  0.32340000  0.12924000  0.83598000  1.0
  H  H137  1  0.36013000  0.06809000  0.86785000  1.0
  H  H138  1  0.41200000  0.08048000  0.83540000  1.0
  H  H139  1  0.34926000  0.10426000  0.94710000  1.0
  H  H140  1  0.39406000  0.14148000  0.97045000  1.0
  H  H141  1  0.67438000  0.07600000  0.08641000  1.0
  H  H142  1  0.64832000  0.12094000  0.05457000  1.0
  H  H143  1  0.61398000  0.11909000  0.21893000  1.0
  H  H144  1  0.66970000  0.09637000  0.20186000  1.0
  H  H145  1  0.71229000  0.12820000  0.13180000  1.0
  H  H146  1  0.68654000  0.17305000  0.09970000  1.0
  H  H147  1  0.60678000  0.20645000  0.12488000  1.0
  H  H148  1  0.57726000  0.18409000  0.17376000  1.0
  H  H149  1  0.53886000  0.13187000  0.12819000  1.0
  H  H150  1  0.56857000  0.15399000  0.07925000  1.0
  H  H151  1  0.57563000  0.06652000  0.17304000  1.0
  H  H152  1  0.63123000  0.04364000  0.15595000  1.0
  H  H153  1  0.53646000  0.89746000  0.11701000  1.0
  H  H154  1  0.51730000  0.86015000  0.07159000  1.0
  H  H155  1  0.68781000  0.86377000  0.10325000  1.0
  H  H156  1  0.65036000  0.87485000  0.15105000  1.0
  H  H157  1  0.56773000  0.83751000  0.15454000  1.0
  H  H158  1  0.54814000  0.79981000  0.10954000  1.0
  H  H159  1  0.60224000  0.78316000  0.04183000  1.0
  H  H160  1  0.65972000  0.80905000  0.03909000  1.0
  H  H161  1  0.62924000  0.86988000  0.00165000  1.0
  H  H162  1  0.57165000  0.84415000  0.00363000  1.0
  H  H163  1  0.65669000  0.92435000  0.06631000  1.0
  H  H164  1  0.61877000  0.93533000  0.11375000  1.0
  H  H165  1  0.30675000  0.05378000  0.18775000  1.0
  H  H166  1  0.27599000  0.07602000  0.13972000  1.0
  H  H167  1  0.44925000  0.07763000  0.13043000  1.0
  H  H168  1  0.42311000  0.03254000  0.16281000  1.0
  H  H169  1  0.34143000  0.00045000  0.14089000  1.0
  H  H170  1  0.31023000  0.02291000  0.09326000  1.0
  H  H171  1  0.34789000  0.08750000  0.04641000  1.0
  H  H172  1  0.40508000  0.10957000  0.06152000  1.0
  H  H173  1  0.37100000  0.16270000  0.10833000  1.0
  H  H174  1  0.31381000  0.14062000  0.09317000  1.0
  H  H175  1  0.41534000  0.13000000  0.17715000  1.0
  H  H176  1  0.38851000  0.08538000  0.20959000  1.0
  H  H177  1  0.08162000  0.95015000  0.31888000  1.0
  H  H178  1  0.13638000  0.96389000  0.34657000  1.0
  H  H179  1  0.08435000  0.80354000  0.35453000  1.0
  H  H180  1  0.06700000  0.83340000  0.30461000  1.0
  H  H181  1  0.11934000  0.89742000  0.27348000  1.0
  H  H182  1  0.17413000  0.91184000  0.30090000  1.0
  H  H183  1  0.19915000  0.87010000  0.37277000  1.0
  H  H184  1  0.16324000  0.82502000  0.39493000  1.0
  H  H185  1  0.12302000  0.87519000  0.43886000  1.0
  H  H186  1  0.16043000  0.92048000  0.41883000  1.0
  H  H187  1  0.04536000  0.85556000  0.39906000  1.0
  H  H188  1  0.02845000  0.88618000  0.34942000  1.0
  H  H189  1  0.11125000  0.81939000  0.64373000  1.0
  H  H190  1  0.13923000  0.86621000  0.67349000  1.0
  H  H191  1  0.16230000  0.86394000  0.50795000  1.0
  H  H192  1  0.10743000  0.83917000  0.52623000  1.0
  H  H193  1  0.06909000  0.86845000  0.60100000  1.0
  H  H194  1  0.09544000  0.91570000  0.63156000  1.0
  H  H195  1  0.17247000  0.95180000  0.60319000  1.0
  H  H196  1  0.19936000  0.93144000  0.55179000  1.0
  H  H197  1  0.24170000  0.88004000  0.59196000  1.0
  H  H198  1  0.21633000  0.90112000  0.64385000  1.0
  H  H199  1  0.20220000  0.81193000  0.54919000  1.0
  H  H200  1  0.14770000  0.78844000  0.56960000  1.0
  H  H201  1  0.95230000  0.16966000  0.36162000  1.0
  H  H202  1  0.92125000  0.12040000  0.33946000  1.0
  H  H203  1  0.82993000  0.22943000  0.43260000  1.0
  H  H204  1  0.87865000  0.25207000  0.40101000  1.0
  H  H205  1  0.90172000  0.21557000  0.32384000  1.0
  H  H206  1  0.86927000  0.16688000  0.30259000  1.0
  H  H207  1  0.79908000  0.13475000  0.34737000  1.0
  H  H208  1  0.78391000  0.15921000  0.40164000  1.0
  H  H209  1  0.83365000  0.11087000  0.43636000  1.0
  H  H210  1  0.85090000  0.08716000  0.38250000  1.0
  H  H211  1  0.87884000  0.18140000  0.46908000  1.0
  H  H212  1  0.92820000  0.20488000  0.43881000  1.0
  H  H213  1  0.88974000  0.95661000  0.61795000  1.0
  H  H214  1  0.84177000  0.95519000  0.57814000  1.0
  H  H215  1  0.91116000  0.80728000  0.61566000  1.0
  H  H216  1  0.91300000  0.85039000  0.65953000  1.0
  H  H217  1  0.84754000  0.90980000  0.66461000  1.0
  H  H218  1  0.79991000  0.90813000  0.62432000  1.0
  H  H219  1  0.79769000  0.84671000  0.56064000  1.0
  H  H220  1  0.84371000  0.80545000  0.55695000  1.0
  H  H221  1  0.88570000  0.85213000  0.51075000  1.0
  H  H222  1  0.83960000  0.89322000  0.51414000  1.0
  H  H223  1  0.95365000  0.85429000  0.56874000  1.0
  H  H224  1  0.95547000  0.89760000  0.61243000  1.0
  H  H225  1  0.21821000  0.19201000  0.36746000  1.0
  H  H226  1  0.17879000  0.23405000  0.38972000  1.0
  H  H227  1  0.10603000  0.08891000  0.33939000  1.0
  H  H228  1  0.16534000  0.08632000  0.36022000  1.0
  H  H229  1  0.19385000  0.14308000  0.42229000  1.0
  H  H230  1  0.15452000  0.18535000  0.44421000  1.0
  H  H231  1  0.06979000  0.19022000  0.41285000  1.0
  H  H232  1  0.04984000  0.14997000  0.37024000  1.0
  H  H233  1  0.07441000  0.19881000  0.31467000  1.0
  H  H234  1  0.09437000  0.23880000  0.35749000  1.0
  H  H235  1  0.13042000  0.13806000  0.28371000  1.0
  H  H236  1  0.18970000  0.13556000  0.30480000  1.0
  H  H237  1  0.89814000  0.23394000  0.56381000  1.0
  H  H238  1  0.94707000  0.24254000  0.60178000  1.0
  H  H239  1  0.87399000  0.08872000  0.59470000  1.0
  H  H240  1  0.87098000  0.12237000  0.54448000  1.0
  H  H241  1  0.93945000  0.17905000  0.52588000  1.0
  H  H242  1  0.98731000  0.18596000  0.56513000  1.0
  H  H243  1  0.99135000  0.13718000  0.63634000  1.0
  H  H244  1  0.94416000  0.09840000  0.64932000  1.0
  H  H245  1  0.90661000  0.15612000  0.68891000  1.0
  H  H246  1  0.95305000  0.19525000  0.67455000  1.0
  H  H247  1  0.83657000  0.14430000  0.63519000  1.0
  H  H248  1  0.83162000  0.17656000  0.58418000  1.0
  H  H249  1  0.04049000  0.40370000  0.90471000  1.0
  H  H250  1  0.05697000  0.43845000  0.85756000  1.0
  H  H251  1  0.18651000  0.36402000  0.93889000  1.0
  H  H252  1  0.13084000  0.33435000  0.93810000  1.0
  H  H253  1  0.07500000  0.34216000  0.87001000  1.0
  H  H254  1  0.09118000  0.37731000  0.82306000  1.0
  H  H255  1  0.17159000  0.42009000  0.82419000  1.0
  H  H256  1  0.21041000  0.41431000  0.87188000  1.0
  H  H257  1  0.17589000  0.47580000  0.90671000  1.0
  H  H258  1  0.13743000  0.48126000  0.85872000  1.0
  H  H259  1  0.15180000  0.42562000  0.97378000  1.0
  H  H260  1  0.09609000  0.39604000  0.97291000  1.0
  H  H261  1  0.13697000  0.68869000  0.95806000  1.0
  H  H262  1  0.17187000  0.63846000  0.95277000  1.0
  H  H263  1  0.10245000  0.69613000  0.81128000  1.0
  H  H264  1  0.11734000  0.73767000  0.85438000  1.0
  H  H265  1  0.18666000  0.72585000  0.90783000  1.0
  H  H266  1  0.22154000  0.67545000  0.90303000  1.0
  H  H267  1  0.20148000  0.61449000  0.84288000  1.0
  H  H268  1  0.15324000  0.62156000  0.80431000  1.0
  H  H269  1  0.10347000  0.58677000  0.85281000  1.0
  H  H270  1  0.15151000  0.57802000  0.89137000  1.0
  H  H271  1  0.05392000  0.66007000  0.85957000  1.0
  H  H272  1  0.06774000  0.70122000  0.90351000  1.0
  H  H273  1  0.12889000  0.68795000  0.19974000  1.0
  H  H274  1  0.10765000  0.71935000  0.15208000  1.0
  H  H275  1  0.18749000  0.57487000  0.11586000  1.0
  H  H276  1  0.15669000  0.57726000  0.16904000  1.0
  H  H277  1  0.08302000  0.62664000  0.17755000  1.0
  H  H278  1  0.06177000  0.65781000  0.12982000  1.0
  H  H279  1  0.10568000  0.65435000  0.05341000  1.0
  H  H280  1  0.15785000  0.62100000  0.04769000  1.0
  H  H281  1  0.20286000  0.68205000  0.06986000  1.0
  H  H282  1  0.15107000  0.71583000  0.07608000  1.0
  H  H283  1  0.23318000  0.63556000  0.13839000  1.0
  H  H284  1  0.20248000  0.63849000  0.19150000  1.0
  H  H285  1  0.91941000  0.37601000  0.79042000  1.0
  H  H286  1  0.87354000  0.41528000  0.77744000  1.0
  H  H287  1  0.89903000  0.38522000  0.94039000  1.0
  H  H288  1  0.95001000  0.38096000  0.90481000  1.0
  H  H289  1  0.95724000  0.43063000  0.83325000  1.0
  H  H290  1  0.91196000  0.47049000  0.82042000  1.0
  H  H291  1  0.83968000  0.47725000  0.87210000  1.0
  H  H292  1  0.83401000  0.44216000  0.92131000  1.0
  H  H293  1  0.79638000  0.38729000  0.87873000  1.0
  H  H294  1  0.80147000  0.42187000  0.82920000  1.0
  H  H295  1  0.86203000  0.32989000  0.89728000  1.0
  H  H296  1  0.91280000  0.32614000  0.86128000  1.0
  H  H297  1  0.87868000  0.38873000  0.22323000  1.0
  H  H298  1  0.92912000  0.35465000  0.21040000  1.0
  H  H299  1  0.83783000  0.40861000  0.07907000  1.0
  H  H300  1  0.83783000  0.44445000  0.12902000  1.0
  H  H301  1  0.90993000  0.44698000  0.18242000  1.0
  H  H302  1  0.96051000  0.41333000  0.16911000  1.0
  H  H303  1  0.96078000  0.36207000  0.09767000  1.0
  H  H304  1  0.91038000  0.35949000  0.06071000  1.0
  H  H305  1  0.87949000  0.30110000  0.10173000  1.0
  H  H306  1  0.92950000  0.30333000  0.13918000  1.0
  H  H307  1  0.80676000  0.34996000  0.12004000  1.0
  H  H308  1  0.80667000  0.38576000  0.17015000  1.0
  H  H309  1  0.86344000  0.55845000  0.13366000  1.0
  H  H310  1  0.91454000  0.58700000  0.15671000  1.0
  H  H311  1  0.80511000  0.68022000  0.06781000  1.0
  H  H312  1  0.77966000  0.63338000  0.09808000  1.0
  H  H313  1  0.81640000  0.60779000  0.17333000  1.0
  H  H314  1  0.86797000  0.63617000  0.19563000  1.0
  H  H315  1  0.90384000  0.70475000  0.15241000  1.0
  H  H316  1  0.87795000  0.72208000  0.09986000  1.0
  H  H317  1  0.92591000  0.67294000  0.06108000  1.0
  H  H318  1  0.95121000  0.65596000  0.11402000  1.0
  H  H319  1  0.85328000  0.63075000  0.02849000  1.0
  H  H320  1  0.82759000  0.58382000  0.05849000  1.0
  H  H321  1  0.39478000  0.78919000  0.54829000  1.0
  H  H322  1  0.34710000  0.82517000  0.56527000  1.0
  H  H323  1  0.50644000  0.88075000  0.60590000  1.0
  H  H324  1  0.50185000  0.84614000  0.55529000  1.0
  H  H325  1  0.42586000  0.84729000  0.50716000  1.0
  H  H326  1  0.37808000  0.88314000  0.52402000  1.0
  H  H327  1  0.38474000  0.93236000  0.59698000  1.0
  H  H328  1  0.43779000  0.93162000  0.63034000  1.0
  H  H329  1  0.40699000  0.87281000  0.67197000  1.0
  H  H330  1  0.35408000  0.87372000  0.63857000  1.0
  H  H331  1  0.47567000  0.82178000  0.64734000  1.0
  H  H332  1  0.47063000  0.78741000  0.59659000  1.0
  H  H333  1  0.75064000  0.13121000  0.62054000  1.0
  H  H334  1  0.74239000  0.09351000  0.66738000  1.0
  H  H335  1  0.59935000  0.14953000  0.59180000  1.0
  H  H336  1  0.65126000  0.14479000  0.55767000  1.0
  H  H337  1  0.71135000  0.08161000  0.57393000  1.0
  H  H338  1  0.70130000  0.04380000  0.62037000  1.0
  H  H339  1  0.62768000  0.05125000  0.66975000  1.0
  H  H340  1  0.58605000  0.09519000  0.65888000  1.0
  H  H341  1  0.62670000  0.14368000  0.70732000  1.0
  H  H342  1  0.66916000  0.10035000  0.71780000  1.0
  H  H343  1  0.63828000  0.19797000  0.64072000  1.0
  H  H344  1  0.68986000  0.19420000  0.60561000  1.0
  H  H345  1  0.56560000  0.89990000  0.34091000  1.0
  H  H346  1  0.61949000  0.93150000  0.33360000  1.0
  H  H347  1  0.63509000  0.77016000  0.37494000  1.0
  H  H348  1  0.58416000  0.78406000  0.34202000  1.0
  H  H349  1  0.58784000  0.84951000  0.28491000  1.0
  H  H350  1  0.64186000  0.88097000  0.27739000  1.0
  H  H351  1  0.71507000  0.86138000  0.32441000  1.0
  H  H352  1  0.71270000  0.81603000  0.36455000  1.0
  H  H353  1  0.68999000  0.86605000  0.42049000  1.0
  H  H354  1  0.69284000  0.91159000  0.38048000  1.0
  H  H355  1  0.61286000  0.82024000  0.43059000  1.0
  H  H356  1  0.56176000  0.83377000  0.39760000  1.0
  H  H357  1  0.53087000  0.16501000  0.43455000  1.0
  H  H358  1  0.57424000  0.17625000  0.47796000  1.0
  H  H359  1  0.63457000  0.14978000  0.32280000  1.0
  H  H360  1  0.57757000  0.17515000  0.32719000  1.0
  H  H361  1  0.55825000  0.22711000  0.39521000  1.0
  H  H362  1  0.60133000  0.23794000  0.43892000  1.0
  H  H363  1  0.68364000  0.20083000  0.43291000  1.0
  H  H364  1  0.69643000  0.16460000  0.38503000  1.0
  H  H365  1  0.66965000  0.10325000  0.42471000  1.0
  H  H366  1  0.65579000  0.13964000  0.47213000  1.0
  H  H367  1  0.60748000  0.08783000  0.36182000  1.0
  H  H368  1  0.55045000  0.11299000  0.36636000  1.0
  H  H369  1  0.33598000  0.92851000  0.39570000  1.0
  H  H370  1  0.36397000  0.94896000  0.34520000  1.0
  H  H371  1  0.38268000  0.78530000  0.37450000  1.0
  H  H372  1  0.32927000  0.80970000  0.39544000  1.0
  H  H373  1  0.29251000  0.87796000  0.35362000  1.0
  H  H374  1  0.31942000  0.89839000  0.30257000  1.0
  H  H375  1  0.39521000  0.86209000  0.27258000  1.0
  H  H376  1  0.42119000  0.81557000  0.30207000  1.0
  H  H377  1  0.46499000  0.86588000  0.34590000  1.0
  H  H378  1  0.43978000  0.91263000  0.31613000  1.0
  H  H379  1  0.42541000  0.83602000  0.41859000  1.0
  H  H380  1  0.37167000  0.86078000  0.43843000  1.0
  H  H381  1  0.30739000  0.10165000  0.64727000  1.0
  H  H382  1  0.29645000  0.14082000  0.60232000  1.0
  H  H383  1  0.46309000  0.11314000  0.63956000  1.0
  H  H384  1  0.42272000  0.06664000  0.64851000  1.0
  H  H385  1  0.34934000  0.05667000  0.59784000  1.0
  H  H386  1  0.33803000  0.09623000  0.55329000  1.0
  H  H387  1  0.39707000  0.16245000  0.53935000  1.0
  H  H388  1  0.44804000  0.16942000  0.57507000  1.0
  H  H389  1  0.40602000  0.21427000  0.62397000  1.0
  H  H390  1  0.35544000  0.20717000  0.58777000  1.0
  H  H391  1  0.42074000  0.15813000  0.68877000  1.0
  H  H392  1  0.38039000  0.11160000  0.69794000  1.0
  H  H393  1  0.42038000  0.29071000  0.17003000  1.0
  H  H394  1  0.39366000  0.26913000  0.11856000  1.0
  H  H395  1  0.36131000  0.43001000  0.15676000  1.0
  H  H396  1  0.41697000  0.40916000  0.17595000  1.0
  H  H397  1  0.45872000  0.34536000  0.13025000  1.0
  H  H398  1  0.43266000  0.32407000  0.07834000  1.0
  H  H399  1  0.35313000  0.35482000  0.05097000  1.0
  H  H400  1  0.32361000  0.39801000  0.08343000  1.0
  H  H401  1  0.28523000  0.34290000  0.12452000  1.0
  H  H402  1  0.31439000  0.29967000  0.09174000  1.0
  H  H403  1  0.32334000  0.37511000  0.19790000  1.0
  H  H404  1  0.37935000  0.35472000  0.21656000  1.0
  H  H405  1  0.41507000  0.56965000  0.76332000  1.0
  H  H406  1  0.45627000  0.60637000  0.79305000  1.0
  H  H407  1  0.33283000  0.53440000  0.88627000  1.0
  H  H408  1  0.35150000  0.50258000  0.83715000  1.0
  H  H409  1  0.43628000  0.51012000  0.80840000  1.0
  H  H410  1  0.47779000  0.54677000  0.83753000  1.0
  H  H411  1  0.45179000  0.59213000  0.90890000  1.0
  H  H412  1  0.39242000  0.58700000  0.92889000  1.0
  H  H413  1  0.37101000  0.64614000  0.88424000  1.0
  H  H414  1  0.43024000  0.65138000  0.86367000  1.0
  H  H415  1  0.31133000  0.59298000  0.84140000  1.0
  H  H416  1  0.33002000  0.56185000  0.79188000  1.0
  H  H417  1  0.68682000  0.30590000  0.94288000  1.0
  H  H418  1  0.72317000  0.34527000  0.91223000  1.0
  H  H419  1  0.55197000  0.35435000  0.88657000  1.0
  H  H420  1  0.57036000  0.33557000  0.94152000  1.0
  H  H421  1  0.64813000  0.36534000  0.97619000  1.0
  H  H422  1  0.68457000  0.40450000  0.94547000  1.0
  H  H423  1  0.65804000  0.43189000  0.86657000  1.0
  H  H424  1  0.60364000  0.41118000  0.84255000  1.0
  H  H425  1  0.64287000  0.35170000  0.80882000  1.0
  H  H426  1  0.69720000  0.37225000  0.83315000  1.0
  H  H427  1  0.59118000  0.29478000  0.85269000  1.0
  H  H428  1  0.60951000  0.27572000  0.90753000  1.0
  H  H429  1  0.56246000  0.57681000  0.83631000  1.0
  H  H430  1  0.52629000  0.61415000  0.86976000  1.0
  H  H431  1  0.69596000  0.65234000  0.86564000  1.0
  H  H432  1  0.67221000  0.62389000  0.81609000  1.0
  H  H433  1  0.58555000  0.63653000  0.79264000  1.0
  H  H434  1  0.54974000  0.67429000  0.82578000  1.0
  H  H435  1  0.58391000  0.71523000  0.89631000  1.0
  H  H436  1  0.64380000  0.70603000  0.91329000  1.0
  H  H437  1  0.62015000  0.64678000  0.95687000  1.0
  H  H438  1  0.56013000  0.65506000  0.94007000  1.0
  H  H439  1  0.67272000  0.59236000  0.90908000  1.0
  H  H440  1  0.64857000  0.56396000  0.85968000  1.0
  H  H441  1  0.57564000  0.35645000  0.10101000  1.0
  H  H442  1  0.62830000  0.36311000  0.06807000  1.0
  H  H443  1  0.64312000  0.40018000  0.23148000  1.0
  H  H444  1  0.60025000  0.35702000  0.21653000  1.0
  H  H445  1  0.61333000  0.30564000  0.14629000  1.0
  H  H446  1  0.66561000  0.31226000  0.11278000  1.0
  H  H447  1  0.72609000  0.37528000  0.13316000  1.0
  H  H448  1  0.71807000  0.41034000  0.18308000  1.0
  H  H449  1  0.67854000  0.46189000  0.14004000  1.0
  H  H450  1  0.68915000  0.42708000  0.09061000  1.0
  H  H451  1  0.60369000  0.45125000  0.18667000  1.0
  H  H452  1  0.56153000  0.40756000  0.17115000  1.0
  H  H453  1  0.37594000  0.54991000  0.13517000  1.0
  H  H454  1  0.43365000  0.56459000  0.15592000  1.0
  H  H455  1  0.35516000  0.67934000  0.06239000  1.0
  H  H456  1  0.31761000  0.64341000  0.09564000  1.0
  H  H457  1  0.34622000  0.61307000  0.17199000  1.0
  H  H458  1  0.40412000  0.62750000  0.19247000  1.0
  H  H459  1  0.45837000  0.67942000  0.14531000  1.0
  H  H460  1  0.43849000  0.70071000  0.09186000  1.0
  H  H461  1  0.46821000  0.63754000  0.05523000  1.0
  H  H462  1  0.48813000  0.61620000  0.10864000  1.0
  H  H463  1  0.38492000  0.61715000  0.02605000  1.0
  H  H464  1  0.34724000  0.58077000  0.05880000  1.0
  H  H465  1  0.13996000  0.68588000  0.65279000  1.0
  H  H466  1  0.15690000  0.70496000  0.59725000  1.0
  H  H467  1  0.16755000  0.53939000  0.61735000  1.0
  H  H468  1  0.12322000  0.56667000  0.65103000  1.0
  H  H469  1  0.08411000  0.63996000  0.62206000  1.0
  H  H470  1  0.09855000  0.66053000  0.56652000  1.0
  H  H471  1  0.16251000  0.62087000  0.51874000  1.0
  H  H472  1  0.19051000  0.57087000  0.53959000  1.0
  H  H473  1  0.24827000  0.61561000  0.57463000  1.0
  H  H474  1  0.22104000  0.66564000  0.55272000  1.0
  H  H475  1  0.22381000  0.58414000  0.65185000  1.0
  H  H476  1  0.17864000  0.61101000  0.68466000  1.0
  H  H477  1  0.86182000  0.43607000  0.31576000  1.0
  H  H478  1  0.81690000  0.45392000  0.35472000  1.0
  H  H479  1  0.95942000  0.38636000  0.42137000  1.0
  H  H480  1  0.96658000  0.41561000  0.36856000  1.0
  H  H481  1  0.91452000  0.48457000  0.35072000  1.0
  H  H482  1  0.86990000  0.50173000  0.39026000  1.0
  H  H483  1  0.85914000  0.45930000  0.46561000  1.0
  H  H484  1  0.89582000  0.41175000  0.47801000  1.0
  H  H485  1  0.84162000  0.36438000  0.44387000  1.0
  H  H486  1  0.80550000  0.41209000  0.43045000  1.0
  H  H487  1  0.90505000  0.33803000  0.38739000  1.0
  H  H488  1  0.91312000  0.36701000  0.33463000  1.0
  H  H489  1  0.11257000  0.42766000  0.27192000  1.0
  H  H490  1  0.08276000  0.38155000  0.29971000  1.0
  H  H491  1  0.19657000  0.47071000  0.39311000  1.0
  H  H492  1  0.16728000  0.50083000  0.34878000  1.0
  H  H493  1  0.08278000  0.47710000  0.32469000  1.0
  H  H494  1  0.05362000  0.43082000  0.35272000  1.0
  H  H495  1  0.09573000  0.38779000  0.41625000  1.0
  H  H496  1  0.15470000  0.40390000  0.43265000  1.0
  H  H497  1  0.18415000  0.35439000  0.37965000  1.0
  H  H498  1  0.12532000  0.33805000  0.36340000  1.0
  H  H499  1  0.22624000  0.42115000  0.34010000  1.0
  H  H500  1  0.19684000  0.45097000  0.29558000  1.0
  H  H501  1  0.96839000  0.67303000  0.35855000  1.0
  H  H502  1  0.94620000  0.62241000  0.33065000  1.0
  H  H503  1  0.82994000  0.71870000  0.40928000  1.0
  H  H504  1  0.88073000  0.74716000  0.38641000  1.0
  H  H505  1  0.92049000  0.71543000  0.31402000  1.0
  H  H506  1  0.89740000  0.66465000  0.28702000  1.0
  H  H507  1  0.82462000  0.62378000  0.32004000  1.0
  H  H508  1  0.79744000  0.64549000  0.37079000  1.0
  H  H509  1  0.84575000  0.60193000  0.41397000  1.0
  H  H510  1  0.87321000  0.58078000  0.36317000  1.0
  H  H511  1  0.87788000  0.67489000  0.45348000  1.0
  H  H512  1  0.92878000  0.70362000  0.43098000  1.0
  H  H513  1  0.18622000  0.37135000  0.66592000  1.0
  H  H514  1  0.18642000  0.33796000  0.61431000  1.0
  H  H515  1  0.03300000  0.39629000  0.66490000  1.0
  H  H516  1  0.08399000  0.42996000  0.68010000  1.0
  H  H517  1  0.15600000  0.43124000  0.62691000  1.0
  H  H518  1  0.15560000  0.39755000  0.57556000  1.0
  H  H519  1  0.08243000  0.34852000  0.55438000  1.0
  H  H520  1  0.03213000  0.34851000  0.59113000  1.0
  H  H521  1  0.06285000  0.28814000  0.62981000  1.0
  H  H522  1  0.11288000  0.28868000  0.59274000  1.0
  H  H523  1  0.06366000  0.33574000  0.70344000  1.0
  H  H524  1  0.11448000  0.36981000  0.71847000  1.0
  H  H525  1  0.76806000  0.60694000  0.64264000  1.0
  H  H526  1  0.77307000  0.64355000  0.59451000  1.0
  H  H527  1  0.92005000  0.60989000  0.67662000  1.0
  H  H528  1  0.87517000  0.56629000  0.67628000  1.0
  H  H529  1  0.81924000  0.55656000  0.60818000  1.0
  H  H530  1  0.82425000  0.59369000  0.56045000  1.0
  H  H531  1  0.88908000  0.65587000  0.55960000  1.0
  H  H532  1  0.92828000  0.66289000  0.60720000  1.0
  H  H533  1  0.87769000  0.71301000  0.63948000  1.0
  H  H534  1  0.83773000  0.70525000  0.59258000  1.0
  H  H535  1  0.86996000  0.65969000  0.70958000  1.0
  H  H536  1  0.82453000  0.61668000  0.71003000  1.0
  H  H537  1  0.43119000  0.40910000  0.67757000  1.0
  H  H538  1  0.38716000  0.45033000  0.69136000  1.0
  H  H539  1  0.33214000  0.31030000  0.61127000  1.0
  H  H540  1  0.38246000  0.30483000  0.64766000  1.0
  H  H541  1  0.39104000  0.35547000  0.71947000  1.0
  H  H542  1  0.34662000  0.39632000  0.73293000  1.0
  H  H543  1  0.27428000  0.40423000  0.68067000  1.0
  H  H544  1  0.26917000  0.36977000  0.62989000  1.0
  H  H545  1  0.30788000  0.42380000  0.59009000  1.0
  H  H546  1  0.31485000  0.45833000  0.64048000  1.0
  H  H547  1  0.37156000  0.36340000  0.57006000  1.0
  H  H548  1  0.42207000  0.35840000  0.60626000  1.0
  H  H549  1  0.56071000  0.64740000  0.31810000  1.0
  H  H550  1  0.57169000  0.60145000  0.27889000  1.0
  H  H551  1  0.65014000  0.59372000  0.42825000  1.0
  H  H552  1  0.59469000  0.62211000  0.42707000  1.0
  H  H553  1  0.53073000  0.59692000  0.36975000  1.0
  H  H554  1  0.54140000  0.55087000  0.33055000  1.0
  H  H555  1  0.62032000  0.50956000  0.33215000  1.0
  H  H556  1  0.66517000  0.52657000  0.37219000  1.0
  H  H557  1  0.69540000  0.57696000  0.32107000  1.0
  H  H558  1  0.65091000  0.56013000  0.28058000  1.0
  H  H559  1  0.68002000  0.64383000  0.37688000  1.0
  H  H560  1  0.62472000  0.67253000  0.37546000  1.0
  H  H561  1  0.40995000  0.55726000  0.33743000  1.0
  H  H562  1  0.35507000  0.53187000  0.35474000  1.0
  H  H563  1  0.37244000  0.69754000  0.38031000  1.0
  H  H564  1  0.40388000  0.67416000  0.33272000  1.0
  H  H565  1  0.37096000  0.60386000  0.28907000  1.0
  H  H566  1  0.31572000  0.57857000  0.30569000  1.0
  H  H567  1  0.26988000  0.61145000  0.37267000  1.0
  H  H568  1  0.29168000  0.66050000  0.40371000  1.0
  H  H569  1  0.33089000  0.61559000  0.45164000  1.0
  H  H570  1  0.30895000  0.56574000  0.42184000  1.0
  H  H571  1  0.41120000  0.65131000  0.42810000  1.0
  H  H572  1  0.44302000  0.62768000  0.38080000  1.0
  H  H573  1  0.71360000  0.37776000  0.64009000  1.0
  H  H574  1  0.69275000  0.33815000  0.59728000  1.0
  H  H575  1  0.57138000  0.41946000  0.68540000  1.0
  H  H576  1  0.62630000  0.44919000  0.67689000  1.0
  H  H577  1  0.67446000  0.43510000  0.60469000  1.0
  H  H578  1  0.65326000  0.39540000  0.56200000  1.0
  H  H579  1  0.57540000  0.35128000  0.57393000  1.0
  H  H580  1  0.54165000  0.36006000  0.62476000  1.0
  H  H581  1  0.58090000  0.30387000  0.65980000  1.0
  H  H582  1  0.61469000  0.29441000  0.60904000  1.0
  H  H583  1  0.60960000  0.36236000  0.72040000  1.0
  H  H584  1  0.66475000  0.39203000  0.71274000  1.0
  H  H585  1  0.41717000  0.28959000  0.38372000  1.0
  H  H586  1  0.42522000  0.32159000  0.33270000  1.0
  H  H587  1  0.33032000  0.39381000  0.45339000  1.0
  H  H588  1  0.37569000  0.35641000  0.47185000  1.0
  H  H589  1  0.45159000  0.34819000  0.42571000  1.0
  H  H590  1  0.45979000  0.38005000  0.37464000  1.0
  H  H591  1  0.39547000  0.43405000  0.34766000  1.0
  H  H592  1  0.34204000  0.44000000  0.37936000  1.0
  H  H593  1  0.30810000  0.38226000  0.33831000  1.0
  H  H594  1  0.36114000  0.37584000  0.30612000  1.0
  H  H595  1  0.29631000  0.33605000  0.41223000  1.0
  H  H596  1  0.34140000  0.29807000  0.43022000  1.0
  H  H597  1  0.57035000  0.64763000  0.52996000  1.0
  H  H598  1  0.51815000  0.65711000  0.56269000  1.0
  H  H599  1  0.66525000  0.64013000  0.64994000  1.0
  H  H600  1  0.67131000  0.66293000  0.59402000  1.0
  H  H601  1  0.60407000  0.71167000  0.56056000  1.0
  H  H602  1  0.55229000  0.72170000  0.59378000  1.0
  H  H603  1  0.54430000  0.68835000  0.67351000  1.0
  H  H604  1  0.59066000  0.65467000  0.69653000  1.0
  H  H605  1  0.55593000  0.58977000  0.66545000  1.0
  H  H606  1  0.50965000  0.62339000  0.64213000  1.0
  H  H607  1  0.63092000  0.57563000  0.61946000  1.0
  H  H608  1  0.63761000  0.59884000  0.56378000  1.0
  C  C1  1  0.54764000  0.56747000  0.57057000  1.0
  C  C2  1  0.57972000  0.52926000  0.41679000  1.0
  C  C3  1  0.57627000  0.44192000  0.59695000  1.0
  C  C4  1  0.41472000  0.43719000  0.44023000  1.0
  C  C5  1  0.39970000  0.44923000  0.59494000  1.0
  C  C6  1  0.40525000  0.55988000  0.43163000  1.0
  C  C7  1  0.94919000  0.48021000  0.43777000  1.0
  C  C8  1  0.10234000  0.48237000  0.41606000  1.0
  C  C9  1  0.94257000  0.60884000  0.42199000  1.0
  C  C10  1  0.09377000  0.56649000  0.56430000  1.0
  C  C11  1  0.91622000  0.57243000  0.59002000  1.0
  C  C12  1  0.06880000  0.43718000  0.58620000  1.0
  C  C13  1  0.59192000  0.42995000  0.93569000  1.0
  C  C14  1  0.59671000  0.44776000  0.09035000  1.0
  C  C15  1  0.58346000  0.56417000  0.92877000  1.0
  C  C16  1  0.43864000  0.54661000  0.06173000  1.0
  C  C17  1  0.42246000  0.50288000  0.90290000  1.0
  C  C18  1  0.42073000  0.41730000  0.08396000  1.0
  C  C19  1  0.57943000  0.08419000  0.45205000  1.0
  C  C20  1  0.60606000  0.91430000  0.42555000  1.0
  C  C21  1  0.61633000  0.05912000  0.57412000  1.0
  C  C22  1  0.46176000  0.92906000  0.53709000  1.0
  C  C23  1  0.43430000  0.07849000  0.55451000  1.0
  C  C24  1  0.43107000  0.92995000  0.41092000  1.0
  C  C25  1  0.92783000  0.57837000  0.06563000  1.0
  C  C26  1  0.09208000  0.57283000  0.09845000  1.0
  C  C27  1  0.92531000  0.44901000  0.08891000  1.0
  C  C28  1  0.08307000  0.48378000  0.93611000  1.0
  C  C29  1  0.92811000  0.47136000  0.91441000  1.0
  C  C30  1  0.07633000  0.61343000  0.93671000  1.0
  C  C31  1  0.96344000  0.09271000  0.55425000  1.0
  C  C32  1  0.92263000  0.93709000  0.53145000  1.0
  C  C33  1  0.92956000  0.11123000  0.43406000  1.0
  C  C34  1  0.06869000  0.94815000  0.41453000  1.0
  C  C35  1  0.10620000  0.10467000  0.43294000  1.0
  C  C36  1  0.10304000  0.93205000  0.53842000  1.0
  C  C37  1  0.43698000  0.06840000  0.92616000  1.0
  C  C38  1  0.40529000  0.01644000  0.06994000  1.0
  C  C39  1  0.43368000  0.94218000  0.88267000  1.0
  C  C40  1  0.56587000  0.93475000  0.03534000  1.0
  C  C41  1  0.60293000  0.98702000  0.89089000  1.0
  C  C42  1  0.57851000  0.06028000  0.07852000  1.0
  C  C43  1  0.05821000  0.08267000  0.02845000  1.0
  C  C44  1  0.11318000  0.02601000  0.89021000  1.0
  C  C45  1  0.08257000  0.96972000  0.07774000  1.0
  C  C46  1  0.95061000  0.92457000  0.91581000  1.0
  C  C47  1  0.90516000  0.97615000  0.05378000  1.0
  C  C48  1  0.93800000  0.04081000  0.86913000  1.0
  C  C49  1  0.71786000  0.18203000  0.69356000  1.0
  C  C50  1  0.86349000  0.23439000  0.65129000  1.0
  C  C51  1  0.67395000  0.30329000  0.68192000  1.0
  C  C52  1  0.83219000  0.33365000  0.80879000  1.0
  C  C53  1  0.68930000  0.27974000  0.85086000  1.0
  C  C54  1  0.88133000  0.21479000  0.82002000  1.0
  C  C55  1  0.80872000  0.70162000  0.16256000  1.0
  C  C56  1  0.82334000  0.71762000  0.31466000  1.0
  C  C57  1  0.81292000  0.83399000  0.15175000  1.0
  C  C58  1  0.66345000  0.78792000  0.28841000  1.0
  C  C59  1  0.64350000  0.78364000  0.12868000  1.0
  C  C60  1  0.65432000  0.65547000  0.28760000  1.0
  C  C61  1  0.16645000  0.22688000  0.29670000  1.0
  C  C62  1  0.16040000  0.21235000  0.13950000  1.0
  C  C63  1  0.17525000  0.35757000  0.28665000  1.0
  C  C64  1  0.32674000  0.28166000  0.18490000  1.0
  C  C65  1  0.32928000  0.29234000  0.33591000  1.0
  C  C66  1  0.32032000  0.14883000  0.18667000  1.0
  C  C67  1  0.20737000  0.72407000  0.15307000  1.0
  C  C68  1  0.36350000  0.70545000  0.15300000  1.0
  C  C69  1  0.22014000  0.85417000  0.14417000  1.0
  C  C70  1  0.32215000  0.80360000  0.30307000  1.0
  C  C71  1  0.16476000  0.81603000  0.30207000  1.0
  C  C72  1  0.30959000  0.67376000  0.31517000  1.0
  C  C73  1  0.30243000  0.31557000  0.69934000  1.0
  C  C74  1  0.14620000  0.28693000  0.68104000  1.0
  C  C75  1  0.32820000  0.19003000  0.67579000  1.0
  C  C76  1  0.19011000  0.19598000  0.82945000  1.0
  C  C77  1  0.34507000  0.22101000  0.84698000  1.0
  C  C78  1  0.17007000  0.33056000  0.84915000  1.0
  C  C79  1  0.67923000  0.83491000  0.79381000  1.0
  C  C80  1  0.83124000  0.79717000  0.82006000  1.0
  C  C81  1  0.64069000  0.71111000  0.81890000  1.0
  C  C82  1  0.79075000  0.69714000  0.67420000  1.0
  C  C83  1  0.63308000  0.72816000  0.64822000  1.0
  C  C84  1  0.82006000  0.82029000  0.64741000  1.0
  C  C85  1  0.36412000  0.78345000  0.79266000  1.0
  C  C86  1  0.38488000  0.78497000  0.64214000  1.0
  C  C87  1  0.36793000  0.64904000  0.79107000  1.0
  C  C88  1  0.23326000  0.67782000  0.64985000  1.0
  C  C89  1  0.19665000  0.70316000  0.81276000  1.0
  C  C90  1  0.20722000  0.80615000  0.64209000  1.0
  C  C91  1  0.80727000  0.22927000  0.34254000  1.0
  C  C92  1  0.64722000  0.23902000  0.35630000  1.0
  C  C93  1  0.81795000  0.35957000  0.35217000  1.0
  C  C94  1  0.69048000  0.32144000  0.20175000  1.0
  C  C95  1  0.84674000  0.30423000  0.19022000  1.0
  C  C96  1  0.67334000  0.19118000  0.19008000  1.0
  C  C97  1  0.93068000  0.84085000  0.90333000  1.0
  C  C98  1  0.92067000  0.89033000  0.88838000  1.0
  C  C99  1  0.89634000  0.85812000  0.81009000  1.0
  C  C100  1  0.86478000  0.83075000  0.84381000  1.0
  C  C101  1  0.89795000  0.80610000  0.87756000  1.0
  C  C102  1  0.83517000  0.86556000  0.87115000  1.0
  C  C103  1  0.86737000  0.89974000  0.89729000  1.0
  C  C104  1  0.92884000  0.89302000  0.83614000  1.0
  C  C105  1  0.12474000  0.13494000  0.81157000  1.0
  C  C106  1  0.16698000  0.15070000  0.84237000  1.0
  C  C107  1  0.12778000  0.10875000  0.90785000  1.0
  C  C108  1  0.13102000  0.07102000  0.87037000  1.0
  C  C109  1  0.10395000  0.08801000  0.82775000  1.0
  C  C110  1  0.18363000  0.06630000  0.85674000  1.0
  C  C111  1  0.20443000  0.11232000  0.84048000  1.0
  C  C112  1  0.14876000  0.15469000  0.89187000  1.0
  C  C113  1  0.18400000  0.88459000  0.07242000  1.0
  C  C114  1  0.18315000  0.88360000  0.12513000  1.0
  C  C115  1  0.15193000  0.96399000  0.12701000  1.0
  C  C116  1  0.11685000  0.93694000  0.09567000  1.0
  C  C117  1  0.14481000  0.91595000  0.05505000  1.0
  C  C118  1  0.09433000  0.89774000  0.12323000  1.0
  C  C119  1  0.13356000  0.86613000  0.14062000  1.0
  C  C120  1  0.19096000  0.93286000  0.14393000  1.0
  C  C121  1  0.15481000  0.13094000  0.11216000  1.0
  C  C122  1  0.13265000  0.17878000  0.10959000  1.0
  C  C123  1  0.10565000  0.15769000  0.02866000  1.0
  C  C124  1  0.08440000  0.11853000  0.05786000  1.0
  C  C125  1  0.12573000  0.09585000  0.08382000  1.0
  C  C126  1  0.05182000  0.14063000  0.09419000  1.0
  C  C127  1  0.08021000  0.17464000  0.12518000  1.0
  C  C128  1  0.13264000  0.19343000  0.05898000  1.0
  C  C129  1  0.88974000  0.87874000  0.14286000  1.0
  C  C130  1  0.83780000  0.87212000  0.12628000  1.0
  C  C131  1  0.83774000  0.95711000  0.10701000  1.0
  C  C132  1  0.88132000  0.93865000  0.08102000  1.0
  C  C133  1  0.91508000  0.91746000  0.11650000  1.0
  C  C134  1  0.86413000  0.89968000  0.04816000  1.0
  C  C135  1  0.83879000  0.86100000  0.07451000  1.0
  C  C136  1  0.81228000  0.91833000  0.13329000  1.0
  C  C137  1  0.86592000  0.13230000  0.80914000  1.0
  C  C138  1  0.89491000  0.16930000  0.83623000  1.0
  C  C139  1  0.90232000  0.11282000  0.90056000  1.0
  C  C140  1  0.92142000  0.08718000  0.85781000  1.0
  C  C141  1  0.88195000  0.08404000  0.82151000  1.0
  C  C142  1  0.96346000  0.11572000  0.83850000  1.0
  C  C143  1  0.94786000  0.16348000  0.82561000  1.0
  C  C144  1  0.88695000  0.16168000  0.88788000  1.0
  C  C145  1  0.67323000  0.95717000  0.84757000  1.0
  C  C146  1  0.62186000  0.94711000  0.86298000  1.0
  C  C147  1  0.61263000  0.89411000  0.79275000  1.0
  C  C148  1  0.65698000  0.87586000  0.81741000  1.0
  C  C149  1  0.69361000  0.91586000  0.82113000  1.0
  C  C150  1  0.64224000  0.86249000  0.86642000  1.0
  C  C151  1  0.62201000  0.90386000  0.89288000  1.0
  C  C152  1  0.59216000  0.93582000  0.81933000  1.0
  C  C153  1  0.34454000  0.86462000  0.81499000  1.0
  C  C154  1  0.38214000  0.82628000  0.81580000  1.0
  C  C155  1  0.44582000  0.88803000  0.81663000  1.0
  C  C156  1  0.41384000  0.90094000  0.85788000  1.0
  C  C157  1  0.36323000  0.90844000  0.83951000  1.0
  C  C158  1  0.41255000  0.86008000  0.89088000  1.0
  C  C159  1  0.39437000  0.81632000  0.86619000  1.0
  C  C160  1  0.42703000  0.84465000  0.79184000  1.0
  C  C161  1  0.44954000  0.14774000  0.89299000  1.0
  C  C162  1  0.41330000  0.10948000  0.90486000  1.0
  C  C163  1  0.35153000  0.17158000  0.91684000  1.0
  C  C164  1  0.37032000  0.18080000  0.86809000  1.0
  C  C165  1  0.42445000  0.18938000  0.87162000  1.0
  C  C166  1  0.36190000  0.13665000  0.83898000  1.0
  C  C167  1  0.38681000  0.09517000  0.86043000  1.0
  C  C168  1  0.37642000  0.13039000  0.93815000  1.0
  C  C169  1  0.65230000  0.10700000  0.08943000  1.0
  C  C170  1  0.60312000  0.09467000  0.10925000  1.0
  C  C171  1  0.63640000  0.11114000  0.18887000  1.0
  C  C172  1  0.64744000  0.15542000  0.16209000  1.0
  C  C173  1  0.67813000  0.14237000  0.12021000  1.0
  C  C174  1  0.60020000  0.17476000  0.14446000  1.0
  C  C175  1  0.57427000  0.13929000  0.11354000  1.0
  C  C176  1  0.61037000  0.07550000  0.15779000  1.0
  C  C177  1  0.54875000  0.87182000  0.09154000  1.0
  C  C178  1  0.58586000  0.89360000  0.05923000  1.0
  C  C179  1  0.65037000  0.86770000  0.11371000  1.0
  C  C180  1  0.62199000  0.82306000  0.10305000  1.0
  C  C181  1  0.56982000  0.83094000  0.11717000  1.0
  C  C182  1  0.62288000  0.81462000  0.05068000  1.0
  C  C183  1  0.60202000  0.85589000  0.02505000  1.0
  C  C184  1  0.62920000  0.90874000  0.08842000  1.0
  C  C185  1  0.31167000  0.06822000  0.15321000  1.0
  C  C186  1  0.34244000  0.11256000  0.15640000  1.0
  C  C187  1  0.41507000  0.06356000  0.14295000  1.0
  C  C188  1  0.38229000  0.05075000  0.10192000  1.0
  C  C189  1  0.33501000  0.03211000  0.12149000  1.0
  C  C190  1  0.37181000  0.09515000  0.07574000  1.0
  C  C191  1  0.34869000  0.13115000  0.10745000  1.0
  C  C192  1  0.39183000  0.09935000  0.17468000  1.0
  C  C193  1  0.11147000  0.93535000  0.33811000  1.0
  C  C194  1  0.09267000  0.91320000  0.38274000  1.0
  C  C195  1  0.08563000  0.83738000  0.33786000  1.0
  C  C196  1  0.13784000  0.85220000  0.32973000  1.0
  C  C197  1  0.13734000  0.89985000  0.30717000  1.0
  C  C198  1  0.16198000  0.85827000  0.37716000  1.0
  C  C199  1  0.13550000  0.89281000  0.40779000  1.0
  C  C200  1  0.05930000  0.87291000  0.36834000  1.0
  C  C201  1  0.13240000  0.85123000  0.63901000  1.0
  C  C202  1  0.17984000  0.84039000  0.61518000  1.0
  C  C203  1  0.14106000  0.85518000  0.53846000  1.0
  C  C204  1  0.13076000  0.89906000  0.56679000  1.0
  C  C205  1  0.10342000  0.88494000  0.61046000  1.0
  C  C206  1  0.17865000  0.92067000  0.58203000  1.0
  C  C207  1  0.20770000  0.88616000  0.60974000  1.0
  C  C208  1  0.16880000  0.82058000  0.56698000  1.0
  C  C209  1  0.91701000  0.15267000  0.35934000  1.0
  C  C210  1  0.89829000  0.14220000  0.40768000  1.0
  C  C211  1  0.85939000  0.21996000  0.40948000  1.0
  C  C212  1  0.83970000  0.19673000  0.36548000  1.0
  C  C213  1  0.88226000  0.18421000  0.33427000  1.0
  C  C214  1  0.81390000  0.15187000  0.37841000  1.0
  C  C215  1  0.84839000  0.11961000  0.40243000  1.0
  C  C216  1  0.89310000  0.18787000  0.43445000  1.0
  C  C217  1  0.86681000  0.93338000  0.59698000  1.0
  C  C218  1  0.89754000  0.90523000  0.56320000  1.0
  C  C219  1  0.90256000  0.84348000  0.62350000  1.0
  C  C220  1  0.84877000  0.85098000  0.61730000  1.0
  C  C221  1  0.83827000  0.90164000  0.62851000  1.0
  C  C222  1  0.83607000  0.84152000  0.56636000  1.0
  C  C223  1  0.86455000  0.87308000  0.53490000  1.0
  C  C224  1  0.93133000  0.87539000  0.59168000  1.0
  C  C225  1  0.18060000  0.19860000  0.37575000  1.0
  C  C226  1  0.14959000  0.19345000  0.33183000  1.0
  C  C227  1  0.13623000  0.11006000  0.35231000  1.0
  C  C228  1  0.12138000  0.13682000  0.39604000  1.0
  C  C229  1  0.16415000  0.16561000  0.41300000  1.0
  C  C230  1  0.08115000  0.16988000  0.38263000  1.0
  C  C231  1  0.09774000  0.20294000  0.34505000  1.0
  C  C232  1  0.15276000  0.14332000  0.31462000  1.0
  C  C233  1  0.92161000  0.21644000  0.58828000  1.0
  C  C234  1  0.89216000  0.19654000  0.62792000  1.0
  C  C235  1  0.88352000  0.12253000  0.58035000  1.0
  C  C236  1  0.93790000  0.13015000  0.58220000  1.0
  C  C237  1  0.94881000  0.17838000  0.56261000  1.0
  C  C238  1  0.95256000  0.13172000  0.63338000  1.0
  C  C239  1  0.92652000  0.17085000  0.65989000  1.0
  C  C240  1  0.85733000  0.16022000  0.60735000  1.0
  C  C241  1  0.07108000  0.41556000  0.88413000  1.0
  C  C242  1  0.10685000  0.44207000  0.91516000  1.0
  C  C243  1  0.14919000  0.36622000  0.92741000  1.0
  C  C244  1  0.14716000  0.37025000  0.87462000  1.0
  C  C245  1  0.09441000  0.37390000  0.86064000  1.0
  C  C246  1  0.17259000  0.41556000  0.86176000  1.0
  C  C247  1  0.14927000  0.45721000  0.88529000  1.0
  C  C248  1  0.12561000  0.40808000  0.95106000  1.0
  C  C249  1  0.15142000  0.66367000  0.93311000  1.0
  C  C250  1  0.11019000  0.63913000  0.90675000  1.0
  C  C251  1  0.11680000  0.70042000  0.84644000  1.0
  C  C252  1  0.16753000  0.68132000  0.84955000  1.0
  C  C253  1  0.18520000  0.68877000  0.89931000  1.0
  C  C254  1  0.16553000  0.62896000  0.83973000  1.0
  C  C255  1  0.13187000  0.60461000  0.87270000  1.0
  C  C256  1  0.08343000  0.67588000  0.87959000  1.0
  C  C257  1  0.12535000  0.68731000  0.16198000  1.0
  C  C258  1  0.17486000  0.68477000  0.13969000  1.0
  C  C259  1  0.16668000  0.59753000  0.13869000  1.0
  C  C260  1  0.12183000  0.61357000  0.11373000  1.0
  C  C261  1  0.09431000  0.64563000  0.14680000  1.0
  C  C262  1  0.13730000  0.64228000  0.07202000  1.0
  C  C263  1  0.16804000  0.68382000  0.08720000  1.0
  C  C264  1  0.19759000  0.63897000  0.15388000  1.0
  C  C265  1  0.89282000  0.39905000  0.80589000  1.0
  C  C266  1  0.85785000  0.37133000  0.83556000  1.0
  C  C267  1  0.91141000  0.38740000  0.90453000  1.0
  C  C268  1  0.90180000  0.43559000  0.88574000  1.0
  C  C269  1  0.91856000  0.43639000  0.83513000  1.0
  C  C270  1  0.84772000  0.44304000  0.88585000  1.0
  C  C271  1  0.82209000  0.40558000  0.85672000  1.0
  C  C272  1  0.88613000  0.35006000  0.87520000  1.0
  C  C273  1  0.90011000  0.37440000  0.19484000  1.0
  C  C274  1  0.86901000  0.34259000  0.16393000  1.0
  C  C275  1  0.85058000  0.41141000  0.11491000  1.0
  C  C276  1  0.90519000  0.41047000  0.11632000  1.0
  C  C277  1  0.92132000  0.41405000  0.16697000  1.0
  C  C278  1  0.92158000  0.36369000  0.09691000  1.0
  C  C279  1  0.90048000  0.32396000  0.12485000  1.0
  C  C280  1  0.82949000  0.37169000  0.14272000  1.0
  C  C281  1  0.88156000  0.59227000  0.13690000  1.0
  C  C282  1  0.89352000  0.61070000  0.08895000  1.0
  C  C283  1  0.81358000  0.65088000  0.08985000  1.0
  C  C284  1  0.83799000  0.66823000  0.13461000  1.0
  C  C285  1  0.84963000  0.62568000  0.16350000  1.0
  C  C286  1  0.88508000  0.69192000  0.12132000  1.0
  C  C287  1  0.91734000  0.65862000  0.09503000  1.0
  C  C288  1  0.84616000  0.61724000  0.06305000  1.0
  C  C289  1  0.38622000  0.82231000  0.56512000  1.0
  C  C290  1  0.40575000  0.82354000  0.61469000  1.0
  C  C291  1  0.48134000  0.86042000  0.58431000  1.0
  C  C292  1  0.44162000  0.89165000  0.56652000  1.0
  C  C293  1  0.40717000  0.86183000  0.53719000  1.0
  C  C294  1  0.41398000  0.91025000  0.60838000  1.0
  C  C295  1  0.39309000  0.87040000  0.63654000  1.0
  C  C296  1  0.46035000  0.82053000  0.61239000  1.0
  C  C297  1  0.72344000  0.11299000  0.64088000  1.0
  C  C298  1  0.68969000  0.14789000  0.66393000  1.0
  C  C299  1  0.63736000  0.14054000  0.59278000  1.0
  C  C300  1  0.64279000  0.09036000  0.60784000  1.0
  C  C301  1  0.69619000  0.07937000  0.60877000  1.0
  C  C302  1  0.62420000  0.08685000  0.65768000  1.0
  C  C303  1  0.65191000  0.12013000  0.69048000  1.0
  C  C304  1  0.66397000  0.17381000  0.62554000  1.0
  C  C305  1  0.60472000  0.89704000  0.34102000  1.0
  C  C306  1  0.62197000  0.88133000  0.38857000  1.0
  C  C307  1  0.61608000  0.79891000  0.35908000  1.0
  C  C308  1  0.64793000  0.82289000  0.32351000  1.0
  C  C309  1  0.61984000  0.86288000  0.30293000  1.0
  C  C310  1  0.69164000  0.84357000  0.34899000  1.0
  C  C311  1  0.67649000  0.87760000  0.38701000  1.0
  C  C312  1  0.60100000  0.83279000  0.39689000  1.0
  C  C313  1  0.56938000  0.16965000  0.44081000  1.0
  C  C314  1  0.59594000  0.12574000  0.42610000  1.0
  C  C315  1  0.60699000  0.16077000  0.34737000  1.0
  C  C316  1  0.62757000  0.19773000  0.38068000  1.0
  C  C317  1  0.58788000  0.21165000  0.41425000  1.0
  C  C318  1  0.66782000  0.17559000  0.40843000  1.0
  C  C319  1  0.64935000  0.13391000  0.43507000  1.0
  C  C320  1  0.58858000  0.11871000  0.37393000  1.0
  C  C321  1  0.35675000  0.91778000  0.36536000  1.0
  C  C322  1  0.40384000  0.89632000  0.38045000  1.0
  C  C323  1  0.36305000  0.81778000  0.37785000  1.0
  C  C324  1  0.35297000  0.83725000  0.33002000  1.0
  C  C325  1  0.32701000  0.88344000  0.33640000  1.0
  C  C326  1  0.40115000  0.84763000  0.30692000  1.0
  C  C327  1  0.43105000  0.88197000  0.33653000  1.0
  C  C328  1  0.39218000  0.85223000  0.40729000  1.0
  C  C329  1  0.32488000  0.12346000  0.62140000  1.0
  C  C330  1  0.35750000  0.15934000  0.64529000  1.0
  C  C331  1  0.42520000  0.10283000  0.63774000  1.0
  C  C332  1  0.40645000  0.10716000  0.58810000  1.0
  C  C333  1  0.35328000  0.09305000  0.58804000  1.0
  C  C334  1  0.41043000  0.15799000  0.57468000  1.0
  C  C335  1  0.38205000  0.18833000  0.60782000  1.0
  C  C336  1  0.39653000  0.13334000  0.67124000  1.0
  C  C337  1  0.39839000  0.30031000  0.14026000  1.0
  C  C338  1  0.34986000  0.31769000  0.15650000  1.0
  C  C339  1  0.38356000  0.39907000  0.15824000  1.0
  C  C340  1  0.39419000  0.38126000  0.10956000  1.0
  C  C341  1  0.42446000  0.33747000  0.11304000  1.0
  C  C342  1  0.34658000  0.36769000  0.08618000  1.0
  C  C343  1  0.32043000  0.33032000  0.11388000  1.0
  C  C344  1  0.35782000  0.36195000  0.18580000  1.0
  C  C345  1  0.42539000  0.58303000  0.79763000  1.0
  C  C346  1  0.38370000  0.60952000  0.81946000  1.0
  C  C347  1  0.35656000  0.53540000  0.85616000  1.0
  C  C348  1  0.40890000  0.54089000  0.87158000  1.0
  C  C349  1  0.43997000  0.54271000  0.82806000  1.0
  C  C350  1  0.41455000  0.58707000  0.89762000  1.0
  C  C351  1  0.39993000  0.62716000  0.86720000  1.0
  C  C352  1  0.34194000  0.57541000  0.82566000  1.0
  C  C353  1  0.68593000  0.33478000  0.91871000  1.0
  C  C354  1  0.66186000  0.31910000  0.87323000  1.0
  C  C355  1  0.58341000  0.34608000  0.90748000  1.0
  C  C356  1  0.61610000  0.38903000  0.91269000  1.0
  C  C357  1  0.65959000  0.37510000  0.94139000  1.0
  C  C358  1  0.63399000  0.40161000  0.86437000  1.0
  C  C359  1  0.66058000  0.36115000  0.84155000  1.0
  C  C360  1  0.61002000  0.30549000  0.88445000  1.0
  C  C361  1  0.56288000  0.60854000  0.85757000  1.0
  C  C362  1  0.59678000  0.60337000  0.89880000  1.0
  C  C363  1  0.66327000  0.63662000  0.85087000  1.0
  C  C364  1  0.62390000  0.67268000  0.84820000  1.0
  C  C365  1  0.57876000  0.64922000  0.82789000  1.0
  C  C366  1  0.61226000  0.68936000  0.89727000  1.0
  C  C367  1  0.59626000  0.64880000  0.92685000  1.0
  C  C368  1  0.64740000  0.59605000  0.88035000  1.0
  C  C369  1  0.61381000  0.36570000  0.10320000  1.0
  C  C370  1  0.61991000  0.41519000  0.12240000  1.0
  C  C371  1  0.62620000  0.38172000  0.20223000  1.0
  C  C372  1  0.66421000  0.35599000  0.17416000  1.0
  C  C373  1  0.63934000  0.33121000  0.13357000  1.0
  C  C374  1  0.69917000  0.39221000  0.15475000  1.0
  C  C375  1  0.67326000  0.42702000  0.12525000  1.0
  C  C376  1  0.59985000  0.41630000  0.17173000  1.0
  C  C377  1  0.40324000  0.57754000  0.13611000  1.0
  C  C378  1  0.41905000  0.58888000  0.08675000  1.0
  C  C379  1  0.35506000  0.65022000  0.08630000  1.0
  C  C380  1  0.38422000  0.66282000  0.12973000  1.0
  C  C381  1  0.38308000  0.62038000  0.16105000  1.0
  C  C382  1  0.43626000  0.67096000  0.11491000  1.0
  C  C383  1  0.45645000  0.62806000  0.09001000  1.0
  C  C384  1  0.37520000  0.60771000  0.06143000  1.0
  C  C385  1  0.15200000  0.67419000  0.61855000  1.0
  C  C386  1  0.19923000  0.64841000  0.62228000  1.0
  C  C387  1  0.15231000  0.57312000  0.62642000  1.0
  C  C388  1  0.13305000  0.59617000  0.58341000  1.0
  C  C389  1  0.11331000  0.64362000  0.59704000  1.0
  C  C390  1  0.17524000  0.60412000  0.55015000  1.0
  C  C391  1  0.21464000  0.63463000  0.57334000  1.0
  C  C392  1  0.19041000  0.60346000  0.64924000  1.0
  C  C393  1  0.85278000  0.43912000  0.35253000  1.0
  C  C394  1  0.85304000  0.39149000  0.37499000  1.0
  C  C395  1  0.94015000  0.40474000  0.39430000  1.0
  C  C396  1  0.91523000  0.44707000  0.41510000  1.0
  C  C397  1  0.88883000  0.47166000  0.37626000  1.0
  C  C398  1  0.87801000  0.43000000  0.44992000  1.0
  C  C399  1  0.84146000  0.39784000  0.42643000  1.0
  C  C400  1  0.90361000  0.37203000  0.37111000  1.0
  C  C401  1  0.10856000  0.41008000  0.30507000  1.0
  C  C402  1  0.15693000  0.39164000  0.32083000  1.0
  C  C403  1  0.17117000  0.46668000  0.36432000  1.0
  C  C404  1  0.12281000  0.44915000  0.38223000  1.0
  C  C405  1  0.08861000  0.44357000  0.34097000  1.0
  C  C406  1  0.12991000  0.40136000  0.40323000  1.0
  C  C407  1  0.14991000  0.36779000  0.36732000  1.0
  C  C408  1  0.19121000  0.43300000  0.32828000  1.0
  C  C409  1  0.93557000  0.65320000  0.35051000  1.0
  C  C410  1  0.91053000  0.63927000  0.39535000  1.0
  C  C411  1  0.86394000  0.71306000  0.39134000  1.0
  C  C412  1  0.85462000  0.68934000  0.34440000  1.0
  C  C413  1  0.90285000  0.68204000  0.32063000  1.0
  C  C414  1  0.83184000  0.64172000  0.35305000  1.0
  C  C415  1  0.86461000  0.61246000  0.38254000  1.0
  C  C416  1  0.89657000  0.68357000  0.42140000  1.0
  C  C417  1  0.16349000  0.35803000  0.63764000  1.0
  C  C418  1  0.12380000  0.32693000  0.65713000  1.0
  C  C419  1  0.07219000  0.39764000  0.66301000  1.0
  C  C420  1  0.08813000  0.39701000  0.61221000  1.0
  C  C421  1  0.14281000  0.39862000  0.61136000  1.0
  C  C422  1  0.07133000  0.35082000  0.59065000  1.0
  C  C423  1  0.09211000  0.31002000  0.61682000  1.0
  C  C424  1  0.09296000  0.35673000  0.68920000  1.0
  C  C425  1  0.79368000  0.62605000  0.62124000  1.0
  C  C426  1  0.82130000  0.66181000  0.65105000  1.0
  C  C427  1  0.88359000  0.60148000  0.66480000  1.0
  C  C428  1  0.88034000  0.60359000  0.61193000  1.0
  C  C429  1  0.82841000  0.59201000  0.59808000  1.0
  C  C430  1  0.89150000  0.65317000  0.59733000  1.0
  C  C431  1  0.85702000  0.68692000  0.61969000  1.0
  C  C432  1  0.84935000  0.63548000  0.68750000  1.0
  C  C433  1  0.39270000  0.41590000  0.67603000  1.0
  C  C434  1  0.37561000  0.41489000  0.62563000  1.0
  C  C435  1  0.35687000  0.32972000  0.63407000  1.0
  C  C436  1  0.32928000  0.35233000  0.67372000  1.0
  C  C437  1  0.36537000  0.37931000  0.70426000  1.0
  C  C438  1  0.29483000  0.38741000  0.65307000  1.0
  C  C439  1  0.32178000  0.42395000  0.62560000  1.0
  C  C440  1  0.38371000  0.36598000  0.60611000  1.0
  C  C441  1  0.57907000  0.61429000  0.31407000  1.0
  C  C442  1  0.63325000  0.62129000  0.32089000  1.0
  C  C443  1  0.62120000  0.60461000  0.40532000  1.0
  C  C444  1  0.59804000  0.56236000  0.38105000  1.0
  C  C445  1  0.55855000  0.58000000  0.34916000  1.0
  C  C446  1  0.63602000  0.53950000  0.35065000  1.0
  C  C447  1  0.65661000  0.57378000  0.31575000  1.0
  C  C448  1  0.64158000  0.63876000  0.37043000  1.0
  C  C449  1  0.37458000  0.56490000  0.35176000  1.0
  C  C450  1  0.37951000  0.58842000  0.39937000  1.0
  C  C451  1  0.38059000  0.66519000  0.36183000  1.0
  C  C452  1  0.33462000  0.64135000  0.34405000  1.0
  C  C453  1  0.34801000  0.59637000  0.31882000  1.0
  C  C454  1  0.30263000  0.62915000  0.38490000  1.0
  C  C455  1  0.32910000  0.59828000  0.41766000  1.0
  C  C456  1  0.40699000  0.63395000  0.39432000  1.0
  C  C457  1  0.68123000  0.36361000  0.62328000  1.0
  C  C458  1  0.64885000  0.34052000  0.65915000  1.0
  C  C459  1  0.60730000  0.41621000  0.67055000  1.0
  C  C460  1  0.60407000  0.40599000  0.61880000  1.0
  C  C461  1  0.65472000  0.40238000  0.59934000  1.0
  C  C462  1  0.57821000  0.35916000  0.61105000  1.0
  C  C463  1  0.60462000  0.32075000  0.63479000  1.0
  C  C464  1  0.63338000  0.37761000  0.69442000  1.0
  C  C465  1  0.40948000  0.32268000  0.36737000  1.0
  C  C466  1  0.35515000  0.32911000  0.36378000  1.0
  C  C467  1  0.35834000  0.37045000  0.44112000  1.0
  C  C468  1  0.39514000  0.39705000  0.41227000  1.0
  C  C469  1  0.43289000  0.36241000  0.39585000  1.0
  C  C470  1  0.36978000  0.41532000  0.36935000  1.0
  C  C471  1  0.34660000  0.37595000  0.34131000  1.0
  C  C472  1  0.33515000  0.33103000  0.41301000  1.0
  C  C473  1  0.55697000  0.65253000  0.56528000  1.0
  C  C474  1  0.56770000  0.61000000  0.59442000  1.0
  C  C475  1  0.64525000  0.64902000  0.61869000  1.0
  C  C476  1  0.60767000  0.68536000  0.63038000  1.0
  C  C477  1  0.58004000  0.69623000  0.58618000  1.0
  C  C478  1  0.57212000  0.66344000  0.66444000  1.0
  C  C479  1  0.54858000  0.61934000  0.64329000  1.0
  C  C480  1  0.62213000  0.60537000  0.59802000  1.0
  O  O1  1  0.53041000  0.47157000  0.50473000  1.0
  O  O2  1  0.53922000  0.50749000  0.41026000  1.0
  O  O3  1  0.60959000  0.51503000  0.44802000  1.0
  O  O4  1  0.46054000  0.44602000  0.44045000  1.0
  O  O5  1  0.39334000  0.56198000  0.47488000  1.0
  O  O6  1  0.56267000  0.55795000  0.52930000  1.0
  O  O7  1  0.53079000  0.44103000  0.60278000  1.0
  O  O8  1  0.45607000  0.51839000  0.51945000  1.0
  O  O9  1  0.44503000  0.54085000  0.41824000  1.0
  O  O10  1  0.43761000  0.47223000  0.60859000  1.0
  O  O11  1  0.38940000  0.44759000  0.55123000  1.0
  O  O12  1  0.38483000  0.46858000  0.45344000  1.0
  O  O13  1  0.52115000  0.53734000  0.59284000  1.0
  O  O14  1  0.59716000  0.47920000  0.58186000  1.0
  O  O15  1  0.03264000  0.55245000  0.47519000  1.0
  O  O16  1  0.10579000  0.47475000  0.45994000  1.0
  O  O17  1  0.09024000  0.52265000  0.40200000  1.0
  O  O18  1  0.10372000  0.52879000  0.54211000  1.0
  O  O19  1  0.06461000  0.47688000  0.60797000  1.0
  O  O20  1  0.99275000  0.48338000  0.42214000  1.0
  O  O21  1  0.94389000  0.61190000  0.46676000  1.0
  O  O22  1  0.99301000  0.50383000  0.53796000  1.0
  O  O23  1  0.07069000  0.43611000  0.54116000  1.0
  O  O24  1  0.91129000  0.56204000  0.54644000  1.0
  O  O25  1  0.95823000  0.57064000  0.60956000  1.0
  O  O26  1  0.05088000  0.57280000  0.57934000  1.0
  O  O27  1  0.93107000  0.51377000  0.46257000  1.0
  O  O28  1  0.95728000  0.57160000  0.40153000  1.0
  O  O29  1  0.53897000  0.50880000  0.01154000  1.0
  O  O30  1  0.55609000  0.46609000  0.10126000  1.0
  O  O31  1  0.61006000  0.44687000  0.04729000  1.0
  O  O32  1  0.46835000  0.51916000  0.08298000  1.0
  O  O33  1  0.39763000  0.45212000  0.06724000  1.0
  O  O34  1  0.61795000  0.46542000  0.94809000  1.0
  O  O35  1  0.55613000  0.53060000  0.91211000  1.0
  O  O36  1  0.46984000  0.45382000  0.99359000  1.0
  O  O37  1  0.46648000  0.42077000  0.09017000  1.0
  O  O38  1  0.46424000  0.48418000  0.89935000  1.0
  O  O39  1  0.39136000  0.48826000  0.93310000  1.0
  O  O40  1  0.42428000  0.53691000  0.01984000  1.0
  O  O41  1  0.54557000  0.43330000  0.93483000  1.0
  O  O42  1  0.60670000  0.56026000  0.96787000  1.0
  O  O43  1  0.56111000  0.98149000  0.50762000  1.0
  O  O44  1  0.56453000  0.90740000  0.44383000  1.0
  O  O45  1  0.62871000  0.95395000  0.43113000  1.0
  O  O46  1  0.48511000  0.91657000  0.50005000  1.0
  O  O47  1  0.41228000  0.94171000  0.45048000  1.0
  O  O48  1  0.59513000  0.04407000  0.43977000  1.0
  O  O49  1  0.57062000  0.05239000  0.58056000  1.0
  O  O50  1  0.48784000  0.01865000  0.47033000  1.0
  O  O51  1  0.47640000  0.93670000  0.40393000  1.0
  O  O52  1  0.48059000  0.08347000  0.55491000  1.0
  O  O53  1  0.41283000  0.06539000  0.51660000  1.0
  O  O54  1  0.44432000  0.97041000  0.54063000  1.0
  O  O55  1  0.55845000  0.08952000  0.49170000  1.0
  O  O56  1  0.63495000  0.05355000  0.53267000  1.0
  O  O57  1  0.01492000  0.50035000  0.04722000  1.0
  O  O58  1  0.10290000  0.55114000  0.06057000  1.0
  O  O59  1  0.06104000  0.55496000  0.12686000  1.0
  O  O60  1  0.08427000  0.49105000  0.98047000  1.0
  O  O61  1  0.03259000  0.60679000  0.92189000  1.0
  O  O62  1  0.97142000  0.57815000  0.08069000  1.0
  O  O63  1  0.92331000  0.44644000  0.04417000  1.0
  O  O64  1  0.99178000  0.54729000  0.97756000  1.0
  O  O65  1  0.09311000  0.59015000  0.97145000  1.0
  O  O66  1  0.91070000  0.48462000  0.95417000  1.0
  O  O67  1  0.97298000  0.47932000  0.90550000  1.0
  O  O68  1  0.06908000  0.51626000  0.90912000  1.0
  O  O69  1  0.91211000  0.54439000  0.03893000  1.0
  O  O70  1  0.93353000  0.48891000  0.10907000  1.0
  O  O71  1  0.97600000  0.01364000  0.46388000  1.0
  O  O72  1  0.96321000  0.92476000  0.51399000  1.0
  O  O73  1  0.89605000  0.96540000  0.50905000  1.0
  O  O74  1  0.03912000  0.93364000  0.44658000  1.0
  O  O75  1  0.12154000  0.94614000  0.49981000  1.0
  O  O76  1  0.94473000  0.05122000  0.55127000  1.0
  O  O77  1  0.97502000  0.11001000  0.42583000  1.0
  O  O78  1  0.05739000  0.02788000  0.50357000  1.0
  O  O79  1  0.05727000  0.93429000  0.54466000  1.0
  O  O80  1  0.07052000  0.11569000  0.45871000  1.0
  O  O81  1  0.13620000  0.07376000  0.44677000  1.0
  O  O82  1  0.08667000  0.98956000  0.41747000  1.0
  O  O83  1  0.99650000  0.10537000  0.52470000  1.0
  O  O84  1  0.91399000  0.09676000  0.47304000  1.0
  O  O85  1  0.47058000  0.97278000  0.98359000  1.0
  O  O86  1  0.44831000  0.00307000  0.07808000  1.0
  O  O87  1  0.38014000  0.99633000  0.03738000  1.0
  O  O88  1  0.53740000  0.96190000  0.05847000  1.0
  O  O89  1  0.60295000  0.02713000  0.05973000  1.0
  O  O90  1  0.41994000  0.05212000  0.96423000  1.0
  O  O91  1  0.47927000  0.94868000  0.88338000  1.0
  O  O92  1  0.53944000  0.03319000  0.97762000  1.0
  O  O93  1  0.53228000  0.05835000  0.07729000  1.0
  O  O94  1  0.56087000  0.00294000  0.88269000  1.0
  O  O95  1  0.62873000  0.00489000  0.92422000  1.0
  O  O96  1  0.58632000  0.94915000  0.99791000  1.0
  O  O97  1  0.47006000  0.04601000  0.90342000  1.0
  O  O98  1  0.40563000  0.97244000  0.90180000  1.0
  O  O99  1  0.04850000  0.97759000  0.97337000  1.0
  O  O100  1  0.07339000  0.00651000  0.87649000  1.0
  O  O101  1  0.13628000  0.00855000  0.92436000  1.0
  O  O102  1  0.98920000  0.94353000  0.89814000  1.0
  O  O103  1  0.90943000  0.01079000  0.88742000  1.0
  O  O104  1  0.07840000  0.06856000  0.99052000  1.0
  O  O105  1  0.03790000  0.95917000  0.07301000  1.0
  O  O106  1  0.97052000  0.02500000  0.97012000  1.0
  O  O107  1  0.98251000  0.03206000  0.86552000  1.0
  O  O108  1  0.94588000  0.99360000  0.06693000  1.0
  O  O109  1  0.88118000  0.99648000  0.02196000  1.0
  O  O110  1  0.93369000  0.94036000  0.95424000  1.0
  O  O111  1  0.02592000  0.05607000  0.04820000  1.0
  O  O112  1  0.09927000  0.00544000  0.05758000  1.0
  O  O113  1  0.77629000  0.28333000  0.71453000  1.0
  O  O114  1  0.87681000  0.25282000  0.69053000  1.0
  O  O115  1  0.82994000  0.25386000  0.62806000  1.0
  O  O116  1  0.85346000  0.31264000  0.77409000  1.0
  O  O117  1  0.86213000  0.24505000  0.84724000  1.0
  O  O118  1  0.75808000  0.19737000  0.67756000  1.0
  O  O119  1  0.67260000  0.30044000  0.72605000  1.0
  O  O120  1  0.77751000  0.23143000  0.78718000  1.0
  O  O121  1  0.88512000  0.22277000  0.77689000  1.0
  O  O122  1  0.67656000  0.26287000  0.81090000  1.0
  O  O123  1  0.72241000  0.25928000  0.87391000  1.0
  O  O124  1  0.79316000  0.31662000  0.82588000  1.0
  O  O125  1  0.69662000  0.20492000  0.72708000  1.0
  O  O126  1  0.69134000  0.26979000  0.65764000  1.0
  O  O127  1  0.76178000  0.77603000  0.23778000  1.0
  O  O128  1  0.77742000  0.71262000  0.31812000  1.0
  O  O129  1  0.84107000  0.75504000  0.29711000  1.0
  O  O130  1  0.68827000  0.75331000  0.30275000  1.0
  O  O131  1  0.62833000  0.69051000  0.27518000  1.0
  O  O132  1  0.82109000  0.70919000  0.20539000  1.0
  O  O133  1  0.76675000  0.83001000  0.14940000  1.0
  O  O134  1  0.70119000  0.71759000  0.20238000  1.0
  O  O135  1  0.70070000  0.65801000  0.28412000  1.0
  O  O136  1  0.68779000  0.77322000  0.12139000  1.0
  O  O137  1  0.61594000  0.75629000  0.15279000  1.0
  O  O138  1  0.64298000  0.78590000  0.24797000  1.0
  O  O139  1  0.78007000  0.73027000  0.14160000  1.0
  O  O140  1  0.83758000  0.79941000  0.16632000  1.0
  O  O141  1  0.22127000  0.28013000  0.21198000  1.0
  O  O142  1  0.20693000  0.21137000  0.13861000  1.0
  O  O143  1  0.13883000  0.24916000  0.15461000  1.0
  O  O144  1  0.30125000  0.24866000  0.16511000  1.0
  O  O145  1  0.34765000  0.18271000  0.20193000  1.0
  O  O146  1  0.14826000  0.22609000  0.25525000  1.0
  O  O147  1  0.22110000  0.35163000  0.28463000  1.0
  O  O148  1  0.26910000  0.22307000  0.26201000  1.0
  O  O149  1  0.27442000  0.15437000  0.18423000  1.0
  O  O150  1  0.28314000  0.29355000  0.33467000  1.0
  O  O151  1  0.35116000  0.25470000  0.32314000  1.0
  O  O152  1  0.34022000  0.27852000  0.22764000  1.0
  O  O153  1  0.19152000  0.26239000  0.31063000  1.0
  O  O154  1  0.14584000  0.32461000  0.27288000  1.0
  O  O155  1  0.29442000  0.78591000  0.20023000  1.0
  O  O156  1  0.36539000  0.71020000  0.19778000  1.0
  O  O157  1  0.35377000  0.74124000  0.12789000  1.0
  O  O158  1  0.34165000  0.76808000  0.28160000  1.0
  O  O159  1  0.29815000  0.71283000  0.33413000  1.0
  O  O160  1  0.25164000  0.72248000  0.13983000  1.0
  O  O161  1  0.22557000  0.85591000  0.18819000  1.0
  O  O162  1  0.23864000  0.73750000  0.25397000  1.0
  O  O163  1  0.31505000  0.67091000  0.27109000  1.0
  O  O164  1  0.16927000  0.81947000  0.25737000  1.0
  O  O165  1  0.17321000  0.77688000  0.32137000  1.0
  O  O166  1  0.27611000  0.80452000  0.30977000  1.0
  O  O167  1  0.19071000  0.76114000  0.17380000  1.0
  O  O168  1  0.23377000  0.81793000  0.12044000  1.0
  O  O169  1  0.23163000  0.22741000  0.73175000  1.0
  O  O170  1  0.13980000  0.28050000  0.72483000  1.0
  O  O171  1  0.16878000  0.25640000  0.65676000  1.0
  O  O172  1  0.16572000  0.22747000  0.80774000  1.0
  O  O173  1  0.18644000  0.29522000  0.87142000  1.0
  O  O174  1  0.25848000  0.30625000  0.68711000  1.0
  O  O175  1  0.32858000  0.18536000  0.72029000  1.0
  O  O176  1  0.26108000  0.28261000  0.79699000  1.0
  O  O177  1  0.16653000  0.32853000  0.80458000  1.0
  O  O178  1  0.35228000  0.23077000  0.80401000  1.0
  O  O179  1  0.32285000  0.25038000  0.87344000  1.0
  O  O180  1  0.23167000  0.20613000  0.84750000  1.0
  O  O181  1  0.32654000  0.28563000  0.72340000  1.0
  O  O182  1  0.30828000  0.22583000  0.65797000  1.0
  O  O183  1  0.74077000  0.73987000  0.76825000  1.0
  O  O184  1  0.83769000  0.78655000  0.77700000  1.0
  O  O185  1  0.80358000  0.77132000  0.84511000  1.0
  O  O186  1  0.81247000  0.72826000  0.70030000  1.0
  O  O187  1  0.80122000  0.78277000  0.63006000  1.0
  O  O188  1  0.72147000  0.82301000  0.80741000  1.0
  O  O189  1  0.63964000  0.70610000  0.77465000  1.0
  O  O190  1  0.72118000  0.78998000  0.69765000  1.0
  O  O191  1  0.82081000  0.82661000  0.69175000  1.0
  O  O192  1  0.62471000  0.74458000  0.68925000  1.0
  O  O193  1  0.66112000  0.75075000  0.62065000  1.0
  O  O194  1  0.74796000  0.70445000  0.65840000  1.0
  O  O195  1  0.65269000  0.80581000  0.76916000  1.0
  O  O196  1  0.66157000  0.74719000  0.83744000  1.0
  O  O197  1  0.32348000  0.71121000  0.70925000  1.0
  O  O198  1  0.34524000  0.76559000  0.62819000  1.0
  O  O199  1  0.39907000  0.77963000  0.68468000  1.0
  O  O200  1  0.25848000  0.71048000  0.63124000  1.0
  O  O201  1  0.18559000  0.76756000  0.65343000  1.0
  O  O202  1  0.39414000  0.75180000  0.78101000  1.0
  O  O203  1  0.33320000  0.67487000  0.80701000  1.0
  O  O204  1  0.25231000  0.76006000  0.73084000  1.0
  O  O205  1  0.25363000  0.80789000  0.64043000  1.0
  O  O206  1  0.24100000  0.71503000  0.82079000  1.0
  O  O207  1  0.18234000  0.69486000  0.77088000  1.0
  O  O208  1  0.22449000  0.68152000  0.69275000  1.0
  O  O209  1  0.31951000  0.77287000  0.79683000  1.0
  O  O210  1  0.38983000  0.65747000  0.75193000  1.0
  O  O211  1  0.72684000  0.30247000  0.30227000  1.0
  O  O212  1  0.64031000  0.24390000  0.31238000  1.0
  O  O213  1  0.66756000  0.27208000  0.38025000  1.0
  O  O214  1  0.66625000  0.29150000  0.22633000  1.0
  O  O215  1  0.69006000  0.22722000  0.16933000  1.0
  O  O216  1  0.76378000  0.23340000  0.35786000  1.0
  O  O217  1  0.81573000  0.35867000  0.30743000  1.0
  O  O218  1  0.76304000  0.24383000  0.24428000  1.0
  O  O219  1  0.66951000  0.19203000  0.23463000  1.0
  O  O220  1  0.85010000  0.30371000  0.23466000  1.0
  O  O221  1  0.82698000  0.26970000  0.16822000  1.0
  O  O222  1  0.73493000  0.31393000  0.19147000  1.0
  O  O223  1  0.82671000  0.26215000  0.31864000  1.0
  O  O224  1  0.80170000  0.32456000  0.37543000  1.0
