# generated using pymatgen
data_H43(C35N)2
_symmetry_space_group_name_H-M   'P 1'
_cell_length_a   39.53680000
_cell_length_b   46.43081144
_cell_length_c   46.42835668
_cell_angle_alpha   79.55896028
_cell_angle_beta   64.79977198
_cell_angle_gamma   64.80119741
_symmetry_Int_Tables_number   1
_chemical_formula_structural   H43(C35N)2
_chemical_formula_sum   'H344 C560 N16'
_cell_volume   69779.15585632
_cell_formula_units_Z   8
loop_
 _symmetry_equiv_pos_site_id
 _symmetry_equiv_pos_as_xyz
  1  'x, y, z'
loop_
 _atom_site_type_symbol
 _atom_site_label
 _atom_site_symmetry_multiplicity
 _atom_site_fract_x
 _atom_site_fract_y
 _atom_site_fract_z
 _atom_site_occupancy
  C  1  1  0.27216900  0.75596450  0.88557850  1
  C  2  1  0.31516200  0.74231150  0.86949550  1
  C  3  1  0.34204350  0.72866550  0.88560250  1
  C  4  1  0.32400900  0.73027750  0.91934150  1
  C  5  1  0.28153650  0.74233950  0.93669150  1
  C  6  1  0.25643700  0.75438000  0.91932200  1
  C  7  1  0.38568800  0.71339700  0.86890000  1
  C  8  1  0.40694600  0.72229700  0.83775900  1
  C  9  1  0.44937850  0.70662050  0.82167250  1
  C  10  1  0.47351550  0.68164800  0.83600000  1
  C  11  1  0.45218000  0.67325200  0.86737400  1
  C  12  1  0.40973200  0.68802000  0.88292800  1
  C  13  1  0.24524900  0.77120750  0.86885250  1
  C  14  1  0.25520350  0.76232350  0.83768550  1
  C  15  1  0.22887900  0.77796800  0.82157800  1
  C  16  1  0.19037550  0.80290400  0.83589700  1
  C  17  1  0.18026550  0.81128750  0.86729450  1
  C  18  1  0.20713500  0.79654800  0.88287200  1
  C  19  1  0.26447850  0.74235600  0.97078300  1
  C  20  1  0.23282600  0.73149000  0.98822200  1
  C  21  1  0.21610750  0.73146700  0.02173500  1
  C  22  1  0.23023100  0.74238100  0.03925100  1
  C  23  1  0.26187600  0.75328450  0.02173150  1
  C  24  1  0.27869700  0.75322450  0.98821750  1
  C  40  1  0.91237000  0.72847200  0.63266800  1
  C  41  1  0.92562350  0.74212950  0.64875050  1
  C  42  1  0.95496350  0.75577850  0.63264250  1
  C  43  1  0.97228250  0.75416400  0.59890300  1
  C  44  1  0.95922750  0.74209450  0.58155450  1
  C  45  1  0.92880200  0.73005200  0.59892500  1
  C  46  1  0.96663800  0.77104550  0.64934450  1
  C  47  1  0.96566700  0.76214000  0.68048100  1
  C  48  1  0.97634500  0.77781200  0.69656300  1
  C  49  1  0.98981800  0.80279500  0.68224300  1
  C  50  1  0.99144600  0.81120000  0.65087100  1
  C  51  1  0.97931900  0.79642850  0.63531950  1
  C  52  1  0.88397200  0.71322650  0.64939450  1
  C  53  1  0.85386500  0.72211750  0.68055650  1
  C  54  1  0.82707750  0.70647350  0.69666250  1
  C  55  1  0.82784200  0.68152750  0.68234850  1
  C  56  1  0.85752300  0.67313550  0.65095450  1
  C  57  1  0.88523150  0.68787650  0.63537850  1
  C  58  1  0.97628200  0.74207150  0.54746150  1
  C  59  1  0.95120750  0.75291350  0.53002150  1
  C  60  1  0.96798300  0.75294950  0.49650650  1
  C  61  1  0.01053550  0.74203250  0.47899450  1
  C  62  1  0.03556000  0.73115100  0.49651700  1
  C  63  1  0.01880350  0.73120200  0.53003000  1
  C  79  1  0.03592750  0.86869500  0.74536100  1
  C  80  1  0.06526550  0.85261050  0.75901450  1
  C  81  1  0.07848750  0.86871700  0.77267400  1
  C  82  1  0.06205500  0.90245550  0.77107650  1
  C  83  1  0.03165500  0.91980450  0.75900450  1
  C  84  1  0.01861050  0.90243550  0.74694850  1
  C  85  1  0.10686300  0.85201200  0.78793800  1
  C  86  1  0.13704900  0.82088650  0.77900550  1
  C  87  1  0.16381500  0.80480150  0.79466950  1
  C  88  1  0.16294500  0.81910300  0.81967800  1
  C  89  1  0.13317800  0.85045700  0.82811500  1
  C  90  1  0.10549450  0.86601600  0.81334900  1
  C  91  1  0.02425700  0.85196600  0.73011500  1
  C  92  1  0.02528300  0.82081750  0.73902550  1
  C  93  1  0.01460250  0.80470800  0.72338300  1
  C  94  1  0.00105900  0.81901350  0.69843350  1
  C  95  1  0.99937450  0.85039650  0.69002250  1
  C  96  1  0.01150550  0.86597700  0.70476200  1
  C  97  1  0.01460900  0.95389500  0.75899300  1
  C  98  1  0.97209250  0.97133100  0.76982200  1
  C  99  1  0.95534600  0.00484400  0.76984600  1
  C  100  1  0.98037550  0.02236050  0.75897850  1
  C  101  1  0.02292350  0.00484300  0.74811400  1
  C  102  1  0.03968950  0.97133200  0.74814800  1
  C  118  1  0.64864300  0.61574050  0.77287950  1
  C  119  1  0.67555000  0.63182500  0.75922100  1
  C  120  1  0.71853800  0.61571750  0.74556850  1
  C  121  1  0.73424500  0.58197900  0.74717200  1
  C  122  1  0.70912150  0.56462950  0.75924650  1
  C  123  1  0.66665200  0.58200050  0.77129950  1
  C  124  1  0.74547400  0.63242350  0.73030350  1
  C  125  1  0.73559600  0.66355200  0.73922700  1
  C  126  1  0.76194150  0.67963850  0.72356450  1
  C  127  1  0.80038850  0.66533100  0.69856500  1
  C  128  1  0.81042100  0.63396900  0.69013900  1
  C  129  1  0.78352750  0.61841350  0.70490250  1
  C  130  1  0.60499950  0.63246950  0.78812250  1
  C  131  1  0.58378450  0.66361350  0.77919950  1
  C  132  1  0.54135350  0.67972700  0.79484700  1
  C  133  1  0.51716800  0.66542700  0.81980900  1
  C  134  1  0.53845700  0.63405250  0.82823150  1
  C  135  1  0.58090550  0.61847000  0.81348900  1
  C  136  1  0.72615350  0.53053850  0.75926450  1
  C  137  1  0.71189400  0.51309900  0.74844900  1
  C  138  1  0.72868400  0.47958650  0.74842850  1
  C  139  1  0.76035550  0.46207250  0.75930550  1
  C  140  1  0.77453000  0.47959250  0.77015750  1
  C  141  1  0.75784100  0.51310400  0.77009500  1
  C  157  1  0.71835050  0.22910600  0.13286700  1
  C  158  1  0.67536300  0.24225400  0.14897700  1
  C  159  1  0.64847050  0.25542400  0.13288200  1
  C  160  1  0.66653600  0.25371300  0.09914900  1
  C  161  1  0.70901800  0.24230050  0.08163250  1
  C  162  1  0.73399900  0.23086400  0.09913600  1
  C  163  1  0.60478750  0.27044000  0.14958200  1
  C  164  1  0.58367400  0.26175800  0.18088000  1
  C  165  1  0.54126850  0.27748450  0.19707250  1
  C  166  1  0.51705100  0.30234100  0.18273200  1
  C  167  1  0.53819300  0.31050000  0.15119200  1
  C  168  1  0.58062050  0.29560650  0.13547550  1
  C  169  1  0.74535050  0.21407000  0.14954800  1
  C  170  1  0.73517600  0.22271150  0.18086050  1
  C  171  1  0.76140200  0.20695850  0.19703450  1
  C  172  1  0.79996750  0.18211650  0.18266350  1
  C  173  1  0.81035300  0.17399450  0.15111250  1
  C  174  1  0.78362900  0.18891550  0.13541050  1
  C  175  1  0.72612400  0.24232500  0.04739900  1
  C  176  1  0.76161500  0.21666300  0.02980500  1
  C  177  1  0.77850300  0.21674500  0.99628400  1
  C  178  1  0.76038600  0.24237900  0.97886500  1
  C  179  1  0.72481500  0.26797300  0.99631700  1
  C  180  1  0.70820350  0.26801000  0.02983800  1
  C  196  1  0.07897800  0.25528700  0.38543100  1
  C  197  1  0.06524600  0.24213900  0.36932400  1
  C  198  1  0.03542600  0.22897150  0.38542150  1
  C  199  1  0.01805050  0.23068300  0.41915500  1
  C  200  1  0.03160700  0.24209600  0.43666800  1
  C  201  1  0.06265650  0.25353050  0.41916150  1
  C  202  1  0.02345400  0.21395700  0.36872600  1
  C  203  1  0.02495700  0.22263500  0.33742600  1
  C  204  1  0.01447600  0.20690500  0.32123500  1
  C  205  1  0.00077200  0.18204800  0.33557800  1
  C  206  1  0.99854200  0.17388700  0.36711700  1
  C  207  1  0.01035600  0.18878500  0.38283200  1
  C  208  1  0.10761950  0.27032550  0.36874750  1
  C  209  1  0.13740250  0.26168000  0.33743700  1
  C  210  1  0.16404950  0.27743400  0.32126200  1
  C  211  1  0.16339750  0.30228000  0.33563300  1
  C  212  1  0.13410600  0.31040500  0.36718200  1
  C  213  1  0.10659450  0.29549000  0.38287900  1
  C  214  1  0.01450650  0.24207750  0.47090150  1
  C  215  1  0.00674650  0.26774250  0.48848750  1
  C  216  1  0.99020550  0.26766500  0.52200900  1
  C  217  1  0.98028450  0.24204250  0.53943450  1
  C  218  1  0.98776400  0.21644050  0.52199050  1
  C  219  1  0.00470550  0.21639650  0.48846850  1
  C  235  1  0.95526050  0.11590150  0.27223850  1
  C  236  1  0.92542300  0.13200500  0.25909100  1
  C  237  1  0.91169800  0.11590700  0.24592500  1
  C  238  1  0.92806650  0.08217400  0.24762900  1
  C  239  1  0.95913150  0.06466500  0.25904400  1
  C  240  1  0.97266900  0.08217300  0.27048300  1
  C  241  1  0.88302850  0.13260050  0.23091350  1
  C  242  1  0.85323300  0.16390100  0.23959700  1
  C  243  1  0.82656050  0.18009200  0.22386800  1
  C  244  1  0.82719900  0.16575150  0.19900850  1
  C  245  1  0.85650350  0.13421250  0.19084450  1
  C  246  1  0.88403050  0.11849600  0.20574200  1
  C  247  1  0.96722700  0.13258600  0.28727100  1
  C  248  1  0.96569550  0.16389400  0.27862600  1
  C  249  1  0.97617450  0.18006900  0.29437500  1
  C  250  1  0.98990150  0.16570300  0.31921600  1
  C  251  1  0.99216450  0.13415400  0.32734000  1
  C  252  1  0.98034400  0.11845650  0.31242950  1
  C  253  1  0.97626950  0.03043400  0.25902300  1
  C  254  1  0.98611850  0.01285200  0.28468000  1
  C  255  1  0.00308850  0.97933250  0.28460650  1
  C  256  1  0.01058250  0.96190400  0.25898700  1
  C  257  1  0.00061750  0.97934300  0.23338500  1
  C  258  1  0.98403100  0.01286400  0.23334400  1
  C  274  1  0.34205700  0.36849100  0.24607900  1
  C  275  1  0.31517350  0.35238800  0.25922000  1
  C  276  1  0.27218550  0.36848550  0.27237850  1
  C  277  1  0.25652300  0.40221750  0.27067050  1
  C  278  1  0.28149450  0.41972700  0.25925900  1
  C  279  1  0.32397750  0.40222050  0.24783850  1
  C  280  1  0.24519650  0.35179200  0.28738600  1
  C  281  1  0.25538650  0.32049100  0.27870700  1
  C  282  1  0.22917800  0.30429950  0.29443450  1
  C  283  1  0.19061050  0.31864350  0.31928750  1
  C  284  1  0.18020800  0.35018300  0.32744900  1
  C  285  1  0.20691750  0.36590000  0.31255400  1
  C  286  1  0.38573850  0.35180900  0.23104800  1
  C  287  1  0.40687050  0.32049800  0.23968900  1
  C  288  1  0.44927350  0.30432350  0.22394450  1
  C  289  1  0.47347200  0.31868800  0.19909700  1
  C  290  1  0.45231200  0.35023750  0.19097650  1
  C  291  1  0.40988550  0.36593650  0.20588750  1
  C  292  1  0.26438000  0.45395950  0.25926850  1
  C  293  1  0.28231100  0.47153450  0.23360750  1
  C  294  1  0.26570300  0.50505350  0.23367650  1
  C  295  1  0.23013600  0.52248850  0.25928550  1
  C  296  1  0.21199100  0.50505550  0.28488550  1
  C  297  1  0.22887750  0.47153750  0.28493550  1
  C  625  1  0.94684650  0.16010350  0.70028050  1
  C  626  1  0.94680500  0.18331900  0.67703100  1
  C  627  1  0.92035450  0.21285100  0.69178900  1
  C  629  1  0.92035000  0.17486800  0.72981600  1
  C  630  1  0.91177900  0.15867650  0.75954850  1
  C  631  1  0.88745100  0.17407550  0.78963050  1
  C  633  1  0.84970100  0.21180950  0.82734850  1
  C  634  1  0.85349850  0.18232800  0.84236300  1
  C  635  1  0.87671050  0.15909650  0.81913550  1
  C  636  1  0.82854000  0.24188700  0.84272800  1
  C  637  1  0.82369300  0.27158250  0.82650350  1
  C  639  1  0.82373950  0.30956000  0.78847900  1
  C  640  1  0.80603950  0.32431800  0.81800500  1
  C  641  1  0.80596400  0.30110450  0.84125450  1
  C  642  1  0.82861950  0.32575850  0.75875550  1
  C  643  1  0.84975400  0.31036250  0.72867550  1
  C  645  1  0.88750050  0.27263100  0.69095300  1
  C  646  1  0.87683500  0.30211450  0.67593850  1
  C  647  1  0.85354900  0.32534250  0.69916950  1
  C  648  1  0.91180300  0.24255450  0.67557150  1
  C  649  1  0.92906750  0.24225750  0.64155750  1
  C  650  1  0.91208550  0.23427750  0.62441550  1
  C  651  1  0.92907300  0.23403950  0.59089650  1
  C  652  1  0.96326800  0.24203700  0.57348400  1
  C  653  1  0.98002100  0.25008400  0.59088600  1
  C  654  1  0.96332900  0.25006350  0.62440450  1
  C  655  1  0.81158550  0.35977500  0.75904000  1
  C  656  1  0.76925450  0.37692050  0.76846550  1
  C  657  1  0.75251850  0.41042850  0.76863650  1
  C  658  1  0.77743550  0.42794050  0.75928950  1
  C  659  1  0.81987750  0.41045800  0.74987400  1
  C  660  1  0.83671450  0.37694850  0.74981350  1
  C  661  1  0.81149700  0.24218850  0.87674150  1
  C  662  1  0.83641750  0.23436750  0.89389350  1
  C  663  1  0.81961400  0.23434100  0.92741200  1
  C  664  1  0.77741150  0.24239450  0.94481450  1
  C  665  1  0.75262800  0.25040300  0.92740300  1
  C  666  1  0.76939250  0.25018100  0.89388300  1
  C  667  1  0.92903750  0.12466000  0.75926900  1
  C  668  1  0.96213050  0.10748250  0.76847350  1
  C  669  1  0.91325100  0.10751850  0.74986950  1
  C  670  1  0.93019200  0.07400900  0.74969400  1
  C  671  1  0.96330100  0.05649450  0.75900850  1
  C  672  1  0.97887250  0.07397450  0.76839850  1
  C  773  1  0.11470900  0.68331300  0.34123300  1
  C  774  1  0.13787850  0.66006600  0.31801200  1
  C  775  1  0.14099750  0.67482900  0.28847700  1
  C  777  1  0.10301450  0.71285150  0.32647350  1
  C  778  1  0.07826800  0.74258100  0.34267100  1
  C  779  1  0.06935050  0.77266500  0.32728500  1
  C  781  1  0.06935100  0.81039350  0.28955850  1
  C  782  1  0.04373300  0.82540500  0.31905300  1
  C  783  1  0.04370500  0.80217400  0.34227900  1
  C  784  1  0.07823500  0.82577700  0.25948300  1
  C  785  1  0.10296250  0.80956650  0.22976950  1
  C  787  1  0.14100000  0.77154350  0.19177250  1
  C  788  1  0.13789250  0.80108500  0.17701100  1
  C  789  1  0.11459450  0.82433050  0.20023150  1
  C  790  1  0.16221550  0.74181100  0.17557400  1
  C  791  1  0.16800700  0.71172650  0.19096150  1
  C  793  1  0.16799450  0.67399800  0.22868700  1
  C  794  1  0.18688700  0.65898750  0.19919250  1
  C  795  1  0.18684550  0.68221900  0.17596800  1
  C  796  1  0.16217800  0.65861600  0.25876500  1
  C  797  1  0.17914400  0.62460450  0.25905650  1
  C  798  1  0.15418600  0.60746700  0.26700400  1
  C  799  1  0.17093650  0.57394950  0.26723550  1
  C  800  1  0.21311800  0.55653500  0.25928000  1
  C  801  1  0.23791650  0.57393350  0.25126450  1
  C  802  1  0.22120750  0.60744950  0.25128350  1
  C  803  1  0.17919050  0.74209450  0.14155550  1
  C  804  1  0.15400700  0.75144750  0.12441750  1
  C  805  1  0.17077000  0.75162000  0.09090700  1
  C  806  1  0.21318850  0.74235350  0.07338650  1
  C  807  1  0.23814700  0.73300100  0.09086400  1
  C  808  1  0.22148250  0.73294250  0.12437350  1
  C  809  1  0.06148300  0.85978950  0.25919450  1
  C  810  1  0.07861250  0.87694100  0.26697900  1
  C  811  1  0.06178550  0.91045650  0.26700450  1
  C  812  1  0.02760850  0.92785650  0.25898450  1
  C  813  1  0.01080000  0.91044750  0.25101850  1
  C  814  1  0.02733600  0.87693050  0.25124550  1
  C  815  1  0.06151650  0.74229700  0.37669000  1
  C  816  1  0.07746850  0.75146000  0.39386800  1
  C  817  1  0.02855150  0.73294100  0.39383300  1
  C  818  1  0.01198500  0.73276400  0.42734300  1
  C  819  1  0.02760450  0.74204950  0.44486050  1
  C  820  1  0.06068250  0.75140750  0.42737850  1
  C  921  1  0.99394700  0.75596450  0.88557850  1
  C  922  1  0.03694000  0.74231150  0.86949550  1
  C  923  1  0.06382150  0.72866550  0.88560250  1
  C  924  1  0.04578700  0.73027750  0.91934150  1
  C  925  1  0.00331450  0.74233950  0.93669150  1
  C  926  1  0.97821500  0.75438000  0.91932200  1
  C  927  1  0.10746600  0.71339700  0.86890000  1
  C  928  1  0.12872410  0.72229700  0.83775900  1
  C  929  1  0.17115660  0.70662050  0.82167250  1
  C  930  1  0.19529360  0.68164800  0.83600000  1
  C  931  1  0.17395810  0.67325200  0.86737400  1
  C  932  1  0.13151010  0.68802000  0.88292800  1
  C  933  1  0.96702700  0.77120750  0.86885250  1
  C  934  1  0.97698150  0.76232350  0.83768550  1
  C  935  1  0.95065700  0.77796800  0.82157800  1
  C  936  1  0.91215350  0.80290400  0.83589700  1
  C  937  1  0.90204350  0.81128750  0.86729450  1
  C  938  1  0.92891300  0.79654800  0.88287200  1
  C  939  1  0.98625650  0.74235600  0.97078300  1
  C  940  1  0.95460400  0.73149000  0.98822200  1
  C  941  1  0.93788550  0.73146700  0.02173500  1
  C  942  1  0.95200900  0.74238100  0.03925100  1
  C  943  1  0.98365400  0.75328450  0.02173150  1
  C  944  1  0.00047500  0.75322450  0.98821750  1
  C  960  1  0.63414800  0.72847200  0.63266800  1
  C  961  1  0.64740150  0.74212950  0.64875050  1
  C  962  1  0.67674150  0.75577850  0.63264250  1
  C  963  1  0.69406050  0.75416400  0.59890300  1
  C  964  1  0.68100550  0.74209450  0.58155450  1
  C  965  1  0.65058000  0.73005200  0.59892500  1
  C  966  1  0.68841600  0.77104550  0.64934450  1
  C  967  1  0.68744510  0.76214000  0.68048100  1
  C  968  1  0.69812310  0.77781200  0.69656300  1
  C  969  1  0.71159610  0.80279500  0.68224300  1
  C  970  1  0.71322410  0.81120000  0.65087100  1
  C  971  1  0.70109710  0.79642850  0.63531950  1
  C  972  1  0.60575000  0.71322650  0.64939450  1
  C  973  1  0.57564300  0.72211750  0.68055650  1
  C  974  1  0.54885550  0.70647350  0.69666250  1
  C  975  1  0.54962000  0.68152750  0.68234850  1
  C  976  1  0.57930100  0.67313550  0.65095450  1
  C  977  1  0.60700950  0.68787650  0.63537850  1
  C  978  1  0.69806000  0.74207150  0.54746150  1
  C  979  1  0.67298550  0.75291350  0.53002150  1
  C  980  1  0.68976100  0.75294950  0.49650650  1
  C  981  1  0.73231350  0.74203250  0.47899450  1
  C  982  1  0.75733800  0.73115100  0.49651700  1
  C  983  1  0.74058150  0.73120200  0.53003000  1
  C  999  1  0.75770550  0.86869500  0.74536100  1
  C  1000  1  0.78704350  0.85261050  0.75901450  1
  C  1001  1  0.80026550  0.86871700  0.77267400  1
  C  1002  1  0.78383300  0.90245550  0.77107650  1
  C  1003  1  0.75343300  0.91980450  0.75900450  1
  C  1004  1  0.74038850  0.90243550  0.74694850  1
  C  1005  1  0.82864100  0.85201200  0.78793800  1
  C  1006  1  0.85882700  0.82088650  0.77900550  1
  C  1007  1  0.88559300  0.80480150  0.79466950  1
  C  1008  1  0.88472300  0.81910300  0.81967800  1
  C  1009  1  0.85495600  0.85045700  0.82811500  1
  C  1010  1  0.82727250  0.86601600  0.81334900  1
  C  1011  1  0.74603500  0.85196600  0.73011500  1
  C  1012  1  0.74706100  0.82081750  0.73902550  1
  C  1013  1  0.73638050  0.80470800  0.72338300  1
  C  1014  1  0.72283710  0.81901350  0.69843350  1
  C  1015  1  0.72115259  0.85039650  0.69002250  1
  C  1016  1  0.73328350  0.86597700  0.70476200  1
  C  1017  1  0.73638700  0.95389500  0.75899300  1
  C  1018  1  0.69387050  0.97133100  0.76982200  1
  C  1019  1  0.67712400  0.00484400  0.76984600  1
  C  1020  1  0.70215350  0.02236050  0.75897850  1
  C  1021  1  0.74470150  0.00484300  0.74811400  1
  C  1022  1  0.76146750  0.97133200  0.74814800  1
  C  1038  1  0.37042100  0.61574050  0.77287950  1
  C  1039  1  0.39732800  0.63182500  0.75922100  1
  C  1040  1  0.44031600  0.61571750  0.74556850  1
  C  1041  1  0.45602300  0.58197900  0.74717200  1
  C  1042  1  0.43089950  0.56462950  0.75924650  1
  C  1043  1  0.38843000  0.58200050  0.77129950  1
  C  1044  1  0.46725200  0.63242350  0.73030350  1
  C  1045  1  0.45737400  0.66355200  0.73922700  1
  C  1046  1  0.48371950  0.67963850  0.72356450  1
  C  1047  1  0.52216650  0.66533100  0.69856500  1
  C  1048  1  0.53219900  0.63396900  0.69013900  1
  C  1049  1  0.50530550  0.61841350  0.70490250  1
  C  1050  1  0.32677750  0.63246950  0.78812250  1
  C  1051  1  0.30556250  0.66361350  0.77919950  1
  C  1052  1  0.26313150  0.67972700  0.79484700  1
  C  1053  1  0.23894610  0.66542700  0.81980900  1
  C  1054  1  0.26023509  0.63405250  0.82823150  1
  C  1055  1  0.30268350  0.61847000  0.81348900  1
  C  1056  1  0.44793150  0.53053850  0.75926450  1
  C  1057  1  0.43367200  0.51309900  0.74844900  1
  C  1058  1  0.45046200  0.47958650  0.74842850  1
  C  1059  1  0.48213350  0.46207250  0.75930550  1
  C  1060  1  0.49630800  0.47959250  0.77015750  1
  C  1061  1  0.47961900  0.51310400  0.77009500  1
  C  1077  1  0.44012850  0.22910600  0.13286700  1
  C  1078  1  0.39714100  0.24225400  0.14897700  1
  C  1079  1  0.37024850  0.25542400  0.13288200  1
  C  1080  1  0.38831400  0.25371300  0.09914900  1
  C  1081  1  0.43079600  0.24230050  0.08163250  1
  C  1082  1  0.45577700  0.23086400  0.09913600  1
  C  1083  1  0.32656550  0.27044000  0.14958200  1
  C  1084  1  0.30545200  0.26175800  0.18088000  1
  C  1085  1  0.26304650  0.27748450  0.19707250  1
  C  1086  1  0.23882910  0.30234100  0.18273200  1
  C  1087  1  0.25997110  0.31050000  0.15119200  1
  C  1088  1  0.30239850  0.29560650  0.13547550  1
  C  1089  1  0.46712850  0.21407000  0.14954800  1
  C  1090  1  0.45695400  0.22271150  0.18086050  1
  C  1091  1  0.48318000  0.20695850  0.19703450  1
  C  1092  1  0.52174550  0.18211650  0.18266350  1
  C  1093  1  0.53213100  0.17399450  0.15111250  1
  C  1094  1  0.50540700  0.18891550  0.13541050  1
  C  1095  1  0.44790200  0.24232500  0.04739900  1
  C  1096  1  0.48339300  0.21666300  0.02980500  1
  C  1097  1  0.50028100  0.21674500  0.99628400  1
  C  1098  1  0.48216400  0.24237900  0.97886500  1
  C  1099  1  0.44659300  0.26797300  0.99631700  1
  C  1100  1  0.42998150  0.26801000  0.02983800  1
  C  1116  1  0.80075600  0.25528700  0.38543100  1
  C  1117  1  0.78702400  0.24213900  0.36932400  1
  C  1118  1  0.75720400  0.22897150  0.38542150  1
  C  1119  1  0.73982850  0.23068300  0.41915500  1
  C  1120  1  0.75338500  0.24209600  0.43666800  1
  C  1121  1  0.78443450  0.25353050  0.41916150  1
  C  1122  1  0.74523200  0.21395700  0.36872600  1
  C  1123  1  0.74673500  0.22263500  0.33742600  1
  C  1124  1  0.73625400  0.20690500  0.32123500  1
  C  1125  1  0.72255010  0.18204800  0.33557800  1
  C  1126  1  0.72032009  0.17388700  0.36711700  1
  C  1127  1  0.73213400  0.18878500  0.38283200  1
  C  1128  1  0.82939750  0.27032550  0.36874750  1
  C  1129  1  0.85918050  0.26168000  0.33743700  1
  C  1130  1  0.88582750  0.27743400  0.32126200  1
  C  1131  1  0.88517550  0.30228000  0.33563300  1
  C  1132  1  0.85588400  0.31040500  0.36718200  1
  C  1133  1  0.82837250  0.29549000  0.38287900  1
  C  1134  1  0.73628450  0.24207750  0.47090150  1
  C  1135  1  0.72852450  0.26774250  0.48848750  1
  C  1136  1  0.71198350  0.26766500  0.52200900  1
  C  1137  1  0.70206250  0.24204250  0.53943450  1
  C  1138  1  0.70954200  0.21644050  0.52199050  1
  C  1139  1  0.72648350  0.21639650  0.48846850  1
  C  1155  1  0.67703850  0.11590150  0.27223850  1
  C  1156  1  0.64720100  0.13200500  0.25909100  1
  C  1157  1  0.63347600  0.11590700  0.24592500  1
  C  1158  1  0.64984450  0.08217400  0.24762900  1
  C  1159  1  0.68090950  0.06466500  0.25904400  1
  C  1160  1  0.69444700  0.08217300  0.27048300  1
  C  1161  1  0.60480650  0.13260050  0.23091350  1
  C  1162  1  0.57501100  0.16390100  0.23959700  1
  C  1163  1  0.54833850  0.18009200  0.22386800  1
  C  1164  1  0.54897700  0.16575150  0.19900850  1
  C  1165  1  0.57828150  0.13421250  0.19084450  1
  C  1166  1  0.60580850  0.11849600  0.20574200  1
  C  1167  1  0.68900500  0.13258600  0.28727100  1
  C  1168  1  0.68747360  0.16389400  0.27862600  1
  C  1169  1  0.69795260  0.18006900  0.29437500  1
  C  1170  1  0.71167960  0.16570300  0.31921600  1
  C  1171  1  0.71394260  0.13415400  0.32734000  1
  C  1172  1  0.70212210  0.11845650  0.31242950  1
  C  1173  1  0.69804750  0.03043400  0.25902300  1
  C  1174  1  0.70789650  0.01285200  0.28468000  1
  C  1175  1  0.72486650  0.97933250  0.28460650  1
  C  1176  1  0.73236050  0.96190400  0.25898700  1
  C  1177  1  0.72239550  0.97934300  0.23338500  1
  C  1178  1  0.70580900  0.01286400  0.23334400  1
  C  1194  1  0.06383500  0.36849100  0.24607900  1
  C  1195  1  0.03695150  0.35238800  0.25922000  1
  C  1196  1  0.99396350  0.36848550  0.27237850  1
  C  1197  1  0.97830100  0.40221750  0.27067050  1
  C  1198  1  0.00327250  0.41972700  0.25925900  1
  C  1199  1  0.04575550  0.40222050  0.24783850  1
  C  1200  1  0.96697450  0.35179200  0.28738600  1
  C  1201  1  0.97716450  0.32049100  0.27870700  1
  C  1202  1  0.95095600  0.30429950  0.29443450  1
  C  1203  1  0.91238850  0.31864350  0.31928750  1
  C  1204  1  0.90198600  0.35018300  0.32744900  1
  C  1205  1  0.92869550  0.36590000  0.31255400  1
  C  1206  1  0.10751650  0.35180900  0.23104800  1
  C  1207  1  0.12864860  0.32049800  0.23968900  1
  C  1208  1  0.17105160  0.30432350  0.22394450  1
  C  1209  1  0.19525010  0.31868800  0.19909700  1
  C  1210  1  0.17409010  0.35023750  0.19097650  1
  C  1211  1  0.13166360  0.36593650  0.20588750  1
  C  1212  1  0.98615800  0.45395950  0.25926850  1
  C  1213  1  0.00408900  0.47153450  0.23360750  1
  C  1214  1  0.98748100  0.50505350  0.23367650  1
  C  1215  1  0.95191400  0.52248850  0.25928550  1
  C  1216  1  0.93376900  0.50505550  0.28488550  1
  C  1217  1  0.95065550  0.47153750  0.28493550  1
  C  1545  1  0.66862450  0.16010350  0.70028050  1
  C  1546  1  0.66858300  0.18331900  0.67703100  1
  C  1547  1  0.64213250  0.21285100  0.69178900  1
  C  1549  1  0.64212800  0.17486800  0.72981600  1
  C  1550  1  0.63355700  0.15867650  0.75954850  1
  C  1551  1  0.60922900  0.17407550  0.78963050  1
  C  1553  1  0.57147900  0.21180950  0.82734850  1
  C  1554  1  0.57527650  0.18232800  0.84236300  1
  C  1555  1  0.59848850  0.15909650  0.81913550  1
  C  1556  1  0.55031800  0.24188700  0.84272800  1
  C  1557  1  0.54547100  0.27158250  0.82650350  1
  C  1559  1  0.54551750  0.30956000  0.78847900  1
  C  1560  1  0.52781750  0.32431800  0.81800500  1
  C  1561  1  0.52774200  0.30110450  0.84125450  1
  C  1562  1  0.55039750  0.32575850  0.75875550  1
  C  1563  1  0.57153200  0.31036250  0.72867550  1
  C  1565  1  0.60927850  0.27263100  0.69095300  1
  C  1566  1  0.59861300  0.30211450  0.67593850  1
  C  1567  1  0.57532700  0.32534250  0.69916950  1
  C  1568  1  0.63358100  0.24255450  0.67557150  1
  C  1569  1  0.65084550  0.24225750  0.64155750  1
  C  1570  1  0.63386350  0.23427750  0.62441550  1
  C  1571  1  0.65085100  0.23403950  0.59089650  1
  C  1572  1  0.68504600  0.24203700  0.57348400  1
  C  1573  1  0.70179900  0.25008400  0.59088600  1
  C  1574  1  0.68510700  0.25006350  0.62440450  1
  C  1575  1  0.53336350  0.35977500  0.75904000  1
  C  1576  1  0.49103250  0.37692050  0.76846550  1
  C  1577  1  0.47429650  0.41042850  0.76863650  1
  C  1578  1  0.49921350  0.42794050  0.75928950  1
  C  1579  1  0.54165550  0.41045800  0.74987400  1
  C  1580  1  0.55849250  0.37694850  0.74981350  1
  C  1581  1  0.53327500  0.24218850  0.87674150  1
  C  1582  1  0.55819550  0.23436750  0.89389350  1
  C  1583  1  0.54139200  0.23434100  0.92741200  1
  C  1584  1  0.49918950  0.24239450  0.94481450  1
  C  1585  1  0.47440600  0.25040300  0.92740300  1
  C  1586  1  0.49117050  0.25018100  0.89388300  1
  C  1587  1  0.65081550  0.12466000  0.75926900  1
  C  1588  1  0.68390850  0.10748250  0.76847350  1
  C  1589  1  0.63502900  0.10751850  0.74986950  1
  C  1590  1  0.65197000  0.07400900  0.74969400  1
  C  1591  1  0.68507900  0.05649450  0.75900850  1
  C  1592  1  0.70065050  0.07397450  0.76839850  1
  C  1693  1  0.83648700  0.68331300  0.34123300  1
  C  1694  1  0.85965650  0.66006600  0.31801200  1
  C  1695  1  0.86277550  0.67482900  0.28847700  1
  C  1697  1  0.82479250  0.71285150  0.32647350  1
  C  1698  1  0.80004600  0.74258100  0.34267100  1
  C  1699  1  0.79112850  0.77266500  0.32728500  1
  C  1701  1  0.79112900  0.81039350  0.28955850  1
  C  1702  1  0.76551100  0.82540500  0.31905300  1
  C  1703  1  0.76548300  0.80217400  0.34227900  1
  C  1704  1  0.80001300  0.82577700  0.25948300  1
  C  1705  1  0.82474050  0.80956650  0.22976950  1
  C  1707  1  0.86277800  0.77154350  0.19177250  1
  C  1708  1  0.85967050  0.80108500  0.17701100  1
  C  1709  1  0.83637250  0.82433050  0.20023150  1
  C  1710  1  0.88399350  0.74181100  0.17557400  1
  C  1711  1  0.88978500  0.71172650  0.19096150  1
  C  1713  1  0.88977250  0.67399800  0.22868700  1
  C  1714  1  0.90866500  0.65898750  0.19919250  1
  C  1715  1  0.90862350  0.68221900  0.17596800  1
  C  1716  1  0.88395600  0.65861600  0.25876500  1
  C  1717  1  0.90092200  0.62460450  0.25905650  1
  C  1718  1  0.87596400  0.60746700  0.26700400  1
  C  1719  1  0.89271450  0.57394950  0.26723550  1
  C  1720  1  0.93489600  0.55653500  0.25928000  1
  C  1721  1  0.95969450  0.57393350  0.25126450  1
  C  1722  1  0.94298550  0.60744950  0.25128350  1
  C  1723  1  0.90096850  0.74209450  0.14155550  1
  C  1724  1  0.87578500  0.75144750  0.12441750  1
  C  1725  1  0.89254800  0.75162000  0.09090700  1
  C  1726  1  0.93496650  0.74235350  0.07338650  1
  C  1727  1  0.95992500  0.73300100  0.09086400  1
  C  1728  1  0.94326050  0.73294250  0.12437350  1
  C  1729  1  0.78326100  0.85978950  0.25919450  1
  C  1730  1  0.80039050  0.87694100  0.26697900  1
  C  1731  1  0.78356350  0.91045650  0.26700450  1
  C  1732  1  0.74938650  0.92785650  0.25898450  1
  C  1733  1  0.73257800  0.91044750  0.25101850  1
  C  1734  1  0.74911400  0.87693050  0.25124550  1
  C  1735  1  0.78329450  0.74229700  0.37669000  1
  C  1736  1  0.79924650  0.75146000  0.39386800  1
  C  1737  1  0.75032950  0.73294100  0.39383300  1
  C  1738  1  0.73376300  0.73276400  0.42734300  1
  C  1739  1  0.74938250  0.74204950  0.44486050  1
  C  1740  1  0.78246050  0.75140750  0.42737850  1
  H  25  1  0.23882700  0.77091800  0.79878700  1
  H  26  1  0.28185300  0.74394800  0.82617600  1
  H  27  1  0.15272650  0.82831700  0.87978300  1
  H  28  1  0.19819300  0.80513450  0.90483650  1
  H  29  1  0.22213200  0.72281850  0.97663250  1
  H  30  1  0.19393250  0.72268300  0.03324500  1
  H  31  1  0.30096600  0.76190900  0.97662400  1
  H  32  1  0.27254650  0.76206600  0.03323800  1
  H  33  1  0.39666400  0.67942700  0.90487600  1
  H  34  1  0.46719500  0.65619300  0.87986700  1
  H  35  1  0.46226250  0.71368850  0.79889850  1
  H  36  1  0.39183500  0.74069300  0.82625000  1
  H  37  1  0.32730750  0.74230150  0.84523550  1
  H  38  1  0.22571000  0.76268600  0.93190800  1
  H  39  1  0.34213800  0.72197400  0.93193900  1
  H  64  1  0.80717500  0.71352950  0.71945150  1
  H  65  1  0.85062200  0.74049950  0.69206150  1
  H  66  1  0.85951200  0.65610000  0.63846900  1
  H  67  1  0.90684900  0.67928450  0.61341750  1
  H  68  1  0.92025200  0.76160650  0.54160750  1
  H  69  1  0.94853650  0.76172000  0.48499500  1
  H  70  1  0.03816000  0.72253600  0.54162700  1
  H  71  1  0.06652050  0.72235550  0.48501350  1
  H  72  1  0.97959700  0.80502650  0.61337550  1
  H  73  1  0.00188300  0.82826450  0.63838250  1
  H  74  1  0.97351900  0.77074700  0.71933700  1
  H  75  1  0.95744600  0.74374150  0.69198950  1
  H  76  1  0.91349700  0.74214050  0.67301250  1
  H  77  1  0.91897000  0.72174050  0.58633850  1
  H  78  1  0.99470150  0.76247050  0.58630550  1
  H  103  1  0.01745200  0.78193250  0.73046150  1
  H  104  1  0.03352850  0.80932300  0.75741700  1
  H  105  1  0.98889000  0.86287350  0.67297850  1
  H  106  1  0.01119100  0.88792600  0.69615400  1
  H  107  1  0.95272750  0.95974150  0.77848550  1
  H  108  1  0.92438650  0.01635050  0.77862150  1
  H  109  1  0.07064350  0.95974100  0.73951200  1
  H  110  1  0.04237500  0.01635050  0.73935950  1
  H  111  1  0.08382300  0.88795550  0.82195550  1
  H  112  1  0.13111300  0.86293600  0.84519600  1
  H  113  1  0.18378500  0.78203600  0.78757900  1
  H  114  1  0.14035900  0.80939800  0.76058100  1
  H  115  1  0.07740500  0.82835150  0.75901750  1
  H  116  1  0.99620200  0.91501900  0.73862800  1
  H  117  1  0.07186850  0.91504850  0.77939850  1
  H  142  1  0.52850400  0.70250150  0.78776350  1
  H  143  1  0.59892900  0.67510650  0.76080750  1
  H  144  1  0.52340550  0.62157700  0.84528000  1
  H  145  1  0.59393400  0.59652400  0.82210200  1
  H  146  1  0.68958200  0.52468500  0.73980800  1
  H  147  1  0.71797200  0.46807700  0.73969300  1
  H  148  1  0.76856450  0.52469750  0.77873250  1
  H  149  1  0.79674400  0.46808800  0.77890000  1
  H  150  1  0.79240900  0.59646950  0.69629950  1
  H  151  1  0.83791950  0.62148850  0.67306350  1
  H  152  1  0.75205050  0.70240650  0.73064750  1
  H  153  1  0.70898800  0.67504500  0.75764700  1
  H  154  1  0.66343350  0.65608400  0.75921300  1
  H  155  1  0.64850650  0.56941800  0.77962500  1
  H  156  1  0.76497400  0.56938550  0.73885150  1
  H  181  1  0.75133000  0.21379850  0.21992950  1
  H  182  1  0.70838100  0.24092650  0.19245950  1
  H  183  1  0.83796850  0.15700650  0.13865250  1
  H  184  1  0.79272100  0.18055100  0.11330400  1
  H  185  1  0.77526250  0.19717950  0.04126450  1
  H  186  1  0.80380850  0.19743350  0.98466750  1
  H  187  1  0.68308900  0.28747650  0.04132550  1
  H  188  1  0.71113550  0.28731350  0.98472550  1
  H  189  1  0.59361450  0.30399550  0.11337950  1
  H  190  1  0.52301850  0.32749900  0.13875300  1
  H  191  1  0.52846250  0.27061400  0.21995600  1
  H  192  1  0.59888650  0.24352350  0.19245450  1
  H  193  1  0.66324100  0.24223700  0.17323300  1
  H  194  1  0.76463500  0.22405600  0.08674000  1
  H  195  1  0.64828600  0.26053750  0.08675950  1
  H  220  1  0.18371600  0.27059100  0.29836800  1
  H  221  1  0.14042550  0.24346300  0.32584000  1
  H  222  1  0.13227450  0.32739300  0.37964100  1
  H  223  1  0.08522450  0.30384600  0.40499100  1
  H  224  1  0.01236850  0.28722500  0.47702300  1
  H  225  1  0.98456200  0.28698950  0.53361850  1
  H  226  1  0.01053450  0.19693000  0.47698700  1
  H  227  1  0.98180600  0.19711100  0.53358800  1
  H  228  1  0.00964300  0.18040000  0.40492800  1
  H  229  1  0.98792100  0.15689250  0.37955850  1
  H  230  1  0.01768400  0.21377200  0.29835100  1
  H  231  1  0.03351900  0.24086300  0.32584600  1
  H  232  1  0.07736250  0.24215500  0.34506600  1
  H  233  1  0.07409000  0.26034050  0.43155450  1
  H  234  1  0.99423650  0.22385950  0.43154650  1
  H  259  1  0.97294300  0.20296300  0.28753400  1
  H  260  1  0.95711650  0.17548950  0.26041050  1
  H  261  1  0.00279750  0.12169800  0.34432400  1
  H  262  1  0.98108900  0.09634650  0.32078650  1
  H  263  1  0.98026100  0.02431650  0.30416850  1
  H  264  1  0.00905600  0.96772500  0.30393100  1
  H  265  1  0.97835450  0.02433950  0.21388450  1
  H  266  1  0.00622800  0.96774250  0.21406650  1
  H  267  1  0.90541100  0.09639950  0.19735550  1
  H  268  1  0.85832200  0.12177350  0.17384750  1
  H  269  1  0.80688900  0.20297650  0.23073550  1
  H  270  1  0.85021800  0.17547850  0.25782550  1
  H  271  1  0.91328350  0.15626050  0.25910750  1
  H  272  1  0.99650550  0.06978250  0.27728050  1
  H  273  1  0.91663650  0.06978300  0.24081100  1
  H  298  1  0.46209150  0.28142600  0.23077500  1
  H  299  1  0.39167050  0.30890050  0.25790350  1
  H  300  1  0.46747250  0.36269400  0.17399000  1
  H  301  1  0.39687600  0.38804650  0.19753250  1
  H  302  1  0.30742200  0.46006500  0.21412900  1
  H  303  1  0.27938900  0.51665750  0.21435150  1
  H  304  1  0.21522150  0.46006400  0.30440100  1
  H  305  1  0.18668350  0.51666400  0.30420100  1
  H  306  1  0.19781150  0.38799800  0.32093800  1
  H  307  1  0.15258750  0.36262500  0.34444200  1
  H  308  1  0.23926050  0.28141350  0.28756850  1
  H  309  1  0.28218350  0.30891100  0.26048100  1
  H  310  1  0.32730550  0.32813200  0.25920400  1
  H  311  1  0.34222100  0.41461300  0.24103100  1
  H  312  1  0.22588550  0.41460850  0.27747850  1
  H  673  1  0.00223350  0.06244300  0.77590800  1
  H  674  1  0.97410350  0.11928350  0.77550550  1
  H  675  1  0.91835750  0.06250500  0.74215600  1
  H  676  1  0.88935000  0.11934350  0.74298850  1
  H  677  1  0.96379550  0.13632650  0.69589250  1
  H  678  1  0.96370850  0.17892800  0.65324600  1
  H  679  1  0.88494850  0.22233450  0.73926350  1
  H  680  1  0.84488100  0.26213800  0.77906500  1
  H  681  1  0.88405950  0.13526500  0.82345400  1
  H  682  1  0.84135400  0.17804050  0.86620650  1
  H  683  1  0.86700900  0.22861000  0.88206800  1
  H  684  1  0.83853150  0.22887900  0.93903300  1
  H  685  1  0.75066400  0.25578300  0.88205500  1
  H  686  1  0.72208750  0.25587700  0.93902200  1
  H  687  1  0.79470000  0.30549500  0.86503900  1
  H  688  1  0.79483850  0.34809400  0.82239000  1
  H  689  1  0.88423800  0.30640050  0.65209450  1
  H  690  1  0.84137050  0.34917400  0.69485300  1
  H  691  1  0.75029500  0.36509550  0.77536350  1
  H  692  1  0.72164000  0.42193750  0.77618450  1
  H  693  1  0.86752100  0.36514500  0.74276600  1
  H  694  1  0.83922200  0.42198550  0.74235750  1
  H  695  1  0.97634650  0.25581200  0.63622800  1
  H  696  1  0.00510500  0.25553700  0.57926300  1
  H  697  1  0.91561100  0.22858250  0.57927850  1
  H  698  1  0.88712000  0.22868700  0.63624500  1
  H  821  1  0.07255550  0.75887050  0.43890950  1
  H  822  1  0.10126900  0.75846150  0.38206550  1
  H  823  1  0.98861650  0.72525950  0.43884950  1
  H  824  1  0.01645400  0.72608650  0.38200450  1
  H  825  1  0.10787300  0.67892050  0.36501150  1
  H  826  1  0.15038650  0.63628250  0.32239950  1
  H  827  1  0.11510700  0.72230400  0.27900300  1
  H  828  1  0.11517250  0.76207600  0.23925000  1
  H  829  1  0.02725900  0.80649150  0.36611650  1
  H  830  1  0.02734550  0.84925000  0.32335400  1
  H  831  1  0.10347150  0.86511750  0.27270250  1
  H  832  1  0.07526200  0.92207950  0.27243750  1
  H  833  1  0.01418650  0.86510300  0.24567100  1
  H  834  1  0.98571250  0.92206700  0.24556900  1
  H  835  1  0.10769950  0.84811550  0.19584450  1
  H  836  1  0.15044250  0.80547900  0.15323300  1
  H  837  1  0.19863900  0.63514100  0.19489400  1
  H  838  1  0.19857600  0.67789950  0.15212950  1
  H  839  1  0.12323000  0.75829350  0.13624750  1
  H  840  1  0.15139750  0.75913250  0.07940450  1
  H  841  1  0.24048500  0.72594100  0.13617200  1
  H  842  1  0.26901150  0.72554400  0.07932900  1
  H  843  1  0.23996900  0.61927150  0.24556050  1
  H  844  1  0.26844750  0.56231000  0.24583900  1
  H  845  1  0.15201500  0.56233350  0.27268450  1
  H  846  1  0.12363650  0.61929600  0.27257200  1
  H  945  1  0.96060500  0.77091800  0.79878700  1
  H  946  1  0.00363100  0.74394800  0.82617600  1
  H  947  1  0.87450450  0.82831700  0.87978300  1
  H  948  1  0.91997100  0.80513450  0.90483650  1
  H  949  1  0.94391000  0.72281850  0.97663250  1
  H  950  1  0.91571050  0.72268300  0.03324500  1
  H  951  1  0.02274400  0.76190900  0.97662400  1
  H  952  1  0.99432450  0.76206600  0.03323800  1
  H  953  1  0.11844210  0.67942700  0.90487600  1
  H  954  1  0.18897310  0.65619300  0.87986700  1
  H  955  1  0.18404060  0.71368850  0.79889850  1
  H  956  1  0.11361300  0.74069300  0.82625000  1
  H  957  1  0.04908550  0.74230150  0.84523550  1
  H  958  1  0.94748800  0.76268600  0.93190800  1
  H  959  1  0.06391600  0.72197400  0.93193900  1
  H  984  1  0.52895300  0.71352950  0.71945150  1
  H  985  1  0.57240000  0.74049950  0.69206150  1
  H  986  1  0.58129000  0.65610000  0.63846900  1
  H  987  1  0.62862700  0.67928450  0.61341750  1
  H  988  1  0.64203000  0.76160650  0.54160750  1
  H  989  1  0.67031450  0.76172000  0.48499500  1
  H  990  1  0.75993800  0.72253600  0.54162700  1
  H  991  1  0.78829850  0.72235550  0.48501350  1
  H  992  1  0.70137510  0.80502650  0.61337550  1
  H  993  1  0.72366110  0.82826450  0.63838250  1
  H  994  1  0.69529710  0.77074700  0.71933700  1
  H  995  1  0.67922400  0.74374150  0.69198950  1
  H  996  1  0.63527500  0.74214050  0.67301250  1
  H  997  1  0.64074800  0.72174050  0.58633850  1
  H  998  1  0.71647950  0.76247050  0.58630550  1
  H  1023  1  0.73923009  0.78193250  0.73046150  1
  H  1024  1  0.75530650  0.80932300  0.75741700  1
  H  1025  1  0.71066810  0.86287350  0.67297850  1
  H  1026  1  0.73296900  0.88792600  0.69615400  1
  H  1027  1  0.67450550  0.95974150  0.77848550  1
  H  1028  1  0.64616450  0.01635050  0.77862150  1
  H  1029  1  0.79242150  0.95974100  0.73951200  1
  H  1030  1  0.76415300  0.01635050  0.73935950  1
  H  1031  1  0.80560100  0.88795550  0.82195550  1
  H  1032  1  0.85289100  0.86293600  0.84519600  1
  H  1033  1  0.90556300  0.78203600  0.78757900  1
  H  1034  1  0.86213700  0.80939800  0.76058100  1
  H  1035  1  0.79918300  0.82835150  0.75901750  1
  H  1036  1  0.71798000  0.91501900  0.73862800  1
  H  1037  1  0.79364650  0.91504850  0.77939850  1
  H  1062  1  0.25028209  0.70250150  0.78776350  1
  H  1063  1  0.32070700  0.67510650  0.76080750  1
  H  1064  1  0.24518360  0.62157700  0.84528000  1
  H  1065  1  0.31571200  0.59652400  0.82210200  1
  H  1066  1  0.41136000  0.52468500  0.73980800  1
  H  1067  1  0.43975000  0.46807700  0.73969300  1
  H  1068  1  0.49034250  0.52469750  0.77873250  1
  H  1069  1  0.51852200  0.46808800  0.77890000  1
  H  1070  1  0.51418700  0.59646950  0.69629950  1
  H  1071  1  0.55969750  0.62148850  0.67306350  1
  H  1072  1  0.47382850  0.70240650  0.73064750  1
  H  1073  1  0.43076600  0.67504500  0.75764700  1
  H  1074  1  0.38521150  0.65608400  0.75921300  1
  H  1075  1  0.37028450  0.56941800  0.77962500  1
  H  1076  1  0.48675200  0.56938550  0.73885150  1
  H  1101  1  0.47310800  0.21379850  0.21992950  1
  H  1102  1  0.43015900  0.24092650  0.19245950  1
  H  1103  1  0.55974650  0.15700650  0.13865250  1
  H  1104  1  0.51449900  0.18055100  0.11330400  1
  H  1105  1  0.49704050  0.19717950  0.04126450  1
  H  1106  1  0.52558650  0.19743350  0.98466750  1
  H  1107  1  0.40486700  0.28747650  0.04132550  1
  H  1108  1  0.43291350  0.28731350  0.98472550  1
  H  1109  1  0.31539250  0.30399550  0.11337950  1
  H  1110  1  0.24479660  0.32749900  0.13875300  1
  H  1111  1  0.25024060  0.27061400  0.21995600  1
  H  1112  1  0.32066450  0.24352350  0.19245450  1
  H  1113  1  0.38501900  0.24223700  0.17323300  1
  H  1114  1  0.48641300  0.22405600  0.08674000  1
  H  1115  1  0.37006400  0.26053750  0.08675950  1
  H  1140  1  0.90549400  0.27059100  0.29836800  1
  H  1141  1  0.86220350  0.24346300  0.32584000  1
  H  1142  1  0.85405250  0.32739300  0.37964100  1
  H  1143  1  0.80700250  0.30384600  0.40499100  1
  H  1144  1  0.73414650  0.28722500  0.47702300  1
  H  1145  1  0.70634000  0.28698950  0.53361850  1
  H  1146  1  0.73231250  0.19693000  0.47698700  1
  H  1147  1  0.70358400  0.19711100  0.53358800  1
  H  1148  1  0.73142100  0.18040000  0.40492800  1
  H  1149  1  0.70969910  0.15689250  0.37955850  1
  H  1150  1  0.73946210  0.21377200  0.29835100  1
  H  1151  1  0.75529700  0.24086300  0.32584600  1
  H  1152  1  0.79914050  0.24215500  0.34506600  1
  H  1153  1  0.79586800  0.26034050  0.43155450  1
  H  1154  1  0.71601450  0.22385950  0.43154650  1
  H  1179  1  0.69472110  0.20296300  0.28753400  1
  H  1180  1  0.67889450  0.17548950  0.26041050  1
  H  1181  1  0.72457560  0.12169800  0.34432400  1
  H  1182  1  0.70286710  0.09634650  0.32078650  1
  H  1183  1  0.70203900  0.02431650  0.30416850  1
  H  1184  1  0.73083400  0.96772500  0.30393100  1
  H  1185  1  0.70013250  0.02433950  0.21388450  1
  H  1186  1  0.72800600  0.96774250  0.21406650  1
  H  1187  1  0.62718900  0.09639950  0.19735550  1
  H  1188  1  0.58010000  0.12177350  0.17384750  1
  H  1189  1  0.52866700  0.20297650  0.23073550  1
  H  1190  1  0.57199600  0.17547850  0.25782550  1
  H  1191  1  0.63506150  0.15626050  0.25910750  1
  H  1192  1  0.71828350  0.06978250  0.27728050  1
  H  1193  1  0.63841450  0.06978300  0.24081100  1
  H  1218  1  0.18386960  0.28142600  0.23077500  1
  H  1219  1  0.11344850  0.30890050  0.25790350  1
  H  1220  1  0.18925060  0.36269400  0.17399000  1
  H  1221  1  0.11865410  0.38804650  0.19753250  1
  H  1222  1  0.02920000  0.46006500  0.21412900  1
  H  1223  1  0.00116700  0.51665750  0.21435150  1
  H  1224  1  0.93699950  0.46006400  0.30440100  1
  H  1225  1  0.90846150  0.51666400  0.30420100  1
  H  1226  1  0.91958950  0.38799800  0.32093800  1
  H  1227  1  0.87436550  0.36262500  0.34444200  1
  H  1228  1  0.96103850  0.28141350  0.28756850  1
  H  1229  1  0.00396150  0.30891100  0.26048100  1
  H  1230  1  0.04908350  0.32813200  0.25920400  1
  H  1231  1  0.06399900  0.41461300  0.24103100  1
  H  1232  1  0.94766350  0.41460850  0.27747850  1
  H  1593  1  0.72401150  0.06244300  0.77590800  1
  H  1594  1  0.69588150  0.11928350  0.77550550  1
  H  1595  1  0.64013550  0.06250500  0.74215600  1
  H  1596  1  0.61112800  0.11934350  0.74298850  1
  H  1597  1  0.68557350  0.13632650  0.69589250  1
  H  1598  1  0.68548650  0.17892800  0.65324600  1
  H  1599  1  0.60672650  0.22233450  0.73926350  1
  H  1600  1  0.56665900  0.26213800  0.77906500  1
  H  1601  1  0.60583750  0.13526500  0.82345400  1
  H  1602  1  0.56313200  0.17804050  0.86620650  1
  H  1603  1  0.58878700  0.22861000  0.88206800  1
  H  1604  1  0.56030950  0.22887900  0.93903300  1
  H  1605  1  0.47244200  0.25578300  0.88205500  1
  H  1606  1  0.44386550  0.25587700  0.93902200  1
  H  1607  1  0.51647800  0.30549500  0.86503900  1
  H  1608  1  0.51661650  0.34809400  0.82239000  1
  H  1609  1  0.60601600  0.30640050  0.65209450  1
  H  1610  1  0.56314850  0.34917400  0.69485300  1
  H  1611  1  0.47207300  0.36509550  0.77536350  1
  H  1612  1  0.44341800  0.42193750  0.77618450  1
  H  1613  1  0.58929900  0.36514500  0.74276600  1
  H  1614  1  0.56100000  0.42198550  0.74235750  1
  H  1615  1  0.69812450  0.25581200  0.63622800  1
  H  1616  1  0.72688300  0.25553700  0.57926300  1
  H  1617  1  0.63738900  0.22858250  0.57927850  1
  H  1618  1  0.60889800  0.22868700  0.63624500  1
  H  1741  1  0.79433350  0.75887050  0.43890950  1
  H  1742  1  0.82304700  0.75846150  0.38206550  1
  H  1743  1  0.71039450  0.72525950  0.43884950  1
  H  1744  1  0.73823200  0.72608650  0.38200450  1
  H  1745  1  0.82965100  0.67892050  0.36501150  1
  H  1746  1  0.87216450  0.63628250  0.32239950  1
  H  1747  1  0.83688500  0.72230400  0.27900300  1
  H  1748  1  0.83695050  0.76207600  0.23925000  1
  H  1749  1  0.74903700  0.80649150  0.36611650  1
  H  1750  1  0.74912350  0.84925000  0.32335400  1
  H  1751  1  0.82524950  0.86511750  0.27270250  1
  H  1752  1  0.79704000  0.92207950  0.27243750  1
  H  1753  1  0.73596450  0.86510300  0.24567100  1
  H  1754  1  0.70749050  0.92206700  0.24556900  1
  H  1755  1  0.82947750  0.84811550  0.19584450  1
  H  1756  1  0.87222050  0.80547900  0.15323300  1
  H  1757  1  0.92041700  0.63514100  0.19489400  1
  H  1758  1  0.92035400  0.67789950  0.15212950  1
  H  1759  1  0.84500800  0.75829350  0.13624750  1
  H  1760  1  0.87317550  0.75913250  0.07940450  1
  H  1761  1  0.96226300  0.72594100  0.13617200  1
  H  1762  1  0.99078950  0.72554400  0.07932900  1
  H  1763  1  0.96174700  0.61927150  0.24556050  1
  H  1764  1  0.99022550  0.56231000  0.24583900  1
  H  1765  1  0.87379300  0.56233350  0.27268450  1
  H  1766  1  0.84541450  0.61929600  0.27257200  1
  N  628  1  0.90549150  0.20644350  0.72337850  1
  N  632  1  0.87056650  0.20561400  0.79581100  1
  N  638  1  0.83403400  0.27798000  0.79491000  1
  N  644  1  0.87061850  0.27882600  0.72249200  1
  N  776  1  0.11973450  0.70641750  0.29489250  1
  N  780  1  0.08397600  0.77885350  0.29574550  1
  N  786  1  0.11970400  0.77797800  0.22335200  1
  N  792  1  0.15726500  0.70553900  0.22250300  1
  N  1548  1  0.62726950  0.20644350  0.72337850  1
  N  1552  1  0.59234450  0.20561400  0.79581100  1
  N  1558  1  0.55581200  0.27798000  0.79491000  1
  N  1564  1  0.59239650  0.27882600  0.72249200  1
  N  1696  1  0.84151250  0.70641750  0.29489250  1
  N  1700  1  0.80575400  0.77885350  0.29574550  1
  N  1706  1  0.84148200  0.77797800  0.22335200  1
  N  1712  1  0.87904300  0.70553900  0.22250300  1
