# generated using pymatgen
data_H28C53N8
_symmetry_space_group_name_H-M   'P 1'
_cell_length_a   32.70970000
_cell_length_b   39.89600000
_cell_length_c   61.69670000
_cell_angle_alpha   90.00000000
_cell_angle_beta   90.00000000
_cell_angle_gamma   90.00220000
_symmetry_Int_Tables_number   1
_chemical_formula_structural   H28C53N8
_chemical_formula_sum   'H448 C848 N128'
_cell_volume   80513.34148326
_cell_formula_units_Z   16
loop_
 _symmetry_equiv_pos_site_id
 _symmetry_equiv_pos_as_xyz
  1  'x, y, z'
loop_
 _atom_site_type_symbol
 _atom_site_label
 _atom_site_symmetry_multiplicity
 _atom_site_fract_x
 _atom_site_fract_y
 _atom_site_fract_z
 _atom_site_occupancy
  H  25  1  0.36608900  0.02319000  0.17685400  1
  H  26  1  0.29443200  0.01617300  0.18183100  1
  H  27  1  0.22075300  0.01547200  0.18119800  1
  H  28  1  0.14945400  0.02098700  0.17487200  1
  H  29  1  0.16891200  0.11728800  0.14747400  1
  H  30  1  0.34569600  0.11897200  0.14894300  1
  H  31  1  0.25871800  0.13863800  0.19838700  1
  H  32  1  0.25578200  0.24165300  0.18133700  1
  H  33  1  0.25413700  0.22695600  0.14402800  1
  H  34  1  0.25819600  0.08117600  0.11182500  1
  H  35  1  0.25393300  0.20305200  0.10787000  1
  H  36  1  0.25483500  0.17130000  0.07529400  1
  H  42  1  0.41901200  0.09613300  0.16071100  1
  H  43  1  0.09835400  0.09252900  0.14947100  1
  H  44  1  0.25760000  0.07957300  0.07100600  1
  H  45  1  0.26692300  0.18444700  0.22696800  1
  H  70  1  0.14874900  0.02353900  0.83825100  1
  H  71  1  0.22041800  0.01642300  0.83339200  1
  H  72  1  0.29410600  0.01565700  0.83411900  1
  H  73  1  0.36541300  0.02126300  0.84034000  1
  H  74  1  0.34598300  0.11773600  0.86749400  1
  H  75  1  0.16915700  0.11942000  0.86602000  1
  H  76  1  0.25613700  0.13885600  0.81667100  1
  H  77  1  0.25912100  0.24191800  0.83360400  1
  H  78  1  0.26078400  0.22732000  0.87093300  1
  H  79  1  0.25673900  0.08159800  0.90325600  1
  H  80  1  0.26097800  0.20348100  0.90713800  1
  H  81  1  0.26011700  0.17176600  0.93973900  1
  H  87  1  0.09589500  0.09664100  0.85434700  1
  H  88  1  0.41653300  0.09295700  0.86558000  1
  H  89  1  0.25735600  0.08003300  0.94404100  1
  H  90  1  0.24796000  0.18456600  0.78804100  1
  H  115  1  0.86579500  0.02819000  0.84012600  1
  H  116  1  0.79461100  0.03381800  0.83358600  1
  H  117  1  0.72092000  0.03335100  0.83276300  1
  H  118  1  0.64916700  0.02648200  0.83752300  1
  H  119  1  0.66898100  0.93074000  0.86558400  1
  H  120  1  0.84576300  0.93208600  0.86772600  1
  H  121  1  0.75997100  0.91089600  0.81649600  1
  H  122  1  0.75775900  0.80787000  0.83355000  1
  H  123  1  0.75577900  0.82256600  0.87085900  1
  H  124  1  0.75762900  0.96837500  0.90306000  1
  H  125  1  0.75513800  0.84646800  0.90701100  1
  H  126  1  0.75526800  0.87822800  0.93958700  1
  H  132  1  0.91647500  0.95679500  0.86590700  1
  H  133  1  0.59594200  0.95362700  0.85373900  1
  H  134  1  0.75699900  0.96997200  0.94387900  1
  H  135  1  0.76836100  0.86504100  0.78790000  1
  H  160  1  0.64908500  0.02796600  0.17434600  1
  H  161  1  0.72027800  0.03364600  0.18082700  1
  H  162  1  0.79395400  0.03322200  0.18157400  1
  H  163  1  0.86570600  0.02626700  0.17688600  1
  H  164  1  0.84584600  0.93028800  0.14916700  1
  H  165  1  0.66905400  0.93166500  0.14702700  1
  H  166  1  0.75487800  0.91064000  0.19821300  1
  H  167  1  0.75698600  0.80757400  0.18125900  1
  H  168  1  0.75895200  0.82218000  0.14393300  1
  H  169  1  0.75725900  0.96795100  0.11163900  1
  H  170  1  0.75960400  0.84603700  0.10773700  1
  H  171  1  0.75951400  0.87777400  0.07514200  1
  H  177  1  0.59838200  0.95642400  0.14872200  1
  H  178  1  0.91889000  0.95316300  0.16098000  1
  H  179  1  0.75788600  0.96952500  0.07085200  1
  H  180  1  0.74636100  0.86486300  0.22684200  1
  H  205  1  0.86576900  0.52342100  0.67719800  1
  H  206  1  0.79403700  0.51659800  0.68197200  1
  H  207  1  0.72046000  0.51608900  0.68116800  1
  H  208  1  0.64927000  0.52160900  0.67464400  1
  H  209  1  0.66907600  0.61776100  0.64708200  1
  H  210  1  0.84601800  0.61920700  0.64919000  1
  H  211  1  0.75551300  0.63924200  0.69826800  1
  H  212  1  0.75696400  0.74225700  0.68114300  1
  H  213  1  0.75839100  0.72745900  0.64382500  1
  H  214  1  0.75746400  0.58154400  0.61180300  1
  H  215  1  0.75892200  0.70346600  0.60772600  1
  H  216  1  0.75897600  0.67163600  0.57519100  1
  H  222  1  0.91913000  0.59621500  0.66098200  1
  H  223  1  0.59841400  0.59285600  0.64881300  1
  H  224  1  0.75794700  0.57987500  0.57098800  1
  H  225  1  0.75087800  0.68427600  0.72687900  1
  H  250  1  0.64908700  0.52375900  0.33800800  1
  H  251  1  0.72081400  0.51687900  0.33325800  1
  H  252  1  0.79440700  0.51639500  0.33398700  1
  H  253  1  0.86561300  0.52194200  0.34047200  1
  H  254  1  0.84586500  0.61819200  0.36790300  1
  H  255  1  0.66891400  0.61964600  0.36585800  1
  H  256  1  0.75942300  0.63948200  0.31679700  1
  H  257  1  0.75816000  0.74254500  0.33380100  1
  H  258  1  0.75673100  0.72785200  0.37114100  1
  H  259  1  0.75732400  0.58198500  0.40327800  1
  H  260  1  0.75610900  0.70391500  0.40728900  1
  H  261  1  0.75596100  0.67211700  0.43984900  1
  H  267  1  0.59580300  0.59670100  0.35404300  1
  H  268  1  0.91652800  0.59330000  0.36616200  1
  H  269  1  0.75681900  0.58034900  0.44405800  1
  H  270  1  0.76401700  0.68440900  0.28813400  1
  H  295  1  0.36539400  0.52806800  0.33997400  1
  H  296  1  0.29412100  0.53352700  0.33364000  1
  H  297  1  0.22053800  0.53288000  0.33300700  1
  H  298  1  0.14888000  0.52599200  0.33797100  1
  H  299  1  0.16903400  0.43025900  0.36599000  1
  H  300  1  0.34598500  0.43185500  0.36750900  1
  H  301  1  0.25665100  0.41030400  0.31661300  1
  H  302  1  0.25875500  0.30729600  0.33373100  1
  H  303  1  0.25985600  0.32209000  0.37105200  1
  H  304  1  0.25689100  0.46798700  0.40307800  1
  H  305  1  0.25996900  0.34608200  0.40715500  1
  H  306  1  0.25932200  0.37790700  0.43969100  1
  H  312  1  0.41655600  0.45676700  0.36559500  1
  H  313  1  0.09575000  0.45317800  0.35442300  1
  H  314  1  0.25736800  0.46965800  0.44389300  1
  H  315  1  0.25238400  0.36530200  0.28799800  1
  H  340  1  0.14954100  0.52775400  0.67464200  1
  H  341  1  0.22083700  0.53327100  0.68089200  1
  H  342  1  0.29444300  0.53259700  0.68152800  1
  H  343  1  0.36610600  0.52561400  0.67662600  1
  H  344  1  0.34587500  0.42977000  0.64878000  1
  H  345  1  0.16888600  0.43141400  0.64727900  1
  H  346  1  0.25829800  0.41006100  0.69808400  1
  H  347  1  0.25618600  0.30700600  0.68108400  1
  H  348  1  0.25504000  0.32170400  0.64374300  1
  H  349  1  0.25799900  0.46754000  0.61159800  1
  H  350  1  0.25485800  0.34563400  0.60759200  1
  H  351  1  0.25550500  0.37742400  0.57502900  1
  H  357  1  0.09831400  0.45632400  0.64919200  1
  H  358  1  0.41918200  0.45268700  0.66052200  1
  H  359  1  0.25751400  0.46918200  0.57082200  1
  H  360  1  0.26257300  0.36515400  0.72674600  1
  H  371  1  0.25740700  0.16893700  0.02693600  1
  H  372  1  0.25766500  0.16912900  0.98833500  1
  H  377  1  0.25761000  0.99526700  0.96778600  1
  H  378  1  0.25745700  0.94262600  0.98748100  1
  H  379  1  0.25725100  0.94242000  0.02682600  1
  H  380  1  0.25718700  0.99485100  0.04675200  1
  H  393  1  0.75723400  0.88060900  0.98795600  1
  H  394  1  0.75758200  0.88042600  0.02655700  1
  H  399  1  0.75779700  0.05429000  0.04709100  1
  H  400  1  0.75765300  0.10692700  0.02739300  1
  H  401  1  0.75732600  0.10712600  0.98804600  1
  H  402  1  0.75714300  0.05469000  0.96812500  1
  H  415  1  0.75757200  0.66927200  0.52694100  1
  H  416  1  0.75725100  0.66946800  0.48833600  1
  H  421  1  0.75709600  0.49560300  0.46778400  1
  H  422  1  0.75725900  0.44296200  0.48747800  1
  H  423  1  0.75757400  0.44275400  0.52682400  1
  H  424  1  0.75773200  0.49518500  0.54675100  1
  H  437  1  0.25747200  0.38026100  0.48793900  1
  H  438  1  0.25728400  0.38006300  0.52654400  1
  H  443  1  0.25733600  0.55392800  0.54709900  1
  H  444  1  0.25745500  0.60656900  0.52740600  1
  H  445  1  0.25761200  0.60678000  0.48806000  1
  H  446  1  0.25765800  0.55435100  0.46813200  1
  H  459  1  0.98958500  0.97261600  0.17497400  1
  H  460  1  0.05801600  0.99364600  0.17593600  1
  H  465  1  0.03679500  0.13612600  0.10911400  1
  H  466  1  0.98473500  0.16479700  0.08810500  1
  H  467  1  0.91526900  0.14341700  0.08719600  1
  H  468  1  0.89740900  0.09319800  0.10726100  1
  H  481  1  0.52533700  0.97323000  0.83970500  1
  H  482  1  0.45689900  0.99425500  0.83884200  1
  H  487  1  0.47829000  0.13638500  0.90595900  1
  H  488  1  0.53039500  0.16494500  0.92700300  1
  H  489  1  0.59986600  0.14356900  0.92781300  1
  H  490  1  0.61768400  0.09346700  0.90761800  1
  H  503  1  0.02499900  0.07705300  0.84035600  1
  H  504  1  0.95668300  0.05575400  0.83932500  1
  H  509  1  0.97863200  0.91306100  0.90587000  1
  H  510  1  0.03082600  0.88448400  0.92684100  1
  H  511  1  0.10016700  0.90612800  0.92782400  1
  H  512  1  0.11776600  0.95652200  0.90787700  1
  H  525  1  0.48977900  0.07648800  0.17460100  1
  H  526  1  0.55810700  0.05521500  0.17553500  1
  H  531  1  0.53606800  0.91278500  0.10876500  1
  H  532  1  0.48384000  0.88426900  0.08778300  1
  H  533  1  0.41447700  0.90586500  0.08689900  1
  H  534  1  0.39688500  0.95615300  0.10695900  1
  H  547  1  0.49008200  0.47244100  0.67450300  1
  H  548  1  0.55834100  0.49386900  0.67551800  1
  H  553  1  0.53596600  0.63655700  0.60903300  1
  H  554  1  0.48368000  0.66506600  0.58808800  1
  H  555  1  0.41438500  0.64332200  0.58713200  1
  H  556  1  0.39692300  0.59289900  0.60708000  1
  H  569  1  0.02489000  0.47304000  0.34023100  1
  H  570  1  0.95660300  0.49442000  0.33932100  1
  H  575  1  0.97907700  0.63684300  0.40604300  1
  H  576  1  0.03140100  0.66528200  0.42700000  1
  H  577  1  0.10071800  0.64357800  0.42785400  1
  H  578  1  0.11816200  0.59326200  0.40778800  1
  H  591  1  0.52499700  0.57698200  0.33993100  1
  H  592  1  0.45668000  0.55568200  0.33892300  1
  H  597  1  0.47860300  0.41322200  0.40567000  1
  H  598  1  0.53078500  0.38472000  0.42668900  1
  H  599  1  0.60012900  0.40636400  0.42764400  1
  H  600  1  0.61773800  0.45667700  0.40761500  1
  H  613  1  0.98987500  0.57640600  0.67512900  1
  H  614  1  0.05820800  0.55512300  0.67602800  1
  H  619  1  0.03613800  0.41297400  0.60901500  1
  H  620  1  0.98390800  0.38456500  0.58797200  1
  H  621  1  0.91454700  0.40617800  0.58712900  1
  H  622  1  0.89696400  0.45636900  0.60729000  1
  H  635  1  0.28545100  0.21938900  0.26079400  1
  H  636  1  0.28746000  0.25750700  0.29079400  1
  H  641  1  0.18256800  0.39526500  0.24570200  1
  H  642  1  0.14869700  0.41110400  0.21224000  1
  H  643  1  0.14687200  0.37251300  0.18183300  1
  H  644  1  0.17885400  0.31780900  0.18469400  1
  H  657  1  0.22946600  0.21936100  0.75416800  1
  H  658  1  0.22749500  0.25735700  0.72410500  1
  H  663  1  0.33234200  0.39530300  0.76900900  1
  H  664  1  0.36617100  0.41127200  0.80245800  1
  H  665  1  0.36795500  0.37279400  0.83292800  1
  H  666  1  0.33597700  0.31807900  0.83014200  1
  H  679  1  0.78606400  0.82996000  0.75398400  1
  H  680  1  0.78730300  0.79182300  0.72398400  1
  H  685  1  0.68167300  0.65476000  0.76947900  1
  H  686  1  0.64809900  0.63914200  0.80306900  1
  H  687  1  0.64702400  0.67775900  0.83347300  1
  H  688  1  0.67946700  0.73226600  0.83048000  1
  H  701  1  0.72885400  0.82996300  0.26081300  1
  H  702  1  0.72765400  0.79194900  0.29087800  1
  H  707  1  0.83325300  0.65471700  0.24557200  1
  H  708  1  0.86679500  0.63897900  0.21199800  1
  H  709  1  0.86782100  0.67747600  0.18153000  1
  H  710  1  0.83536000  0.73198300  0.18444100  1
  H  737  1  0.36608900  0.47436300  0.17685400  1
  H  738  1  0.29443200  0.46734600  0.18183100  1
  H  739  1  0.22075300  0.46664500  0.18119800  1
  H  740  1  0.14945400  0.47216000  0.17487200  1
  H  741  1  0.16891200  0.56846100  0.14747400  1
  H  742  1  0.34569600  0.57014500  0.14894300  1
  H  743  1  0.25871800  0.58981100  0.19838700  1
  H  744  1  0.25578200  0.69282600  0.18133700  1
  H  745  1  0.25413700  0.67812900  0.14402800  1
  H  746  1  0.25819600  0.53234900  0.11182500  1
  H  747  1  0.25393300  0.65422500  0.10787000  1
  H  748  1  0.25483500  0.62247300  0.07529400  1
  H  754  1  0.41901200  0.54730600  0.16071100  1
  H  755  1  0.09835400  0.54370200  0.14947100  1
  H  756  1  0.25760000  0.53074600  0.07100600  1
  H  757  1  0.26692300  0.63562000  0.22696800  1
  H  782  1  0.14874900  0.47471200  0.83825100  1
  H  783  1  0.22041800  0.46759600  0.83339200  1
  H  784  1  0.29410600  0.46683000  0.83411900  1
  H  785  1  0.36541300  0.47243600  0.84034000  1
  H  786  1  0.34598300  0.56890900  0.86749400  1
  H  787  1  0.16915700  0.57059300  0.86602000  1
  H  788  1  0.25613700  0.59002900  0.81667100  1
  H  789  1  0.25912100  0.69309100  0.83360400  1
  H  790  1  0.26078400  0.67849300  0.87093300  1
  H  791  1  0.25673900  0.53277100  0.90325600  1
  H  792  1  0.26097800  0.65465400  0.90713800  1
  H  793  1  0.26011700  0.62293900  0.93973900  1
  H  799  1  0.09589500  0.54781400  0.85434700  1
  H  800  1  0.41653300  0.54413000  0.86558000  1
  H  801  1  0.25735600  0.53120600  0.94404100  1
  H  802  1  0.24796000  0.63573900  0.78804100  1
  H  827  1  0.86579500  0.47936300  0.84012600  1
  H  828  1  0.79461100  0.48499100  0.83358600  1
  H  829  1  0.72092000  0.48452400  0.83276300  1
  H  830  1  0.64916700  0.47765500  0.83752300  1
  H  831  1  0.66898100  0.38191300  0.86558400  1
  H  832  1  0.84576300  0.38325900  0.86772600  1
  H  833  1  0.75997100  0.36206900  0.81649600  1
  H  834  1  0.75775900  0.25904300  0.83355000  1
  H  835  1  0.75577900  0.27373900  0.87085900  1
  H  836  1  0.75762900  0.41954800  0.90306000  1
  H  837  1  0.75513800  0.29764100  0.90701100  1
  H  838  1  0.75526800  0.32940100  0.93958700  1
  H  844  1  0.91647500  0.40796800  0.86590700  1
  H  845  1  0.59594200  0.40480000  0.85373900  1
  H  846  1  0.75699900  0.42114500  0.94387900  1
  H  847  1  0.76836100  0.31621400  0.78790000  1
  H  872  1  0.64908500  0.47913900  0.17434600  1
  H  873  1  0.72027800  0.48481900  0.18082700  1
  H  874  1  0.79395400  0.48439500  0.18157400  1
  H  875  1  0.86570600  0.47744000  0.17688600  1
  H  876  1  0.84584600  0.38146100  0.14916700  1
  H  877  1  0.66905400  0.38283800  0.14702700  1
  H  878  1  0.75487800  0.36181300  0.19821300  1
  H  879  1  0.75698600  0.25874700  0.18125900  1
  H  880  1  0.75895200  0.27335300  0.14393300  1
  H  881  1  0.75725900  0.41912400  0.11163900  1
  H  882  1  0.75960400  0.29721000  0.10773700  1
  H  883  1  0.75951400  0.32894700  0.07514200  1
  H  889  1  0.59838200  0.40759700  0.14872200  1
  H  890  1  0.91889000  0.40433600  0.16098000  1
  H  891  1  0.75788600  0.42069800  0.07085200  1
  H  892  1  0.74636100  0.31603600  0.22684200  1
  H  917  1  0.86576900  0.97459400  0.67719800  1
  H  918  1  0.79403700  0.96777100  0.68197200  1
  H  919  1  0.72046000  0.96726200  0.68116800  1
  H  920  1  0.64927000  0.97278200  0.67464400  1
  H  921  1  0.66907600  0.06893400  0.64708200  1
  H  922  1  0.84601800  0.07038000  0.64919000  1
  H  923  1  0.75551300  0.09041500  0.69826800  1
  H  924  1  0.75696400  0.19343000  0.68114300  1
  H  925  1  0.75839100  0.17863200  0.64382500  1
  H  926  1  0.75746400  0.03271700  0.61180300  1
  H  927  1  0.75892200  0.15463900  0.60772600  1
  H  928  1  0.75897600  0.12280900  0.57519100  1
  H  934  1  0.91913000  0.04738800  0.66098200  1
  H  935  1  0.59841400  0.04402900  0.64881300  1
  H  936  1  0.75794700  0.03104800  0.57098800  1
  H  937  1  0.75087800  0.13544900  0.72687900  1
  H  962  1  0.64908700  0.97493200  0.33800800  1
  H  963  1  0.72081400  0.96805200  0.33325800  1
  H  964  1  0.79440700  0.96756800  0.33398700  1
  H  965  1  0.86561300  0.97311500  0.34047200  1
  H  966  1  0.84586500  0.06936500  0.36790300  1
  H  967  1  0.66891400  0.07081900  0.36585800  1
  H  968  1  0.75942300  0.09065500  0.31679700  1
  H  969  1  0.75816000  0.19371800  0.33380100  1
  H  970  1  0.75673100  0.17902500  0.37114100  1
  H  971  1  0.75732400  0.03315800  0.40327800  1
  H  972  1  0.75610900  0.15508800  0.40728900  1
  H  973  1  0.75596100  0.12329000  0.43984900  1
  H  979  1  0.59580300  0.04787400  0.35404300  1
  H  980  1  0.91652800  0.04447300  0.36616200  1
  H  981  1  0.75681900  0.03152200  0.44405800  1
  H  982  1  0.76401700  0.13558200  0.28813400  1
  H  1007  1  0.36539400  0.97924100  0.33997400  1
  H  1008  1  0.29412100  0.98470000  0.33364000  1
  H  1009  1  0.22053800  0.98405300  0.33300700  1
  H  1010  1  0.14888000  0.97716500  0.33797100  1
  H  1011  1  0.16903400  0.88143200  0.36599000  1
  H  1012  1  0.34598500  0.88302800  0.36750900  1
  H  1013  1  0.25665100  0.86147700  0.31661300  1
  H  1014  1  0.25875500  0.75846900  0.33373100  1
  H  1015  1  0.25985600  0.77326300  0.37105200  1
  H  1016  1  0.25689100  0.91916000  0.40307800  1
  H  1017  1  0.25996900  0.79725500  0.40715500  1
  H  1018  1  0.25932200  0.82908000  0.43969100  1
  H  1024  1  0.41655600  0.90794000  0.36559500  1
  H  1025  1  0.09575000  0.90435100  0.35442300  1
  H  1026  1  0.25736800  0.92083100  0.44389300  1
  H  1027  1  0.25238400  0.81647500  0.28799800  1
  H  1052  1  0.14954100  0.97892700  0.67464200  1
  H  1053  1  0.22083700  0.98444400  0.68089200  1
  H  1054  1  0.29444300  0.98377000  0.68152800  1
  H  1055  1  0.36610600  0.97678700  0.67662600  1
  H  1056  1  0.34587500  0.88094300  0.64878000  1
  H  1057  1  0.16888600  0.88258700  0.64727900  1
  H  1058  1  0.25829800  0.86123400  0.69808400  1
  H  1059  1  0.25618600  0.75817900  0.68108400  1
  H  1060  1  0.25504000  0.77287700  0.64374300  1
  H  1061  1  0.25799900  0.91871300  0.61159800  1
  H  1062  1  0.25485800  0.79680700  0.60759200  1
  H  1063  1  0.25550500  0.82859700  0.57502900  1
  H  1069  1  0.09831400  0.90749700  0.64919200  1
  H  1070  1  0.41918200  0.90386000  0.66052200  1
  H  1071  1  0.25751400  0.92035500  0.57082200  1
  H  1072  1  0.26257300  0.81632700  0.72674600  1
  H  1083  1  0.25740700  0.62011000  0.02693600  1
  H  1084  1  0.25766500  0.62030200  0.98833500  1
  H  1089  1  0.25761000  0.44644000  0.96778600  1
  H  1090  1  0.25745700  0.39379900  0.98748100  1
  H  1091  1  0.25725100  0.39359300  0.02682600  1
  H  1092  1  0.25718700  0.44602400  0.04675200  1
  H  1105  1  0.75723400  0.33178200  0.98795600  1
  H  1106  1  0.75758200  0.33159900  0.02655700  1
  H  1111  1  0.75779700  0.50546300  0.04709100  1
  H  1112  1  0.75765300  0.55810000  0.02739300  1
  H  1113  1  0.75732600  0.55829900  0.98804600  1
  H  1114  1  0.75714300  0.50586300  0.96812500  1
  H  1127  1  0.75757200  0.12044500  0.52694100  1
  H  1128  1  0.75725100  0.12064100  0.48833600  1
  H  1133  1  0.75709600  0.94677600  0.46778400  1
  H  1134  1  0.75725900  0.89413500  0.48747800  1
  H  1135  1  0.75757400  0.89392700  0.52682400  1
  H  1136  1  0.75773200  0.94635800  0.54675100  1
  H  1149  1  0.25747200  0.83143400  0.48793900  1
  H  1150  1  0.25728400  0.83123600  0.52654400  1
  H  1155  1  0.25733600  0.00510105  0.54709900  1
  H  1156  1  0.25745500  0.05774200  0.52740600  1
  H  1157  1  0.25761200  0.05795300  0.48806000  1
  H  1158  1  0.25765800  0.00552405  0.46813200  1
  H  1171  1  0.98958500  0.42378900  0.17497400  1
  H  1172  1  0.05801600  0.44481900  0.17593600  1
  H  1177  1  0.03679500  0.58729900  0.10911400  1
  H  1178  1  0.98473500  0.61597000  0.08810500  1
  H  1179  1  0.91526900  0.59459000  0.08719600  1
  H  1180  1  0.89740900  0.54437100  0.10726100  1
  H  1193  1  0.52533700  0.42440300  0.83970500  1
  H  1194  1  0.45689900  0.44542800  0.83884200  1
  H  1199  1  0.47829000  0.58755800  0.90595900  1
  H  1200  1  0.53039500  0.61611800  0.92700300  1
  H  1201  1  0.59986600  0.59474200  0.92781300  1
  H  1202  1  0.61768400  0.54464000  0.90761800  1
  H  1215  1  0.02499900  0.52822600  0.84035600  1
  H  1216  1  0.95668300  0.50692700  0.83932500  1
  H  1221  1  0.97863200  0.36423400  0.90587000  1
  H  1222  1  0.03082600  0.33565700  0.92684100  1
  H  1223  1  0.10016700  0.35730100  0.92782400  1
  H  1224  1  0.11776600  0.40769500  0.90787700  1
  H  1237  1  0.48977900  0.52766100  0.17460100  1
  H  1238  1  0.55810700  0.50638800  0.17553500  1
  H  1243  1  0.53606800  0.36395800  0.10876500  1
  H  1244  1  0.48384000  0.33544200  0.08778300  1
  H  1245  1  0.41447700  0.35703800  0.08689900  1
  H  1246  1  0.39688500  0.40732600  0.10695900  1
  H  1259  1  0.49008200  0.92361400  0.67450300  1
  H  1260  1  0.55834100  0.94504200  0.67551800  1
  H  1265  1  0.53596600  0.08773000  0.60903300  1
  H  1266  1  0.48368000  0.11623900  0.58808800  1
  H  1267  1  0.41438500  0.09449500  0.58713200  1
  H  1268  1  0.39692300  0.04407200  0.60708000  1
  H  1281  1  0.02489000  0.92421300  0.34023100  1
  H  1282  1  0.95660300  0.94559300  0.33932100  1
  H  1287  1  0.97907700  0.08801600  0.40604300  1
  H  1288  1  0.03140100  0.11645500  0.42700000  1
  H  1289  1  0.10071800  0.09475100  0.42785400  1
  H  1290  1  0.11816200  0.04443500  0.40778800  1
  H  1303  1  0.52499700  0.02815500  0.33993100  1
  H  1304  1  0.45668000  0.00685505  0.33892300  1
  H  1309  1  0.47860300  0.86439500  0.40567000  1
  H  1310  1  0.53078500  0.83589300  0.42668900  1
  H  1311  1  0.60012900  0.85753700  0.42764400  1
  H  1312  1  0.61773800  0.90785000  0.40761500  1
  H  1325  1  0.98987500  0.02757900  0.67512900  1
  H  1326  1  0.05820800  0.00629605  0.67602800  1
  H  1331  1  0.03613800  0.86414700  0.60901500  1
  H  1332  1  0.98390800  0.83573800  0.58797200  1
  H  1333  1  0.91454700  0.85735100  0.58712900  1
  H  1334  1  0.89696400  0.90754200  0.60729000  1
  H  1347  1  0.28545100  0.67056200  0.26079400  1
  H  1348  1  0.28746000  0.70868000  0.29079400  1
  H  1353  1  0.18256800  0.84643800  0.24570200  1
  H  1354  1  0.14869700  0.86227700  0.21224000  1
  H  1355  1  0.14687200  0.82368600  0.18183300  1
  H  1356  1  0.17885400  0.76898200  0.18469400  1
  H  1369  1  0.22946600  0.67053400  0.75416800  1
  H  1370  1  0.22749500  0.70853000  0.72410500  1
  H  1375  1  0.33234200  0.84647600  0.76900900  1
  H  1376  1  0.36617100  0.86244500  0.80245800  1
  H  1377  1  0.36795500  0.82396700  0.83292800  1
  H  1378  1  0.33597700  0.76925200  0.83014200  1
  H  1391  1  0.78606400  0.28113300  0.75398400  1
  H  1392  1  0.78730300  0.24299600  0.72398400  1
  H  1397  1  0.68167300  0.10593300  0.76947900  1
  H  1398  1  0.64809900  0.09031500  0.80306900  1
  H  1399  1  0.64702400  0.12893200  0.83347300  1
  H  1400  1  0.67946700  0.18343900  0.83048000  1
  H  1413  1  0.72885400  0.28113600  0.26081300  1
  H  1414  1  0.72765400  0.24312200  0.29087800  1
  H  1419  1  0.83325300  0.10589000  0.24557200  1
  H  1420  1  0.86679500  0.09015200  0.21199800  1
  H  1421  1  0.86782100  0.12864900  0.18153000  1
  H  1422  1  0.83536000  0.18315600  0.18444100  1
  C  1  1  0.25686700  0.12586100  0.13015700  1
  C  2  1  0.25556900  0.16083300  0.12875500  1
  C  3  1  0.25534000  0.17444400  0.14941000  1
  C  4  1  0.25651100  0.14864600  0.16476400  1
  C  5  1  0.25744200  0.15740800  0.18711900  1
  C  6  1  0.25703100  0.19170600  0.19390500  1
  C  7  1  0.25561700  0.21669700  0.17749400  1
  C  8  1  0.25472300  0.20836700  0.15542400  1
  C  9  1  0.25485500  0.17747800  0.10873000  1
  C  10  1  0.25541000  0.15843300  0.08963700  1
  C  11  1  0.25669400  0.12278200  0.09007000  1
  C  12  1  0.25736200  0.10675300  0.11075000  1
  C  13  1  0.29256500  0.09344200  0.15941300  1
  C  14  1  0.27846300  0.06360200  0.16872100  1
  C  15  1  0.23619500  0.06328700  0.16853300  1
  C  16  1  0.22182600  0.09295400  0.15916200  1
  C  17  1  0.20980600  0.03722400  0.17465000  1
  C  18  1  0.16785300  0.04069300  0.17067500  1
  C  19  1  0.15162800  0.06974000  0.16045900  1
  C  20  1  0.17928800  0.09616400  0.15509400  1
  C  21  1  0.33526000  0.09756400  0.15619600  1
  C  22  1  0.36310100  0.07155600  0.16202500  1
  C  23  1  0.34719600  0.04224400  0.17201700  1
  C  24  1  0.30514200  0.03798200  0.17525300  1
  C  37  1  0.25704500  0.11529100  0.15343700  1
  C  38  1  0.10991600  0.07140500  0.15534600  1
  C  39  1  0.40524500  0.07413200  0.15882700  1
  C  40  1  0.25719800  0.10444300  0.07064700  1
  C  41  1  0.25939000  0.20132000  0.21582700  1
  C  46  1  0.25802500  0.12625800  0.88490300  1
  C  47  1  0.25933300  0.16123200  0.88627900  1
  C  48  1  0.25951700  0.17479600  0.86560900  1
  C  49  1  0.25834800  0.14896100  0.85028200  1
  C  50  1  0.25741100  0.15765800  0.82791800  1
  C  51  1  0.25781900  0.19193600  0.82109400  1
  C  52  1  0.25925900  0.21697300  0.83747800  1
  C  53  1  0.26014500  0.20870300  0.85955800  1
  C  54  1  0.26006300  0.17790500  0.90629700  1
  C  55  1  0.25953300  0.15888500  0.92540300  1
  C  56  1  0.25825700  0.12323500  0.92498600  1
  C  57  1  0.25757000  0.10717700  0.90431800  1
  C  58  1  0.22230200  0.09376500  0.85570400  1
  C  59  1  0.23640500  0.06384000  0.84651500  1
  C  60  1  0.27866900  0.06355400  0.84665300  1
  C  61  1  0.29305100  0.09329100  0.85592800  1
  C  62  1  0.30506300  0.03748600  0.84055600  1
  C  63  1  0.34702800  0.04100900  0.84447300  1
  C  64  1  0.36326900  0.07013200  0.85459500  1
  C  65  1  0.33560600  0.09657000  0.85992300  1
  C  66  1  0.17959700  0.09795000  0.85884700  1
  C  67  1  0.15173900  0.07194900  0.85302300  1
  C  68  1  0.16765100  0.04257500  0.84310800  1
  C  69  1  0.20971500  0.03823900  0.83996200  1
  C  82  1  0.25783000  0.11563400  0.86163600  1
  C  83  1  0.40500000  0.07185000  0.85966400  1
  C  84  1  0.10957800  0.07458300  0.85613500  1
  C  85  1  0.25776900  0.10490200  0.94440900  1
  C  86  1  0.25548100  0.20147600  0.79916100  1
  C  91  1  0.75693600  0.92368400  0.88472500  1
  C  92  1  0.75625300  0.88869800  0.88612700  1
  C  93  1  0.75669200  0.87508200  0.86547400  1
  C  94  1  0.75786700  0.90088200  0.85012300  1
  C  95  1  0.75894300  0.89212200  0.82776900  1
  C  96  1  0.75870300  0.85782000  0.82098400  1
  C  97  1  0.75748500  0.83282500  0.83739700  1
  C  98  1  0.75644000  0.84115400  0.85946400  1
  C  99  1  0.75557900  0.87205000  0.90615200  1
  C  100  1  0.75569600  0.89110200  0.92524600  1
  C  101  1  0.75650200  0.92675900  0.92481300  1
  C  102  1  0.75701900  0.94279300  0.90413300  1
  C  103  1  0.79303400  0.95651200  0.85589400  1
  C  104  1  0.77888000  0.98612100  0.84633400  1
  C  105  1  0.73662100  0.98597100  0.84604000  1
  C  106  1  0.72231200  0.95618300  0.85531000  1
  C  107  1  0.71007500  0.01160400  0.83936600  1
  C  108  1  0.66796600  0.00742400  0.84245500  1
  C  109  1  0.65186900  0.97816300  0.85242200  1
  C  110  1  0.67956900  0.95213500  0.85837800  1
  C  111  1  0.83553800  0.95318000  0.86001900  1
  C  112  1  0.86334100  0.97952100  0.85465800  1
  C  113  1  0.84730400  0.00854200  0.84432600  1
  C  114  1  0.80541100  0.01209400  0.84024400  1
  C  127  1  0.75763700  0.93424400  0.86144600  1
  C  128  1  0.60970400  0.97565400  0.85551600  1
  C  129  1  0.90500800  0.97785200  0.85988600  1
  C  130  1  0.75683900  0.94509900  0.94423900  1
  C  131  1  0.76080900  0.84820300  0.79905700  1
  C  136  1  0.75789900  0.92327500  0.12998700  1
  C  137  1  0.75853300  0.88828900  0.12860300  1
  C  138  1  0.75808000  0.87470900  0.14926600  1
  C  139  1  0.75694700  0.90054100  0.16459700  1
  C  140  1  0.75588000  0.89183800  0.18695800  1
  C  141  1  0.75611100  0.85755700  0.19377500  1
  C  142  1  0.75729600  0.83251900  0.17738700  1
  C  143  1  0.75832600  0.84079600  0.15531000  1
  C  144  1  0.75919900  0.87162100  0.10858400  1
  C  145  1  0.75910200  0.89065500  0.08948100  1
  C  146  1  0.75833900  0.92631300  0.08990200  1
  C  147  1  0.75783900  0.94236700  0.11057400  1
  C  148  1  0.72180400  0.95615100  0.15879100  1
  C  149  1  0.73598200  0.98587500  0.16818700  1
  C  150  1  0.77824500  0.98566700  0.16856300  1
  C  151  1  0.79254200  0.95580700  0.15938900  1
  C  152  1  0.80479300  0.01138600  0.17509500  1
  C  153  1  0.84690700  0.00715800  0.17203500  1
  C  154  1  0.86299900  0.97778700  0.16220500  1
  C  155  1  0.83528100  0.95172900  0.15632500  1
  C  156  1  0.67930300  0.95283000  0.15464700  1
  C  157  1  0.65150500  0.97919100  0.15996300  1
  C  158  1  0.66755900  0.00827600  0.17021500  1
  C  159  1  0.70946100  0.01185600  0.17427000  1
  C  172  1  0.75719900  0.93387800  0.15325600  1
  C  173  1  0.90517300  0.97520000  0.15915500  1
  C  174  1  0.60982000  0.97747100  0.15477800  1
  C  175  1  0.75802200  0.94465300  0.07048000  1
  C  176  1  0.75400700  0.84800700  0.21571200  1
  C  181  1  0.75784500  0.62628300  0.63009000  1
  C  182  1  0.75821700  0.66126900  0.62864800  1
  C  183  1  0.75780800  0.67495000  0.64927300  1
  C  184  1  0.75700900  0.64917000  0.66464300  1
  C  185  1  0.75623000  0.65800600  0.68697800  1
  C  186  1  0.75632600  0.69233200  0.69372800  1
  C  187  1  0.75717100  0.71730200  0.67730500  1
  C  188  1  0.75792600  0.70890300  0.65524400  1
  C  189  1  0.75868800  0.67788500  0.60861300  1
  C  190  1  0.75869100  0.65879000  0.58954400  1
  C  191  1  0.75820000  0.62312500  0.59001700  1
  C  192  1  0.75785400  0.60712600  0.61070700  1
  C  193  1  0.79265900  0.59382900  0.65950100  1
  C  194  1  0.77835600  0.56401100  0.66873600  1
  C  195  1  0.73608700  0.56383100  0.66844700  1
  C  196  1  0.72187000  0.59349300  0.65898500  1
  C  197  1  0.70961100  0.53782100  0.67454300  1
  C  198  1  0.66770300  0.54131000  0.67048000  1
  C  199  1  0.65159600  0.57029500  0.66014100  1
  C  200  1  0.67935300  0.59669600  0.65480500  1
  C  201  1  0.83541700  0.59781400  0.65639500  1
  C  202  1  0.86312400  0.57175600  0.66232200  1
  C  203  1  0.84699900  0.54250800  0.67228400  1
  C  204  1  0.80488800  0.53835500  0.67538800  1
  C  217  1  0.75727600  0.61575300  0.65337500  1
  C  218  1  0.60990500  0.57185400  0.65490400  1
  C  219  1  0.90532200  0.57420000  0.65922800  1
  C  220  1  0.75799100  0.60474700  0.57061700  1
  C  221  1  0.75470900  0.70184700  0.71567500  1
  C  226  1  0.75705700  0.62670200  0.38497000  1
  C  227  1  0.75676200  0.66169000  0.38639200  1
  C  228  1  0.75721800  0.67532800  0.36575200  1
  C  229  1  0.75797500  0.64951100  0.35040800  1
  C  230  1  0.75875800  0.65827900  0.32806300  1
  C  231  1  0.75870400  0.69258500  0.32127700  1
  C  232  1  0.75792900  0.71760300  0.33767000  1
  C  233  1  0.75716700  0.70926400  0.35974400  1
  C  234  1  0.75629200  0.67833100  0.40641900  1
  C  235  1  0.75623300  0.65925900  0.42549900  1
  C  236  1  0.75665300  0.62359600  0.42504200  1
  C  237  1  0.75698200  0.60757200  0.40436400  1
  C  238  1  0.72224600  0.59421500  0.35557200  1
  C  239  1  0.73653100  0.56437500  0.34635400  1
  C  240  1  0.77879600  0.56414900  0.34669100  1
  C  241  1  0.79302300  0.59380400  0.35615700  1
  C  242  1  0.80526100  0.53812400  0.34061300  1
  C  243  1  0.84717600  0.54162600  0.34466400  1
  C  244  1  0.86331300  0.57066600  0.35492800  1
  C  245  1  0.83555800  0.59706000  0.36026700  1
  C  246  1  0.67948800  0.59824800  0.35865300  1
  C  247  1  0.65176100  0.57218000  0.35276900  1
  C  248  1  0.66787100  0.54286900  0.34287400  1
  C  249  1  0.70997800  0.53868500  0.33978000  1
  C  262  1  0.75764300  0.61612200  0.36170000  1
  C  263  1  0.90503500  0.57228500  0.36009100  1
  C  264  1  0.60955900  0.57467600  0.35584900  1
  C  265  1  0.75682000  0.60521800  0.44443900  1
  C  266  1  0.76026400  0.70202000  0.29931800  1
  C  271  1  0.25783200  0.42325300  0.38479200  1
  C  272  1  0.25878500  0.38827400  0.38623500  1
  C  273  1  0.25899200  0.37459900  0.36560600  1
  C  274  1  0.25822300  0.40037800  0.35023600  1
  C  275  1  0.25758700  0.39154300  0.32789900  1
  C  276  1  0.25781800  0.35721600  0.32114800  1
  C  277  1  0.25884600  0.33225100  0.33756900  1
  C  278  1  0.25944100  0.34064800  0.35963400  1
  C  279  1  0.25929100  0.37165900  0.40627000  1
  C  280  1  0.25889500  0.39075100  0.42533900  1
  C  281  1  0.25797300  0.42640900  0.42486600  1
  C  282  1  0.25747600  0.44240500  0.40417600  1
  C  283  1  0.29304100  0.45610600  0.35578100  1
  C  284  1  0.27868200  0.48575500  0.34637700  1
  C  285  1  0.23641200  0.48548700  0.34620700  1
  C  286  1  0.22224900  0.45565700  0.35550000  1
  C  287  1  0.20978200  0.51111400  0.33962100  1
  C  288  1  0.16771600  0.50692000  0.34284000  1
  C  289  1  0.15172200  0.47767400  0.35286800  1
  C  290  1  0.17952700  0.45164200  0.35873200  1
  C  291  1  0.33560700  0.45292000  0.35982600  1
  C  292  1  0.36326400  0.47935900  0.35445000  1
  C  293  1  0.34701900  0.50834900  0.34417900  1
  C  294  1  0.30507300  0.51177300  0.34018400  1
  C  307  1  0.25776700  0.43378800  0.36150700  1
  C  308  1  0.10954100  0.47521800  0.35605600  1
  C  309  1  0.40499100  0.47780700  0.35959800  1
  C  310  1  0.25763400  0.44478900  0.44426400  1
  C  311  1  0.25600700  0.34770600  0.29920400  1
  C  316  1  0.25704600  0.42283200  0.62990600  1
  C  317  1  0.25607700  0.38785100  0.62848900  1
  C  318  1  0.25587000  0.37422300  0.64913000  1
  C  319  1  0.25665800  0.40004000  0.66447600  1
  C  320  1  0.25733500  0.39127000  0.68682100  1
  C  321  1  0.25711800  0.35696000  0.69360900  1
  C  322  1  0.25607800  0.33195000  0.67721600  1
  C  323  1  0.25544800  0.34029000  0.65514200  1
  C  324  1  0.25555300  0.37121300  0.60846000  1
  C  325  1  0.25594500  0.39028000  0.58937800  1
  C  326  1  0.25688400  0.42593700  0.58983600  1
  C  327  1  0.25739900  0.44195900  0.61051400  1
  C  328  1  0.22187100  0.45577000  0.65887500  1
  C  329  1  0.23625600  0.48546200  0.66821100  1
  C  330  1  0.27852600  0.48517600  0.66838300  1
  C  331  1  0.29266400  0.45530600  0.65913600  1
  C  332  1  0.30517900  0.51080300  0.67493900  1
  C  333  1  0.34724800  0.50655200  0.67176400  1
  C  334  1  0.36322400  0.47723100  0.66181700  1
  C  335  1  0.33539300  0.45119800  0.65598700  1
  C  336  1  0.17929700  0.45255400  0.65486800  1
  C  337  1  0.15163500  0.47898500  0.66024900  1
  C  338  1  0.16791100  0.50803800  0.67043600  1
  C  339  1  0.20988000  0.51152000  0.67434900  1
  C  352  1  0.25713100  0.43342200  0.65317600  1
  C  353  1  0.40541300  0.47469700  0.65867900  1
  C  354  1  0.10987700  0.47737100  0.65518100  1
  C  355  1  0.25722300  0.44431300  0.57043900  1
  C  356  1  0.25894800  0.34752100  0.71556300  1
  C  361  1  0.25738100  0.11610100  0.03076300  1
  C  362  1  0.25741600  0.08558800  0.01904800  1
  C  363  1  0.25753700  0.08570500  0.99588000  1
  C  364  1  0.25762000  0.11633200  0.98428800  1
  C  365  1  0.25759300  0.14650600  0.99620100  1
  C  366  1  0.25745100  0.14639300  0.01897600  1
  C  368  1  0.25748900  0.02585100  0.99584400  1
  C  369  1  0.25736100  0.02573400  0.01883200  1
  C  373  1  0.25752200  0.99535300  0.98436600  1
  C  374  1  0.25743300  0.96480100  0.99578800  1
  C  375  1  0.25731300  0.96468300  0.01861700  1
  C  376  1  0.25727600  0.99511200  0.03017300  1
  C  383  1  0.75723600  0.93344700  0.98412200  1
  C  384  1  0.75734100  0.96396100  0.99583600  1
  C  385  1  0.75753400  0.96384600  0.01900400  1
  C  386  1  0.75762100  0.93322400  0.03060000  1
  C  387  1  0.75751300  0.90304800  0.01868900  1
  C  388  1  0.75731700  0.90315500  0.99591200  1
  C  390  1  0.75755400  0.02370000  0.01903600  1
  C  391  1  0.75736500  0.02381300  0.99604700  1
  C  395  1  0.75766000  0.05420200  0.03051100  1
  C  396  1  0.75757500  0.08475100  0.01908700  1
  C  397  1  0.75738600  0.08486500  0.99625800  1
  C  398  1  0.75728000  0.05443300  0.98470400  1
  C  405  1  0.75759400  0.61643000  0.53075100  1
  C  406  1  0.75750100  0.58591300  0.51904600  1
  C  407  1  0.75731100  0.58603300  0.49588200  1
  C  408  1  0.75722100  0.61666600  0.48430100  1
  C  409  1  0.75731700  0.64684700  0.49620300  1
  C  410  1  0.75750100  0.64673100  0.51897600  1
  C  412  1  0.75731800  0.52618300  0.49584200  1
  C  413  1  0.75750400  0.52606500  0.51883000  1
  C  417  1  0.75722800  0.49568600  0.48436300  1
  C  418  1  0.75732400  0.46513700  0.49578500  1
  C  419  1  0.75750800  0.46501600  0.51861500  1
  C  420  1  0.75759800  0.49544500  0.53017100  1
  C  427  1  0.25750300  0.43310600  0.48413000  1
  C  428  1  0.25747900  0.46362000  0.49583500  1
  C  429  1  0.25738800  0.46350000  0.51899700  1
  C  430  1  0.25732500  0.43286800  0.53057800  1
  C  431  1  0.25734000  0.40268400  0.51867600  1
  C  432  1  0.25744400  0.40280200  0.49590200  1
  C  434  1  0.25742600  0.52334800  0.51903900  1
  C  435  1  0.25752400  0.52346800  0.49605100  1
  C  439  1  0.25740300  0.55384500  0.53051800  1
  C  440  1  0.25747200  0.58439700  0.51909800  1
  C  441  1  0.25756400  0.58451700  0.49626800  1
  C  442  1  0.25759000  0.55408800  0.48471000  1
  C  449  1  0.96590500  0.01011500  0.15411900  1
  C  450  1  0.97650300  0.03988300  0.14297100  1
  C  451  1  0.01719700  0.05266000  0.14367000  1
  C  452  1  0.04757800  0.03605500  0.15596900  1
  C  453  1  0.03677400  0.00611100  0.16677900  1
  C  454  1  0.99660900  0.99343000  0.16603800  1
  C  456  1  0.99737100  0.09784300  0.12046600  1
  C  457  1  0.95681300  0.08534700  0.11994000  1
  C  461  1  0.00756700  0.12701800  0.10881700  1
  C  462  1  0.97737300  0.14365200  0.09661600  1
  C  463  1  0.93706600  0.13125100  0.09609400  1
  C  464  1  0.92671000  0.10212700  0.10775800  1
  C  471  1  0.54907100  0.01062100  0.86062300  1
  C  472  1  0.53851000  0.04033700  0.87183900  1
  C  473  1  0.49781300  0.05311600  0.87119700  1
  C  474  1  0.46740200  0.03657200  0.85888600  1
  C  475  1  0.47818100  0.00669700  0.84799000  1
  C  476  1  0.51833400  0.99399200  0.84869500  1
  C  478  1  0.51769000  0.09817300  0.89448900  1
  C  479  1  0.55825200  0.08568100  0.89495700  1
  C  483  1  0.50752000  0.12727900  0.90621600  1
  C  484  1  0.53773800  0.14385000  0.91843500  1
  C  485  1  0.57804600  0.13145200  0.91890000  1
  C  486  1  0.58838200  0.10239700  0.90715900  1
  C  493  1  0.04885200  0.03961300  0.86119200  1
  C  494  1  0.03841400  0.00972800  0.87225900  1
  C  495  1  0.99779800  0.99678600  0.87151800  1
  C  496  1  0.96733300  0.01332100  0.85924500  1
  C  497  1  0.97798800  0.04333600  0.84847200  1
  C  498  1  0.01808100  0.05617100  0.84925000  1
  C  500  1  0.01785300  0.95155600  0.89462000  1
  C  501  1  0.05833700  0.96420700  0.89519100  1
  C  505  1  0.00780800  0.92228300  0.90620100  1
  C  506  1  0.03807800  0.90570200  0.91837800  1
  C  507  1  0.07831100  0.91825500  0.91894400  1
  C  508  1  0.08852100  0.94747800  0.90734500  1
  C  515  1  0.46588000  0.03907600  0.15375300  1
  C  516  1  0.47629100  0.00925100  0.14261400  1
  C  517  1  0.51692200  0.99633500  0.14329700  1
  C  518  1  0.54741100  0.01283900  0.15557400  1
  C  519  1  0.53677300  0.04281000  0.16640300  1
  C  520  1  0.49667900  0.05564600  0.16566500  1
  C  522  1  0.49684300  0.95119800  0.12012400  1
  C  523  1  0.45634800  0.96382600  0.11961000  1
  C  527  1  0.50688400  0.92198700  0.10847700  1
  C  528  1  0.47659300  0.90544100  0.09629300  1
  C  529  1  0.43634800  0.91796900  0.09578500  1
  C  530  1  0.42614500  0.94713200  0.10744500  1
  C  537  1  0.46607300  0.50989800  0.65372900  1
  C  538  1  0.47644400  0.53979300  0.64265500  1
  C  539  1  0.51703800  0.55279700  0.64338100  1
  C  540  1  0.54757900  0.53631400  0.65563300  1
  C  541  1  0.53699700  0.50626100  0.66638700  1
  C  542  1  0.49693100  0.49334500  0.66561400  1
  C  544  1  0.49684500  0.59800500  0.62029400  1
  C  545  1  0.45638800  0.58529200  0.61973800  1
  C  549  1  0.50680900  0.62729600  0.60871500  1
  C  550  1  0.47648600  0.64383600  0.59655200  1
  C  551  1  0.43628000  0.63122300  0.59600100  1
  C  552  1  0.42615000  0.60198000  0.60759800  1
  C  559  1  0.04893100  0.51042400  0.36105000  1
  C  560  1  0.03857800  0.54027200  0.37217900  1
  C  561  1  0.99797000  0.55325600  0.37151300  1
  C  562  1  0.96740300  0.53680300  0.35925900  1
  C  563  1  0.97798000  0.50680800  0.34843700  1
  C  564  1  0.01804500  0.49389100  0.34917100  1
  C  566  1  0.01819700  0.59837100  0.39466600  1
  C  567  1  0.05866700  0.58568300  0.39516100  1
  C  571  1  0.00824300  0.62759900  0.40631700  1
  C  572  1  0.03858900  0.64409900  0.41848600  1
  C  573  1  0.07880800  0.63151200  0.41897500  1
  C  574  1  0.08892700  0.60233100  0.40731000  1
  C  581  1  0.54886900  0.53959800  0.36079700  1
  C  582  1  0.53840600  0.50974500  0.37189800  1
  C  583  1  0.49778100  0.49680700  0.37117500  1
  C  584  1  0.46729900  0.51329700  0.35888300  1
  C  585  1  0.47798500  0.54327700  0.34807400  1
  C  586  1  0.51808700  0.55611300  0.34883700  1
  C  588  1  0.51782900  0.45166700  0.39435700  1
  C  589  1  0.55831300  0.46431700  0.39490900  1
  C  593  1  0.50777800  0.42244100  0.40598600  1
  C  594  1  0.53804400  0.40590500  0.41819300  1
  C  595  1  0.57827700  0.41845800  0.41874000  1
  C  596  1  0.58849200  0.44763400  0.40709600  1
  C  603  1  0.96594800  0.53906400  0.65424300  1
  C  604  1  0.97637200  0.50927900  0.64306000  1
  C  605  1  0.01700900  0.49635800  0.64371800  1
  C  606  1  0.04752100  0.51280100  0.65602100  1
  C  607  1  0.03686800  0.54274100  0.66688700  1
  C  608  1  0.99676800  0.55558400  0.66617200  1
  C  610  1  0.99691900  0.45133600  0.62045100  1
  C  611  1  0.95642400  0.46396900  0.61996200  1
  C  615  1  0.00695500  0.42218000  0.60874400  1
  C  616  1  0.97666300  0.40569700  0.59652500  1
  C  617  1  0.93641900  0.41823500  0.59604000  1
  C  618  1  0.92622100  0.44734300  0.60776000  1
  C  625  1  0.25367000  0.25161700  0.23934700  1
  C  626  1  0.23647500  0.28412100  0.23775300  1
  C  627  1  0.23789200  0.30697300  0.25554500  1
  C  628  1  0.25719800  0.29782900  0.27522100  1
  C  629  1  0.27377300  0.26514900  0.27670700  1
  C  630  1  0.27237000  0.24252300  0.25911800  1
  C  632  1  0.20055000  0.34720000  0.23467700  1
  C  633  1  0.19948600  0.32466400  0.21692900  1
  C  637  1  0.18194600  0.37891300  0.23293600  1
  C  638  1  0.16227700  0.38810900  0.21352700  1
  C  639  1  0.16122800  0.36572100  0.19588200  1
  C  640  1  0.17981900  0.33399100  0.19754400  1
  C  647  1  0.26122900  0.25167700  0.77557000  1
  C  648  1  0.27842700  0.28418600  0.77711500  1
  C  649  1  0.27703000  0.30696800  0.75928500  1
  C  650  1  0.25774500  0.29774200  0.73962000  1
  C  651  1  0.24116200  0.26505700  0.73818200  1
  C  652  1  0.24255300  0.24250000  0.75580900  1
  C  654  1  0.31434500  0.34727800  0.78010300  1
  C  655  1  0.31538400  0.32481200  0.79788700  1
  C  659  1  0.33295000  0.37899800  0.78180000  1
  C  660  1  0.35259000  0.38826900  0.80120300  1
  C  661  1  0.35361600  0.36594900  0.81888300  1
  C  662  1  0.33502400  0.33421100  0.81726600  1
  C  669  1  0.75418200  0.79797200  0.77554100  1
  C  670  1  0.73670200  0.76557500  0.77720000  1
  C  671  1  0.73767000  0.74270600  0.75940900  1
  C  672  1  0.75678700  0.75172200  0.73965700  1
  C  673  1  0.77370700  0.78427900  0.73811600  1
  C  674  1  0.77276100  0.80691800  0.75570800  1
  C  676  1  0.70023600  0.70271900  0.78042600  1
  C  677  1  0.69961300  0.72527000  0.79817200  1
  C  681  1  0.68136500  0.67112200  0.78224300  1
  C  682  1  0.66187200  0.66205600  0.80172700  1
  C  683  1  0.66125600  0.68445900  0.81936800  1
  C  684  1  0.68011700  0.71607400  0.81763100  1
  C  691  1  0.76065400  0.79786900  0.23929200  1
  C  692  1  0.77815800  0.76547700  0.23768000  1
  C  693  1  0.77721800  0.74268300  0.25551100  1
  C  694  1  0.75808100  0.75176400  0.27524700  1
  C  695  1  0.74120900  0.78434200  0.27674900  1
  C  696  1  0.74213700  0.80691000  0.25912100  1
  C  698  1  0.81466100  0.70262900  0.23455400  1
  C  699  1  0.81525500  0.72510800  0.21677000  1
  C  703  1  0.83354100  0.67103200  0.23278400  1
  C  704  1  0.85301800  0.66189300  0.21330800  1
  C  705  1  0.85360600  0.68422600  0.19562800  1
  C  706  1  0.83473500  0.71584100  0.19732000  1
  C  713  1  0.25686700  0.57703400  0.13015700  1
  C  714  1  0.25556900  0.61200600  0.12875500  1
  C  715  1  0.25534000  0.62561700  0.14941000  1
  C  716  1  0.25651100  0.59981900  0.16476400  1
  C  717  1  0.25744200  0.60858100  0.18711900  1
  C  718  1  0.25703100  0.64287900  0.19390500  1
  C  719  1  0.25561700  0.66787000  0.17749400  1
  C  720  1  0.25472300  0.65954000  0.15542400  1
  C  721  1  0.25485500  0.62865100  0.10873000  1
  C  722  1  0.25541000  0.60960600  0.08963700  1
  C  723  1  0.25669400  0.57395500  0.09007000  1
  C  724  1  0.25736200  0.55792600  0.11075000  1
  C  725  1  0.29256500  0.54461500  0.15941300  1
  C  726  1  0.27846300  0.51477500  0.16872100  1
  C  727  1  0.23619500  0.51446000  0.16853300  1
  C  728  1  0.22182600  0.54412700  0.15916200  1
  C  729  1  0.20980600  0.48839700  0.17465000  1
  C  730  1  0.16785300  0.49186600  0.17067500  1
  C  731  1  0.15162800  0.52091300  0.16045900  1
  C  732  1  0.17928800  0.54733700  0.15509400  1
  C  733  1  0.33526000  0.54873700  0.15619600  1
  C  734  1  0.36310100  0.52272900  0.16202500  1
  C  735  1  0.34719600  0.49341700  0.17201700  1
  C  736  1  0.30514200  0.48915500  0.17525300  1
  C  749  1  0.25704500  0.56646400  0.15343700  1
  C  750  1  0.10991600  0.52257800  0.15534600  1
  C  751  1  0.40524500  0.52530500  0.15882700  1
  C  752  1  0.25719800  0.55561600  0.07064700  1
  C  753  1  0.25939000  0.65249300  0.21582700  1
  C  758  1  0.25802500  0.57743100  0.88490300  1
  C  759  1  0.25933300  0.61240500  0.88627900  1
  C  760  1  0.25951700  0.62596900  0.86560900  1
  C  761  1  0.25834800  0.60013400  0.85028200  1
  C  762  1  0.25741100  0.60883100  0.82791800  1
  C  763  1  0.25781900  0.64310900  0.82109400  1
  C  764  1  0.25925900  0.66814600  0.83747800  1
  C  765  1  0.26014500  0.65987600  0.85955800  1
  C  766  1  0.26006300  0.62907800  0.90629700  1
  C  767  1  0.25953300  0.61005800  0.92540300  1
  C  768  1  0.25825700  0.57440800  0.92498600  1
  C  769  1  0.25757000  0.55835000  0.90431800  1
  C  770  1  0.22230200  0.54493800  0.85570400  1
  C  771  1  0.23640500  0.51501300  0.84651500  1
  C  772  1  0.27866900  0.51472700  0.84665300  1
  C  773  1  0.29305100  0.54446400  0.85592800  1
  C  774  1  0.30506300  0.48865900  0.84055600  1
  C  775  1  0.34702800  0.49218200  0.84447300  1
  C  776  1  0.36326900  0.52130500  0.85459500  1
  C  777  1  0.33560600  0.54774300  0.85992300  1
  C  778  1  0.17959700  0.54912300  0.85884700  1
  C  779  1  0.15173900  0.52312200  0.85302300  1
  C  780  1  0.16765100  0.49374800  0.84310800  1
  C  781  1  0.20971500  0.48941200  0.83996200  1
  C  794  1  0.25783000  0.56680700  0.86163600  1
  C  795  1  0.40500000  0.52302300  0.85966400  1
  C  796  1  0.10957800  0.52575600  0.85613500  1
  C  797  1  0.25776900  0.55607500  0.94440900  1
  C  798  1  0.25548100  0.65264900  0.79916100  1
  C  803  1  0.75693600  0.37485700  0.88472500  1
  C  804  1  0.75625300  0.33987100  0.88612700  1
  C  805  1  0.75669200  0.32625500  0.86547400  1
  C  806  1  0.75786700  0.35205500  0.85012300  1
  C  807  1  0.75894300  0.34329500  0.82776900  1
  C  808  1  0.75870300  0.30899300  0.82098400  1
  C  809  1  0.75748500  0.28399800  0.83739700  1
  C  810  1  0.75644000  0.29232700  0.85946400  1
  C  811  1  0.75557900  0.32322300  0.90615200  1
  C  812  1  0.75569600  0.34227500  0.92524600  1
  C  813  1  0.75650200  0.37793200  0.92481300  1
  C  814  1  0.75701900  0.39396600  0.90413300  1
  C  815  1  0.79303400  0.40768500  0.85589400  1
  C  816  1  0.77888000  0.43729400  0.84633400  1
  C  817  1  0.73662100  0.43714400  0.84604000  1
  C  818  1  0.72231200  0.40735600  0.85531000  1
  C  819  1  0.71007500  0.46277700  0.83936600  1
  C  820  1  0.66796600  0.45859700  0.84245500  1
  C  821  1  0.65186900  0.42933600  0.85242200  1
  C  822  1  0.67956900  0.40330800  0.85837800  1
  C  823  1  0.83553800  0.40435300  0.86001900  1
  C  824  1  0.86334100  0.43069400  0.85465800  1
  C  825  1  0.84730400  0.45971500  0.84432600  1
  C  826  1  0.80541100  0.46326700  0.84024400  1
  C  839  1  0.75763700  0.38541700  0.86144600  1
  C  840  1  0.60970400  0.42682700  0.85551600  1
  C  841  1  0.90500800  0.42902500  0.85988600  1
  C  842  1  0.75683900  0.39627200  0.94423900  1
  C  843  1  0.76080900  0.29937600  0.79905700  1
  C  848  1  0.75789900  0.37444800  0.12998700  1
  C  849  1  0.75853300  0.33946200  0.12860300  1
  C  850  1  0.75808000  0.32588200  0.14926600  1
  C  851  1  0.75694700  0.35171400  0.16459700  1
  C  852  1  0.75588000  0.34301100  0.18695800  1
  C  853  1  0.75611100  0.30873000  0.19377500  1
  C  854  1  0.75729600  0.28369200  0.17738700  1
  C  855  1  0.75832600  0.29196900  0.15531000  1
  C  856  1  0.75919900  0.32279400  0.10858400  1
  C  857  1  0.75910200  0.34182800  0.08948100  1
  C  858  1  0.75833900  0.37748600  0.08990200  1
  C  859  1  0.75783900  0.39354000  0.11057400  1
  C  860  1  0.72180400  0.40732400  0.15879100  1
  C  861  1  0.73598200  0.43704800  0.16818700  1
  C  862  1  0.77824500  0.43684000  0.16856300  1
  C  863  1  0.79254200  0.40698000  0.15938900  1
  C  864  1  0.80479300  0.46255900  0.17509500  1
  C  865  1  0.84690700  0.45833100  0.17203500  1
  C  866  1  0.86299900  0.42896000  0.16220500  1
  C  867  1  0.83528100  0.40290200  0.15632500  1
  C  868  1  0.67930300  0.40400300  0.15464700  1
  C  869  1  0.65150500  0.43036400  0.15996300  1
  C  870  1  0.66755900  0.45944900  0.17021500  1
  C  871  1  0.70946100  0.46302900  0.17427000  1
  C  884  1  0.75719900  0.38505100  0.15325600  1
  C  885  1  0.90517300  0.42637300  0.15915500  1
  C  886  1  0.60982000  0.42864400  0.15477800  1
  C  887  1  0.75802200  0.39582600  0.07048000  1
  C  888  1  0.75400700  0.29918000  0.21571200  1
  C  893  1  0.75784500  0.07745600  0.63009000  1
  C  894  1  0.75821700  0.11244200  0.62864800  1
  C  895  1  0.75780800  0.12612300  0.64927300  1
  C  896  1  0.75700900  0.10034300  0.66464300  1
  C  897  1  0.75623000  0.10917900  0.68697800  1
  C  898  1  0.75632600  0.14350500  0.69372800  1
  C  899  1  0.75717100  0.16847500  0.67730500  1
  C  900  1  0.75792600  0.16007600  0.65524400  1
  C  901  1  0.75868800  0.12905800  0.60861300  1
  C  902  1  0.75869100  0.10996300  0.58954400  1
  C  903  1  0.75820000  0.07429800  0.59001700  1
  C  904  1  0.75785400  0.05829900  0.61070700  1
  C  905  1  0.79265900  0.04500200  0.65950100  1
  C  906  1  0.77835600  0.01518400  0.66873600  1
  C  907  1  0.73608700  0.01500400  0.66844700  1
  C  908  1  0.72187000  0.04466600  0.65898500  1
  C  909  1  0.70961100  0.98899400  0.67454300  1
  C  910  1  0.66770300  0.99248300  0.67048000  1
  C  911  1  0.65159600  0.02146800  0.66014100  1
  C  912  1  0.67935300  0.04786900  0.65480500  1
  C  913  1  0.83541700  0.04898700  0.65639500  1
  C  914  1  0.86312400  0.02292900  0.66232200  1
  C  915  1  0.84699900  0.99368100  0.67228400  1
  C  916  1  0.80488800  0.98952800  0.67538800  1
  C  929  1  0.75727600  0.06692600  0.65337500  1
  C  930  1  0.60990500  0.02302700  0.65490400  1
  C  931  1  0.90532200  0.02537300  0.65922800  1
  C  932  1  0.75799100  0.05592000  0.57061700  1
  C  933  1  0.75470900  0.15302000  0.71567500  1
  C  938  1  0.75705700  0.07787500  0.38497000  1
  C  939  1  0.75676200  0.11286300  0.38639200  1
  C  940  1  0.75721800  0.12650100  0.36575200  1
  C  941  1  0.75797500  0.10068400  0.35040800  1
  C  942  1  0.75875800  0.10945200  0.32806300  1
  C  943  1  0.75870400  0.14375800  0.32127700  1
  C  944  1  0.75792900  0.16877600  0.33767000  1
  C  945  1  0.75716700  0.16043700  0.35974400  1
  C  946  1  0.75629200  0.12950400  0.40641900  1
  C  947  1  0.75623300  0.11043200  0.42549900  1
  C  948  1  0.75665300  0.07476900  0.42504200  1
  C  949  1  0.75698200  0.05874500  0.40436400  1
  C  950  1  0.72224600  0.04538800  0.35557200  1
  C  951  1  0.73653100  0.01554800  0.34635400  1
  C  952  1  0.77879600  0.01532200  0.34669100  1
  C  953  1  0.79302300  0.04497700  0.35615700  1
  C  954  1  0.80526100  0.98929700  0.34061300  1
  C  955  1  0.84717600  0.99279900  0.34466400  1
  C  956  1  0.86331300  0.02183900  0.35492800  1
  C  957  1  0.83555800  0.04823300  0.36026700  1
  C  958  1  0.67948800  0.04942100  0.35865300  1
  C  959  1  0.65176100  0.02335300  0.35276900  1
  C  960  1  0.66787100  0.99404200  0.34287400  1
  C  961  1  0.70997800  0.98985800  0.33978000  1
  C  974  1  0.75764300  0.06729500  0.36170000  1
  C  975  1  0.90503500  0.02345800  0.36009100  1
  C  976  1  0.60955900  0.02584900  0.35584900  1
  C  977  1  0.75682000  0.05639100  0.44443900  1
  C  978  1  0.76026400  0.15319300  0.29931800  1
  C  983  1  0.25783200  0.87442600  0.38479200  1
  C  984  1  0.25878500  0.83944700  0.38623500  1
  C  985  1  0.25899200  0.82577200  0.36560600  1
  C  986  1  0.25822300  0.85155100  0.35023600  1
  C  987  1  0.25758700  0.84271600  0.32789900  1
  C  988  1  0.25781800  0.80838900  0.32114800  1
  C  989  1  0.25884600  0.78342400  0.33756900  1
  C  990  1  0.25944100  0.79182100  0.35963400  1
  C  991  1  0.25929100  0.82283200  0.40627000  1
  C  992  1  0.25889500  0.84192400  0.42533900  1
  C  993  1  0.25797300  0.87758200  0.42486600  1
  C  994  1  0.25747600  0.89357800  0.40417600  1
  C  995  1  0.29304100  0.90727900  0.35578100  1
  C  996  1  0.27868200  0.93692800  0.34637700  1
  C  997  1  0.23641200  0.93666000  0.34620700  1
  C  998  1  0.22224900  0.90683000  0.35550000  1
  C  999  1  0.20978200  0.96228700  0.33962100  1
  C  1000  1  0.16771600  0.95809300  0.34284000  1
  C  1001  1  0.15172200  0.92884700  0.35286800  1
  C  1002  1  0.17952700  0.90281500  0.35873200  1
  C  1003  1  0.33560700  0.90409300  0.35982600  1
  C  1004  1  0.36326400  0.93053200  0.35445000  1
  C  1005  1  0.34701900  0.95952200  0.34417900  1
  C  1006  1  0.30507300  0.96294600  0.34018400  1
  C  1019  1  0.25776700  0.88496100  0.36150700  1
  C  1020  1  0.10954100  0.92639100  0.35605600  1
  C  1021  1  0.40499100  0.92898000  0.35959800  1
  C  1022  1  0.25763400  0.89596200  0.44426400  1
  C  1023  1  0.25600700  0.79887900  0.29920400  1
  C  1028  1  0.25704600  0.87400500  0.62990600  1
  C  1029  1  0.25607700  0.83902400  0.62848900  1
  C  1030  1  0.25587000  0.82539600  0.64913000  1
  C  1031  1  0.25665800  0.85121300  0.66447600  1
  C  1032  1  0.25733500  0.84244300  0.68682100  1
  C  1033  1  0.25711800  0.80813300  0.69360900  1
  C  1034  1  0.25607800  0.78312300  0.67721600  1
  C  1035  1  0.25544800  0.79146300  0.65514200  1
  C  1036  1  0.25555300  0.82238600  0.60846000  1
  C  1037  1  0.25594500  0.84145300  0.58937800  1
  C  1038  1  0.25688400  0.87711000  0.58983600  1
  C  1039  1  0.25739900  0.89313200  0.61051400  1
  C  1040  1  0.22187100  0.90694300  0.65887500  1
  C  1041  1  0.23625600  0.93663500  0.66821100  1
  C  1042  1  0.27852600  0.93634900  0.66838300  1
  C  1043  1  0.29266400  0.90647900  0.65913600  1
  C  1044  1  0.30517900  0.96197600  0.67493900  1
  C  1045  1  0.34724800  0.95772500  0.67176400  1
  C  1046  1  0.36322400  0.92840400  0.66181700  1
  C  1047  1  0.33539300  0.90237100  0.65598700  1
  C  1048  1  0.17929700  0.90372700  0.65486800  1
  C  1049  1  0.15163500  0.93015800  0.66024900  1
  C  1050  1  0.16791100  0.95921100  0.67043600  1
  C  1051  1  0.20988000  0.96269300  0.67434900  1
  C  1064  1  0.25713100  0.88459500  0.65317600  1
  C  1065  1  0.40541300  0.92587000  0.65867900  1
  C  1066  1  0.10987700  0.92854400  0.65518100  1
  C  1067  1  0.25722300  0.89548600  0.57043900  1
  C  1068  1  0.25894800  0.79869400  0.71556300  1
  C  1073  1  0.25738100  0.56727400  0.03076300  1
  C  1074  1  0.25741600  0.53676100  0.01904800  1
  C  1075  1  0.25753700  0.53687800  0.99588000  1
  C  1076  1  0.25762000  0.56750500  0.98428800  1
  C  1077  1  0.25759300  0.59767900  0.99620100  1
  C  1078  1  0.25745100  0.59756600  0.01897600  1
  C  1080  1  0.25748900  0.47702400  0.99584400  1
  C  1081  1  0.25736100  0.47690700  0.01883200  1
  C  1085  1  0.25752200  0.44652600  0.98436600  1
  C  1086  1  0.25743300  0.41597400  0.99578800  1
  C  1087  1  0.25731300  0.41585600  0.01861700  1
  C  1088  1  0.25727600  0.44628500  0.03017300  1
  C  1095  1  0.75723600  0.38462000  0.98412200  1
  C  1096  1  0.75734100  0.41513400  0.99583600  1
  C  1097  1  0.75753400  0.41501900  0.01900400  1
  C  1098  1  0.75762100  0.38439700  0.03060000  1
  C  1099  1  0.75751300  0.35422100  0.01868900  1
  C  1100  1  0.75731700  0.35432800  0.99591200  1
  C  1102  1  0.75755400  0.47487300  0.01903600  1
  C  1103  1  0.75736500  0.47498600  0.99604700  1
  C  1107  1  0.75766000  0.50537500  0.03051100  1
  C  1108  1  0.75757500  0.53592400  0.01908700  1
  C  1109  1  0.75738600  0.53603800  0.99625800  1
  C  1110  1  0.75728000  0.50560600  0.98470400  1
  C  1117  1  0.75759400  0.06760300  0.53075100  1
  C  1118  1  0.75750100  0.03708600  0.51904600  1
  C  1119  1  0.75731100  0.03720600  0.49588200  1
  C  1120  1  0.75722100  0.06783900  0.48430100  1
  C  1121  1  0.75731700  0.09802000  0.49620300  1
  C  1122  1  0.75750100  0.09790400  0.51897600  1
  C  1124  1  0.75731800  0.97735600  0.49584200  1
  C  1125  1  0.75750400  0.97723800  0.51883000  1
  C  1129  1  0.75722800  0.94685900  0.48436300  1
  C  1130  1  0.75732400  0.91631000  0.49578500  1
  C  1131  1  0.75750800  0.91618900  0.51861500  1
  C  1132  1  0.75759800  0.94661800  0.53017100  1
  C  1139  1  0.25750300  0.88427900  0.48413000  1
  C  1140  1  0.25747900  0.91479300  0.49583500  1
  C  1141  1  0.25738800  0.91467300  0.51899700  1
  C  1142  1  0.25732500  0.88404100  0.53057800  1
  C  1143  1  0.25734000  0.85385700  0.51867600  1
  C  1144  1  0.25744400  0.85397500  0.49590200  1
  C  1146  1  0.25742600  0.97452100  0.51903900  1
  C  1147  1  0.25752400  0.97464100  0.49605100  1
  C  1151  1  0.25740300  0.00501805  0.53051800  1
  C  1152  1  0.25747200  0.03557000  0.51909800  1
  C  1153  1  0.25756400  0.03569000  0.49626800  1
  C  1154  1  0.25759000  0.00526105  0.48471000  1
  C  1161  1  0.96590500  0.46128800  0.15411900  1
  C  1162  1  0.97650300  0.49105600  0.14297100  1
  C  1163  1  0.01719700  0.50383300  0.14367000  1
  C  1164  1  0.04757800  0.48722800  0.15596900  1
  C  1165  1  0.03677400  0.45728400  0.16677900  1
  C  1166  1  0.99660900  0.44460300  0.16603800  1
  C  1168  1  0.99737100  0.54901600  0.12046600  1
  C  1169  1  0.95681300  0.53652000  0.11994000  1
  C  1173  1  0.00756700  0.57819100  0.10881700  1
  C  1174  1  0.97737300  0.59482500  0.09661600  1
  C  1175  1  0.93706600  0.58242400  0.09609400  1
  C  1176  1  0.92671000  0.55330000  0.10775800  1
  C  1183  1  0.54907100  0.46179400  0.86062300  1
  C  1184  1  0.53851000  0.49151000  0.87183900  1
  C  1185  1  0.49781300  0.50428900  0.87119700  1
  C  1186  1  0.46740200  0.48774500  0.85888600  1
  C  1187  1  0.47818100  0.45787000  0.84799000  1
  C  1188  1  0.51833400  0.44516500  0.84869500  1
  C  1190  1  0.51769000  0.54934600  0.89448900  1
  C  1191  1  0.55825200  0.53685400  0.89495700  1
  C  1195  1  0.50752000  0.57845200  0.90621600  1
  C  1196  1  0.53773800  0.59502300  0.91843500  1
  C  1197  1  0.57804600  0.58262500  0.91890000  1
  C  1198  1  0.58838200  0.55357000  0.90715900  1
  C  1205  1  0.04885200  0.49078600  0.86119200  1
  C  1206  1  0.03841400  0.46090100  0.87225900  1
  C  1207  1  0.99779800  0.44795900  0.87151800  1
  C  1208  1  0.96733300  0.46449400  0.85924500  1
  C  1209  1  0.97798800  0.49450900  0.84847200  1
  C  1210  1  0.01808100  0.50734400  0.84925000  1
  C  1212  1  0.01785300  0.40272900  0.89462000  1
  C  1213  1  0.05833700  0.41538000  0.89519100  1
  C  1217  1  0.00780800  0.37345600  0.90620100  1
  C  1218  1  0.03807800  0.35687500  0.91837800  1
  C  1219  1  0.07831100  0.36942800  0.91894400  1
  C  1220  1  0.08852100  0.39865100  0.90734500  1
  C  1227  1  0.46588000  0.49024900  0.15375300  1
  C  1228  1  0.47629100  0.46042400  0.14261400  1
  C  1229  1  0.51692200  0.44750800  0.14329700  1
  C  1230  1  0.54741100  0.46401200  0.15557400  1
  C  1231  1  0.53677300  0.49398300  0.16640300  1
  C  1232  1  0.49667900  0.50681900  0.16566500  1
  C  1234  1  0.49684300  0.40237100  0.12012400  1
  C  1235  1  0.45634800  0.41499900  0.11961000  1
  C  1239  1  0.50688400  0.37316000  0.10847700  1
  C  1240  1  0.47659300  0.35661400  0.09629300  1
  C  1241  1  0.43634800  0.36914200  0.09578500  1
  C  1242  1  0.42614500  0.39830500  0.10744500  1
  C  1249  1  0.46607300  0.96107100  0.65372900  1
  C  1250  1  0.47644400  0.99096600  0.64265500  1
  C  1251  1  0.51703800  0.00397005  0.64338100  1
  C  1252  1  0.54757900  0.98748700  0.65563300  1
  C  1253  1  0.53699700  0.95743400  0.66638700  1
  C  1254  1  0.49693100  0.94451800  0.66561400  1
  C  1256  1  0.49684500  0.04917800  0.62029400  1
  C  1257  1  0.45638800  0.03646500  0.61973800  1
  C  1261  1  0.50680900  0.07846900  0.60871500  1
  C  1262  1  0.47648600  0.09500900  0.59655200  1
  C  1263  1  0.43628000  0.08239600  0.59600100  1
  C  1264  1  0.42615000  0.05315300  0.60759800  1
  C  1271  1  0.04893100  0.96159700  0.36105000  1
  C  1272  1  0.03857800  0.99144500  0.37217900  1
  C  1273  1  0.99797000  0.00442905  0.37151300  1
  C  1274  1  0.96740300  0.98797600  0.35925900  1
  C  1275  1  0.97798000  0.95798100  0.34843700  1
  C  1276  1  0.01804500  0.94506400  0.34917100  1
  C  1278  1  0.01819700  0.04954400  0.39466600  1
  C  1279  1  0.05866700  0.03685600  0.39516100  1
  C  1283  1  0.00824300  0.07877200  0.40631700  1
  C  1284  1  0.03858900  0.09527200  0.41848600  1
  C  1285  1  0.07880800  0.08268500  0.41897500  1
  C  1286  1  0.08892700  0.05350400  0.40731000  1
  C  1293  1  0.54886900  0.99077100  0.36079700  1
  C  1294  1  0.53840600  0.96091800  0.37189800  1
  C  1295  1  0.49778100  0.94798000  0.37117500  1
  C  1296  1  0.46729900  0.96447000  0.35888300  1
  C  1297  1  0.47798500  0.99445000  0.34807400  1
  C  1298  1  0.51808700  0.00728605  0.34883700  1
  C  1300  1  0.51782900  0.90284000  0.39435700  1
  C  1301  1  0.55831300  0.91549000  0.39490900  1
  C  1305  1  0.50777800  0.87361400  0.40598600  1
  C  1306  1  0.53804400  0.85707800  0.41819300  1
  C  1307  1  0.57827700  0.86963100  0.41874000  1
  C  1308  1  0.58849200  0.89880700  0.40709600  1
  C  1315  1  0.96594800  0.99023700  0.65424300  1
  C  1316  1  0.97637200  0.96045200  0.64306000  1
  C  1317  1  0.01700900  0.94753100  0.64371800  1
  C  1318  1  0.04752100  0.96397400  0.65602100  1
  C  1319  1  0.03686800  0.99391400  0.66688700  1
  C  1320  1  0.99676800  0.00675705  0.66617200  1
  C  1322  1  0.99691900  0.90250900  0.62045100  1
  C  1323  1  0.95642400  0.91514200  0.61996200  1
  C  1327  1  0.00695500  0.87335300  0.60874400  1
  C  1328  1  0.97666300  0.85687000  0.59652500  1
  C  1329  1  0.93641900  0.86940800  0.59604000  1
  C  1330  1  0.92622100  0.89851600  0.60776000  1
  C  1337  1  0.25367000  0.70279000  0.23934700  1
  C  1338  1  0.23647500  0.73529400  0.23775300  1
  C  1339  1  0.23789200  0.75814600  0.25554500  1
  C  1340  1  0.25719800  0.74900200  0.27522100  1
  C  1341  1  0.27377300  0.71632200  0.27670700  1
  C  1342  1  0.27237000  0.69369600  0.25911800  1
  C  1344  1  0.20055000  0.79837300  0.23467700  1
  C  1345  1  0.19948600  0.77583700  0.21692900  1
  C  1349  1  0.18194600  0.83008600  0.23293600  1
  C  1350  1  0.16227700  0.83928200  0.21352700  1
  C  1351  1  0.16122800  0.81689400  0.19588200  1
  C  1352  1  0.17981900  0.78516400  0.19754400  1
  C  1359  1  0.26122900  0.70285000  0.77557000  1
  C  1360  1  0.27842700  0.73535900  0.77711500  1
  C  1361  1  0.27703000  0.75814100  0.75928500  1
  C  1362  1  0.25774500  0.74891500  0.73962000  1
  C  1363  1  0.24116200  0.71623000  0.73818200  1
  C  1364  1  0.24255300  0.69367300  0.75580900  1
  C  1366  1  0.31434500  0.79845100  0.78010300  1
  C  1367  1  0.31538400  0.77598500  0.79788700  1
  C  1371  1  0.33295000  0.83017100  0.78180000  1
  C  1372  1  0.35259000  0.83944200  0.80120300  1
  C  1373  1  0.35361600  0.81712200  0.81888300  1
  C  1374  1  0.33502400  0.78538400  0.81726600  1
  C  1381  1  0.75418200  0.24914500  0.77554100  1
  C  1382  1  0.73670200  0.21674800  0.77720000  1
  C  1383  1  0.73767000  0.19387900  0.75940900  1
  C  1384  1  0.75678700  0.20289500  0.73965700  1
  C  1385  1  0.77370700  0.23545200  0.73811600  1
  C  1386  1  0.77276100  0.25809100  0.75570800  1
  C  1388  1  0.70023600  0.15389200  0.78042600  1
  C  1389  1  0.69961300  0.17644300  0.79817200  1
  C  1393  1  0.68136500  0.12229500  0.78224300  1
  C  1394  1  0.66187200  0.11322900  0.80172700  1
  C  1395  1  0.66125600  0.13563200  0.81936800  1
  C  1396  1  0.68011700  0.16724700  0.81763100  1
  C  1403  1  0.76065400  0.24904200  0.23929200  1
  C  1404  1  0.77815800  0.21665000  0.23768000  1
  C  1405  1  0.77721800  0.19385600  0.25551100  1
  C  1406  1  0.75808100  0.20293700  0.27524700  1
  C  1407  1  0.74120900  0.23551500  0.27674900  1
  C  1408  1  0.74213700  0.25808300  0.25912100  1
  C  1410  1  0.81466100  0.15380200  0.23455400  1
  C  1411  1  0.81525500  0.17628100  0.21677000  1
  C  1415  1  0.83354100  0.12220500  0.23278400  1
  C  1416  1  0.85301800  0.11306600  0.21330800  1
  C  1417  1  0.85360600  0.13539900  0.19562800  1
  C  1418  1  0.83473500  0.16701400  0.19732000  1
  N  367  1  0.25757300  0.05576500  0.98538200  1
  N  370  1  0.25732800  0.05554300  0.02942400  1
  N  381  1  0.25714200  0.11953000  0.05219900  1
  N  382  1  0.25784700  0.11997400  0.96286400  1
  N  389  1  0.75763300  0.99378900  0.02950000  1
  N  392  1  0.75726300  0.99400400  0.98545800  1
  N  403  1  0.75697300  0.93001300  0.96268500  1
  N  404  1  0.75787800  0.92958700  0.05202500  1
  N  411  1  0.75723100  0.55609800  0.48538100  1
  N  414  1  0.75758500  0.55587300  0.52942200  1
  N  425  1  0.75781400  0.61983400  0.55217500  1
  N  426  1  0.75701300  0.62028800  0.46288900  1
  N  433  1  0.25736200  0.49343500  0.52950000  1
  N  436  1  0.25754700  0.49366300  0.48545900  1
  N  447  1  0.25766700  0.42970000  0.46270600  1
  N  448  1  0.25716700  0.42924300  0.55198900  1
  N  455  1  0.02565000  0.08104300  0.13232700  1
  N  458  1  0.94815100  0.05700200  0.13119700  1
  N  469  1  0.92660800  0.00180400  0.15576600  1
  N  470  1  0.08622800  0.04595900  0.15823600  1
  N  477  1  0.48938200  0.08143400  0.88261100  1
  N  480  1  0.56688700  0.05739600  0.88363100  1
  N  491  1  0.58835600  0.00229800  0.85892600  1
  N  492  1  0.42873800  0.04646300  0.85668800  1
  N  499  1  0.98949300  0.96830700  0.88278800  1
  N  502  1  0.06684700  0.99265100  0.88400400  1
  N  513  1  0.08812300  0.04798500  0.85951600  1
  N  514  1  0.92875100  0.00325300  0.85694900  1
  N  521  1  0.52522400  0.96791400  0.13196600  1
  N  524  1  0.44784100  0.99221200  0.13086000  1
  N  535  1  0.42661300  0.04749500  0.15542300  1
  N  536  1  0.58601800  0.00280900  0.15780100  1
  N  543  1  0.52526100  0.58129400  0.63211200  1
  N  546  1  0.44795500  0.55683000  0.63092500  1
  N  557  1  0.42682100  0.50134800  0.65535800  1
  N  558  1  0.58616400  0.54645800  0.65790700  1
  N  565  1  0.98975600  0.58169500  0.38284200  1
  N  568  1  0.06709000  0.55727600  0.38391400  1
  N  579  1  0.08817800  0.50190500  0.35934000  1
  N  580  1  0.92879700  0.54691400  0.35704800  1
  N  587  1  0.48947400  0.46837500  0.38249500  1
  N  590  1  0.56683100  0.49271600  0.38367700  1
  N  601  1  0.58815500  0.54802700  0.35917000  1
  N  602  1  0.42867700  0.50324300  0.35662500  1
  N  609  1  0.02530200  0.46799200  0.63232700  1
  N  612  1  0.94792100  0.49230200  0.63126900  1
  N  623  1  0.92667300  0.54752300  0.65589900  1
  N  624  1  0.08616400  0.50277500  0.65820400  1
  N  631  1  0.21964800  0.33737000  0.25312900  1
  N  634  1  0.21737800  0.29419700  0.21925200  1
  N  645  1  0.25325800  0.23195500  0.22177000  1
  N  646  1  0.25849900  0.31673300  0.29317100  1
  N  653  1  0.29527100  0.33737500  0.76166000  1
  N  656  1  0.29749600  0.29433500  0.79560800  1
  N  667  1  0.26162300  0.23209000  0.79317900  1
  N  668  1  0.25644700  0.31657300  0.72163800  1
  N  675  1  0.71917900  0.71242500  0.76190300  1
  N  678  1  0.71775600  0.75562700  0.79577700  1
  N  689  1  0.75422200  0.81762600  0.79312200  1
  N  690  1  0.75771300  0.73278800  0.72171300  1
  N  697  1  0.79572500  0.71240000  0.25306400  1
  N  700  1  0.79709400  0.75546400  0.21911900  1
  N  711  1  0.76063000  0.81745800  0.22168300  1
  N  712  1  0.75723600  0.73293800  0.29323600  1
  N  1079  1  0.25757300  0.50693800  0.98538200  1
  N  1082  1  0.25732800  0.50671600  0.02942400  1
  N  1093  1  0.25714200  0.57070300  0.05219900  1
  N  1094  1  0.25784700  0.57114700  0.96286400  1
  N  1101  1  0.75763300  0.44496200  0.02950000  1
  N  1104  1  0.75726300  0.44517700  0.98545800  1
  N  1115  1  0.75697300  0.38118600  0.96268500  1
  N  1116  1  0.75787800  0.38076000  0.05202500  1
  N  1123  1  0.75723100  0.00727105  0.48538100  1
  N  1126  1  0.75758500  0.00704605  0.52942200  1
  N  1137  1  0.75781400  0.07100700  0.55217500  1
  N  1138  1  0.75701300  0.07146100  0.46288900  1
  N  1145  1  0.25736200  0.94460800  0.52950000  1
  N  1148  1  0.25754700  0.94483600  0.48545900  1
  N  1159  1  0.25766700  0.88087300  0.46270600  1
  N  1160  1  0.25716700  0.88041600  0.55198900  1
  N  1167  1  0.02565000  0.53221600  0.13232700  1
  N  1170  1  0.94815100  0.50817500  0.13119700  1
  N  1181  1  0.92660800  0.45297700  0.15576600  1
  N  1182  1  0.08622800  0.49713200  0.15823600  1
  N  1189  1  0.48938200  0.53260700  0.88261100  1
  N  1192  1  0.56688700  0.50856900  0.88363100  1
  N  1203  1  0.58835600  0.45347100  0.85892600  1
  N  1204  1  0.42873800  0.49763600  0.85668800  1
  N  1211  1  0.98949300  0.41948000  0.88278800  1
  N  1214  1  0.06684700  0.44382400  0.88400400  1
  N  1225  1  0.08812300  0.49915800  0.85951600  1
  N  1226  1  0.92875100  0.45442600  0.85694900  1
  N  1233  1  0.52522400  0.41908700  0.13196600  1
  N  1236  1  0.44784100  0.44338500  0.13086000  1
  N  1247  1  0.42661300  0.49866800  0.15542300  1
  N  1248  1  0.58601800  0.45398200  0.15780100  1
  N  1255  1  0.52526100  0.03246700  0.63211200  1
  N  1258  1  0.44795500  0.00800305  0.63092500  1
  N  1269  1  0.42682100  0.95252100  0.65535800  1
  N  1270  1  0.58616400  0.99763100  0.65790700  1
  N  1277  1  0.98975600  0.03286800  0.38284200  1
  N  1280  1  0.06709000  0.00844905  0.38391400  1
  N  1291  1  0.08817800  0.95307800  0.35934000  1
  N  1292  1  0.92879700  0.99808700  0.35704800  1
  N  1299  1  0.48947400  0.91954800  0.38249500  1
  N  1302  1  0.56683100  0.94388900  0.38367700  1
  N  1313  1  0.58815500  0.99920000  0.35917000  1
  N  1314  1  0.42867700  0.95441600  0.35662500  1
  N  1321  1  0.02530200  0.91916500  0.63232700  1
  N  1324  1  0.94792100  0.94347500  0.63126900  1
  N  1335  1  0.92667300  0.99869600  0.65589900  1
  N  1336  1  0.08616400  0.95394800  0.65820400  1
  N  1343  1  0.21964800  0.78854300  0.25312900  1
  N  1346  1  0.21737800  0.74537000  0.21925200  1
  N  1357  1  0.25325800  0.68312800  0.22177000  1
  N  1358  1  0.25849900  0.76790600  0.29317100  1
  N  1365  1  0.29527100  0.78854800  0.76166000  1
  N  1368  1  0.29749600  0.74550800  0.79560800  1
  N  1379  1  0.26162300  0.68326300  0.79317900  1
  N  1380  1  0.25644700  0.76774600  0.72163800  1
  N  1387  1  0.71917900  0.16359800  0.76190300  1
  N  1390  1  0.71775600  0.20680000  0.79577700  1
  N  1401  1  0.75422200  0.26879900  0.79312200  1
  N  1402  1  0.75771300  0.18396100  0.72171300  1
  N  1409  1  0.79572500  0.16357300  0.25306400  1
  N  1412  1  0.79709400  0.20663700  0.21911900  1
  N  1423  1  0.76063000  0.26863100  0.22168300  1
  N  1424  1  0.75723600  0.18411100  0.29323600  1
