# generated using pymatgen
data_H30C53(N3O2)2
_symmetry_space_group_name_H-M   'P 1'
_cell_length_a   62.23510000
_cell_length_b   64.64570000
_cell_length_c   64.83420000
_cell_angle_alpha   89.83280000
_cell_angle_beta   90.17370000
_cell_angle_gamma   90.17420000
_symmetry_Int_Tables_number   1
_chemical_formula_structural   H30C53(N3O2)2
_chemical_formula_sum   'H480 C848 N96 O64'
_cell_volume   260839.49454702
_cell_formula_units_Z   16
loop_
 _symmetry_equiv_pos_site_id
 _symmetry_equiv_pos_as_xyz
  1  'x, y, z'
loop_
 _atom_site_type_symbol
 _atom_site_label
 _atom_site_symmetry_multiplicity
 _atom_site_fract_x
 _atom_site_fract_y
 _atom_site_fract_z
 _atom_site_occupancy
  H  25  1  0.16584700  0.59705100  0.11381100  1
  H  26  1  0.13177800  0.60898800  0.10102100  1
  H  27  1  0.09986800  0.62741100  0.08533900  1
  H  28  1  0.07457700  0.64916500  0.06781500  1
  H  29  1  0.12459400  0.69134200  0.05294000  1
  H  30  1  0.19608200  0.65093700  0.09009000  1
  H  31  1  0.14476800  0.68446800  0.11250200  1
  H  32  1  0.18140700  0.73953000  0.10579800  1
  H  33  1  0.19354700  0.72811800  0.07274500  1
  H  34  1  0.16401800  0.64409900  0.03713100  1
  H  35  1  0.20174500  0.71031000  0.03888200  1
  H  36  1  0.20548900  0.68827900  0.00940700  1
  H  42  1  0.21411600  0.62565900  0.11670300  1
  H  43  1  0.08644400  0.69909400  0.04381200  1
  H  44  1  0.17669900  0.64005700  0.00074100  1
  H  45  1  0.14534800  0.71028400  0.14024900  1
  H  70  1  0.16500000  0.36719700  0.88472200  1
  H  71  1  0.13087100  0.35514600  0.89723600  1
  H  72  1  0.09887800  0.33666800  0.91275200  1
  H  73  1  0.07351600  0.31489700  0.93021200  1
  H  74  1  0.12333400  0.27273600  0.94519900  1
  H  75  1  0.19499600  0.31331300  0.90850500  1
  H  76  1  0.14363400  0.27962800  0.88567000  1
  H  77  1  0.17997900  0.22460900  0.89272400  1
  H  78  1  0.19208000  0.23605600  0.92586500  1
  H  79  1  0.16279100  0.31999600  0.96123900  1
  H  80  1  0.20020400  0.25383300  0.95980600  1
  H  81  1  0.20388800  0.27582900  0.98935500  1
  H  87  1  0.21321000  0.33868500  0.88216600  1
  H  88  1  0.08506500  0.26492600  0.95405500  1
  H  89  1  0.17524800  0.32393600  0.99782300  1
  H  90  1  0.14385300  0.25364600  0.85809000  1
  H  115  1  0.83446400  0.09602400  0.38362900  1
  H  116  1  0.86851300  0.08363700  0.37152700  1
  H  117  1  0.90037900  0.06828400  0.35304100  1
  H  118  1  0.92560200  0.05093300  0.33130800  1
  H  119  1  0.87552700  0.03626200  0.28922100  1
  H  120  1  0.80410000  0.07268400  0.32983000  1
  H  121  1  0.85529700  0.09587100  0.29611600  1
  H  122  1  0.81847900  0.08917700  0.24133000  1
  H  123  1  0.80643600  0.05587900  0.25275300  1
  H  124  1  0.83654800  0.01974300  0.33627600  1
  H  125  1  0.79855300  0.02167300  0.27039600  1
  H  126  1  0.79519000  0.99180800  0.29222100  1
  H  132  1  0.78600700  0.09877400  0.35523600  1
  H  133  1  0.91375800  0.02740400  0.28144200  1
  H  134  1  0.82436800  0.98290700  0.33999500  1
  H  135  1  0.85438900  0.12394000  0.27038800  1
  H  160  1  0.83475700  0.86724300  0.61431000  1
  H  161  1  0.86888200  0.87983000  0.62643200  1
  H  162  1  0.90086000  0.89538800  0.64495900  1
  H  163  1  0.92619500  0.91286200  0.66674600  1
  H  164  1  0.87629600  0.92735800  0.70869500  1
  H  165  1  0.80467200  0.89056100  0.66801200  1
  H  166  1  0.85594100  0.86764600  0.70174500  1
  H  167  1  0.81936200  0.87416600  0.75646300  1
  H  168  1  0.80733800  0.90742000  0.74503300  1
  H  169  1  0.83708500  0.94364100  0.66152400  1
  H  170  1  0.79939400  0.94157400  0.72735000  1
  H  171  1  0.79590800  0.97138100  0.70547200  1
  H  177  1  0.78646800  0.86427900  0.64262400  1
  H  178  1  0.91458800  0.93630600  0.71659100  1
  H  179  1  0.82483300  0.98037700  0.65770000  1
  H  180  1  0.85531800  0.83967600  0.72753200  1
  H  205  1  0.83265800  0.59715000  0.88496900  1
  H  206  1  0.86711500  0.60858100  0.89729600  1
  H  207  1  0.89931900  0.62586500  0.91336400  1
  H  208  1  0.92509100  0.64631900  0.93161200  1
  H  209  1  0.87651300  0.68962600  0.94670000  1
  H  210  1  0.80371600  0.65097800  0.90960500  1
  H  211  1  0.85467600  0.68417200  0.88623600  1
  H  212  1  0.81871400  0.73922800  0.89389400  1
  H  213  1  0.80763200  0.72777600  0.92747200  1
  H  214  1  0.83675400  0.64317300  0.96199900  1
  H  215  1  0.80031900  0.70986900  0.96151100  1
  H  216  1  0.79686800  0.68752700  0.99093000  1
  H  222  1  0.78476200  0.62603300  0.88312000  1
  H  223  1  0.91324400  0.69384400  0.96069100  1
  H  224  1  0.82507600  0.63903900  0.99877200  1
  H  225  1  0.84618100  0.70923000  0.85619700  1
  H  250  1  0.83236600  0.36634400  0.11267500  1
  H  251  1  0.86677400  0.35500300  0.10054000  1
  H  252  1  0.89890900  0.33781500  0.08468300  1
  H  253  1  0.92461500  0.31746300  0.06655300  1
  H  254  1  0.87592700  0.27396400  0.05124400  1
  H  255  1  0.80324700  0.31238000  0.08798400  1
  H  256  1  0.85422200  0.27930000  0.11159900  1
  H  257  1  0.81818500  0.22407900  0.10373800  1
  H  258  1  0.80703200  0.23552400  0.07013600  1
  H  259  1  0.83624300  0.32025900  0.03575500  1
  H  260  1  0.79968100  0.25341700  0.03608100  1
  H  261  1  0.79624400  0.27573800  0.00663700  1
  H  267  1  0.78439400  0.33731700  0.11437100  1
  H  268  1  0.91264400  0.26987200  0.03744800  1
  H  269  1  0.82458200  0.32430100  0.99890000  1
  H  270  1  0.84577000  0.25414300  0.14158100  1
  H  295  1  0.16736400  0.09779400  0.61603100  1
  H  296  1  0.13296600  0.08521400  0.62725800  1
  H  297  1  0.10089200  0.06872900  0.64425500  1
  H  298  1  0.07525700  0.05003900  0.66441200  1
  H  299  1  0.12396500  0.03472400  0.70777000  1
  H  300  1  0.19650500  0.07269900  0.66973500  1
  H  301  1  0.14538200  0.09557100  0.70274000  1
  H  302  1  0.18160300  0.08761900  0.75769600  1
  H  303  1  0.19290100  0.05413800  0.74618000  1
  H  304  1  0.16393500  0.02019500  0.66153700  1
  H  305  1  0.20054800  0.02030600  0.72815100  1
  H  306  1  0.20432500  0.99114000  0.70572600  1
  H  312  1  0.21522800  0.09974200  0.64483200  1
  H  313  1  0.08732900  0.02035800  0.71165200  1
  H  314  1  0.17658800  0.98407700  0.65660300  1
  H  315  1  0.15365300  0.12549600  0.72780300  1
  H  340  1  0.16695700  0.86696400  0.38205600  1
  H  341  1  0.13239500  0.87899200  0.37072800  1
  H  342  1  0.10005500  0.89488000  0.35358200  1
  H  343  1  0.07416400  0.91318200  0.33333333  1
  H  344  1  0.12257300  0.92922500  0.29012900  1
  H  345  1  0.19562600  0.89238200  0.32835800  1
  H  346  1  0.14476800  0.86861900  0.29527500  1
  H  347  1  0.18067000  0.87716000  0.24038800  1
  H  348  1  0.19152100  0.91087500  0.25186500  1
  H  349  1  0.16241000  0.94442000  0.33638600  1
  H  350  1  0.19868700  0.94492400  0.26980300  1
  H  351  1  0.20212200  0.97422500  0.29221600  1
  H  357  1  0.21480000  0.86586600  0.35317700  1
  H  358  1  0.08572400  0.94276400  0.28593100  1
  H  359  1  0.17393100  0.98147200  0.34051400  1
  H  360  1  0.15335300  0.83880400  0.27026700  1
  H  385  1  0.66591000  0.09683200  0.61380600  1
  H  386  1  0.63183100  0.10879900  0.60106500  1
  H  387  1  0.59991800  0.12724100  0.58540600  1
  H  388  1  0.57462600  0.14900000  0.56788200  1
  H  389  1  0.62472400  0.19094700  0.55261800  1
  H  390  1  0.69622400  0.15050300  0.58969600  1
  H  391  1  0.64513800  0.18428400  0.61212300  1
  H  392  1  0.68197200  0.23917800  0.60503600  1
  H  393  1  0.69391000  0.22757800  0.57197500  1
  H  394  1  0.66387600  0.14351100  0.53685200  1
  H  395  1  0.70185900  0.20959600  0.53814100  1
  H  396  1  0.70536100  0.18742800  0.50874100  1
  H  402  1  0.71425300  0.12532600  0.61641700  1
  H  403  1  0.58651000  0.19881400  0.54372000  1
  H  404  1  0.67636400  0.13923600  0.50044600  1
  H  405  1  0.64620700  0.21011100  0.63987500  1
  H  430  1  0.66508400  0.86632900  0.38364800  1
  H  431  1  0.63095700  0.85454500  0.39642200  1
  H  432  1  0.59896000  0.83636000  0.41224400  1
  H  433  1  0.57356700  0.81485600  0.42997500  1
  H  434  1  0.62328700  0.77272100  0.44534700  1
  H  435  1  0.69498500  0.81265800  0.40801900  1
  H  436  1  0.64352500  0.77893900  0.38569100  1
  H  437  1  0.67958100  0.72381700  0.39333000  1
  H  438  1  0.69177700  0.73557600  0.42632500  1
  H  439  1  0.66295000  0.82003800  0.46081300  1
  H  440  1  0.70007100  0.75371100  0.46003100  1
  H  441  1  0.70390500  0.77600300  0.48933300  1
  H  447  1  0.71310600  0.83769500  0.38114000  1
  H  448  1  0.58514100  0.76517300  0.45455800  1
  H  449  1  0.67554000  0.82440400  0.49726100  1
  H  450  1  0.64315600  0.75246600  0.35862200  1
  H  475  1  0.33523500  0.59748900  0.88389200  1
  H  476  1  0.36919800  0.58491200  0.87175800  1
  H  477  1  0.40092500  0.56925500  0.85331300  1
  H  478  1  0.42598000  0.55154800  0.83168800  1
  H  479  1  0.37569600  0.53671800  0.78988700  1
  H  480  1  0.30458200  0.57382500  0.83038400  1
  H  481  1  0.35575100  0.59654400  0.79625800  1
  H  482  1  0.31881200  0.58941500  0.74160000  1
  H  483  1  0.30666700  0.55628200  0.75338200  1
  H  484  1  0.33668900  0.52091400  0.83725200  1
  H  485  1  0.29859100  0.52234800  0.77141800  1
  H  486  1  0.29504200  0.49276800  0.79357900  1
  H  492  1  0.28667200  0.60016500  0.85573000  1
  H  493  1  0.41386000  0.52760400  0.78208600  1
  H  494  1  0.32406400  0.48437400  0.84163700  1
  H  495  1  0.35511900  0.62424800  0.77016600  1
  H  520  1  0.33457000  0.36731000  0.11439800  1
  H  521  1  0.36870700  0.37991500  0.12647700  1
  H  522  1  0.40070800  0.39544900  0.14498600  1
  H  523  1  0.42607400  0.41288100  0.16677400  1
  H  524  1  0.37618700  0.42753500  0.20868300  1
  H  525  1  0.30452100  0.39076600  0.16805800  1
  H  526  1  0.35578600  0.36787200  0.20176500  1
  H  527  1  0.31923700  0.37445500  0.25649500  1
  H  528  1  0.30722600  0.40770700  0.24504500  1
  H  529  1  0.33696700  0.44384700  0.16149700  1
  H  530  1  0.29930300  0.44185400  0.22733900  1
  H  531  1  0.29583400  0.47164800  0.20544400  1
  H  537  1  0.28631400  0.36440200  0.14275400  1
  H  538  1  0.41449800  0.43638800  0.21659500  1
  H  539  1  0.32472800  0.48057600  0.15763500  1
  H  540  1  0.35515500  0.33992000  0.22756900  1
  H  565  1  0.33247900  0.09775800  0.38431800  1
  H  566  1  0.36693000  0.10892500  0.39691600  1
  H  567  1  0.39914200  0.12595800  0.41324700  1
  H  568  1  0.42494900  0.14624000  0.43164300  1
  H  569  1  0.37649500  0.18964700  0.44682200  1
  H  570  1  0.30367200  0.15151200  0.40925700  1
  H  571  1  0.35474000  0.18453800  0.38629100  1
  H  572  1  0.31891500  0.23965100  0.39412400  1
  H  573  1  0.30776000  0.22809400  0.42764500  1
  H  574  1  0.33656700  0.14324600  0.46182600  1
  H  575  1  0.30033500  0.21004500  0.46160100  1
  H  576  1  0.29677200  0.18757700  0.49091000  1
  H  582  1  0.28482900  0.12686300  0.38230100  1
  H  583  1  0.41320800  0.19368300  0.46089400  1
  H  584  1  0.32486100  0.13897900  0.49855700  1
  H  585  1  0.34635600  0.20967000  0.35635300  1
  H  610  1  0.33267400  0.86798100  0.61008400  1
  H  611  1  0.36742800  0.85467900  0.60138700  1
  H  612  1  0.39989800  0.83606900  0.58798800  1
  H  613  1  0.42578100  0.81538700  0.57042600  1
  H  614  1  0.37645200  0.77397300  0.55167800  1
  H  615  1  0.30319500  0.81477600  0.58422100  1
  H  616  1  0.35312900  0.77967500  0.61179900  1
  H  617  1  0.31683800  0.72474300  0.60315100  1
  H  618  1  0.30670900  0.73621300  0.56924700  1
  H  619  1  0.33762900  0.82064600  0.53544200  1
  H  620  1  0.30032500  0.75418000  0.53507300  1
  H  621  1  0.29762600  0.77657900  0.50563800  1
  H  627  1  0.28351800  0.85027900  0.59071500  1
  H  628  1  0.41407400  0.76824100  0.54066300  1
  H  629  1  0.32599600  0.82528400  0.49861000  1
  H  630  1  0.34386400  0.75452000  0.64157400  1
  H  655  1  0.66737200  0.59799900  0.11619800  1
  H  656  1  0.63292000  0.58559300  0.12747500  1
  H  657  1  0.60076600  0.56926500  0.14452300  1
  H  658  1  0.57506800  0.55063800  0.16467500  1
  H  659  1  0.62393300  0.53433000  0.20750400  1
  H  660  1  0.69659100  0.57203200  0.16944900  1
  H  661  1  0.64591300  0.59501100  0.20289600  1
  H  662  1  0.68225000  0.58620000  0.25764900  1
  H  663  1  0.69314600  0.55271300  0.24578000  1
  H  664  1  0.66352200  0.51991100  0.16087100  1
  H  665  1  0.70039200  0.51896200  0.22735700  1
  H  666  1  0.70381000  0.49000200  0.20456200  1
  H  672  1  0.71537900  0.59926700  0.14476900  1
  H  673  1  0.58713400  0.52052200  0.21166200  1
  H  674  1  0.67537200  0.48321800  0.15602900  1
  H  675  1  0.65433400  0.62455700  0.22813400  1
  H  700  1  0.66644300  0.36504300  0.88134900  1
  H  701  1  0.63194200  0.37739100  0.87018600  1
  H  702  1  0.59970200  0.39370200  0.85329400  1
  H  703  1  0.57389800  0.41241100  0.83333100  1
  H  704  1  0.62242000  0.42901600  0.79043600  1
  H  705  1  0.69529400  0.39126800  0.82812600  1
  H  706  1  0.64440700  0.36819000  0.79473300  1
  H  707  1  0.68034600  0.37737000  0.73996800  1
  H  708  1  0.69126600  0.41090500  0.75188400  1
  H  709  1  0.66247000  0.44327600  0.83696300  1
  H  710  1  0.69864300  0.44462700  0.77033900  1
  H  711  1  0.70235300  0.47351200  0.79322100  1
  H  717  1  0.71421100  0.36399700  0.85269200  1
  H  718  1  0.58555600  0.44255500  0.78629100  1
  H  719  1  0.67449000  0.47997900  0.84192600  1
  H  720  1  0.65281700  0.33872100  0.76946500  1
  H  727  1  0.00625000  0.65187000  0.01260300  1
  H  728  1  0.03752000  0.64955400  0.03365100  1
  H  735  1  0.97527300  0.70757700  0.00512900  1
  H  736  1  0.94333300  0.70424800  0.98441600  1
  H  737  1  0.97224500  0.65578100  0.95109600  1
  H  738  1  0.00394500  0.65901600  0.97160300  1
  H  739  1  0.02046500  0.71433300  0.99944800  1
  H  751  1  0.00579500  0.31237300  0.98595700  1
  H  752  1  0.03692500  0.31470400  0.96488400  1
  H  759  1  0.97451500  0.25644700  0.99317300  1
  H  760  1  0.94264200  0.25963700  0.01378100  1
  H  761  1  0.97169500  0.30827900  0.04714400  1
  H  762  1  0.00333600  0.30517600  0.02674700  1
  H  763  1  0.01946800  0.24978200  0.99871300  1
  H  775  1  0.99327800  0.99507200  0.32881800  1
  H  776  1  0.96219500  0.01623600  0.33109600  1
  H  783  1  0.02401400  0.98767700  0.27282900  1
  H  784  1  0.05580200  0.96682600  0.27592100  1
  H  785  1  0.02729500  0.93368700  0.32495900  1
  H  786  1  0.99573600  0.95431100  0.32194700  1
  H  787  1  0.97914300  0.98246300  0.26645900  1
  H  799  1  0.99379400  0.96936900  0.66940300  1
  H  800  1  0.96264400  0.94810200  0.66696500  1
  H  807  1  0.02527200  0.97576800  0.72501500  1
  H  808  1  0.05723200  0.99652100  0.72186700  1
  H  809  1  0.02800300  0.03082600  0.67397800  1
  H  810  1  0.99627800  0.01027700  0.67703300  1
  H  811  1  0.98024700  0.98122600  0.73193300  1
  H  823  1  0.50625600  0.15161500  0.51261200  1
  H  824  1  0.53756600  0.14927900  0.53360300  1
  H  831  1  0.47531800  0.20734400  0.50519400  1
  H  832  1  0.44334500  0.20406600  0.48451800  1
  H  833  1  0.47215400  0.15558500  0.45113100  1
  H  834  1  0.50388400  0.15876800  0.47160400  1
  H  835  1  0.52050000  0.21406300  0.49941500  1
  H  847  1  0.50487700  0.81251200  0.48424100  1
  H  848  1  0.53605900  0.81453000  0.46322900  1
  H  855  1  0.47533100  0.75552700  0.49504900  1
  H  856  1  0.44378600  0.75845800  0.51617700  1
  H  857  1  0.47081200  0.81060700  0.54560200  1
  H  858  1  0.50213900  0.80773200  0.52475100  1
  H  859  1  0.51982900  0.75082600  0.49979300  1
  H  871  1  0.49326300  0.49512800  0.82952900  1
  H  872  1  0.46225100  0.51639100  0.83177200  1
  H  879  1  0.52391200  0.48759700  0.77339000  1
  H  880  1  0.55564200  0.46664900  0.77636200  1
  H  881  1  0.52731300  0.43373700  0.82564500  1
  H  882  1  0.49580800  0.45445200  0.82274800  1
  H  883  1  0.47917000  0.48257900  0.76715000  1
  H  895  1  0.49376000  0.46926100  0.16936000  1
  H  896  1  0.46259800  0.44800300  0.16696800  1
  H  903  1  0.52516500  0.47589900  0.22500300  1
  H  904  1  0.55710500  0.49667300  0.22183300  1
  H  905  1  0.52793800  0.53075100  0.17374400  1
  H  906  1  0.49622900  0.51018300  0.17682500  1
  H  907  1  0.48015500  0.48134700  0.23183700  1
  H  919  1  0.17493500  0.79656900  0.16845100  1
  H  920  1  0.17891300  0.77090000  0.14259100  1
  H  927  1  0.15158200  0.77832800  0.22636400  1
  H  928  1  0.15303400  0.80605200  0.25078700  1
  H  929  1  0.14563100  0.84929100  0.20241800  1
  H  930  1  0.14403300  0.82175800  0.17806000  1
  H  931  1  0.12605900  0.76120900  0.19661300  1
  H  943  1  0.17470800  0.16798200  0.82977000  1
  H  944  1  0.17837000  0.19369900  0.85566700  1
  H  951  1  0.15119000  0.18587300  0.77172100  1
  H  952  1  0.15300700  0.15819300  0.74729600  1
  H  953  1  0.14608300  0.11480100  0.79559100  1
  H  954  1  0.14411700  0.14229000  0.81995000  1
  H  955  1  0.12546200  0.20255800  0.80129800  1
  H  967  1  0.82571800  0.15143200  0.18369400  1
  H  968  1  0.82175300  0.12548800  0.20944900  1
  H  975  1  0.84810800  0.20989400  0.20191900  1
  H  976  1  0.84625800  0.23446300  0.17424300  1
  H  977  1  0.85449300  0.18630900  0.13121000  1
  H  978  1  0.85650200  0.16180200  0.15870500  1
  H  979  1  0.87386000  0.18055800  0.21923100  1
  H  991  1  0.82571700  0.81142800  0.81359100  1
  H  992  1  0.82182200  0.83737800  0.78782800  1
  H  999  1  0.84867200  0.75332100  0.79578800  1
  H  1000  1  0.84687900  0.72880200  0.82351700  1
  H  1001  1  0.85468400  0.77716800  0.86649200  1
  H  1002  1  0.85662400  0.80162300  0.83894700  1
  H  1003  1  0.87450600  0.78304400  0.77877700  1
  H  1015  1  0.67538500  0.29656400  0.66762100  1
  H  1016  1  0.67939800  0.27085400  0.64180700  1
  H  1023  1  0.65143900  0.27837700  0.72547200  1
  H  1024  1  0.65272100  0.30605500  0.74994500  1
  H  1025  1  0.64619600  0.34940200  0.70155400  1
  H  1026  1  0.64475100  0.32191000  0.67714300  1
  H  1027  1  0.62627600  0.26137400  0.69561800  1
  H  1039  1  0.67608800  0.66758900  0.32996000  1
  H  1040  1  0.67933300  0.69340400  0.35580800  1
  H  1047  1  0.65162200  0.68487800  0.27195200  1
  H  1048  1  0.65347600  0.65717400  0.24755600  1
  H  1049  1  0.64807100  0.61379100  0.29604500  1
  H  1050  1  0.64606400  0.64130400  0.32037700  1
  H  1051  1  0.62601700  0.70118400  0.30164600  1
  H  1063  1  0.32487900  0.65148800  0.68380200  1
  H  1064  1  0.32144200  0.62558900  0.70966900  1
  H  1071  1  0.34702800  0.71024800  0.70175400  1
  H  1072  1  0.34484900  0.73482700  0.67410900  1
  H  1073  1  0.35275400  0.68670700  0.63097500  1
  H  1074  1  0.35510000  0.66219400  0.65844300  1
  H  1075  1  0.37303400  0.68120800  0.71882800  1
  H  1087  1  0.32559400  0.31169900  0.31362800  1
  H  1088  1  0.32164100  0.33761400  0.28783500  1
  H  1095  1  0.34881300  0.25367300  0.29593200  1
  H  1096  1  0.34706900  0.22918700  0.32368900  1
  H  1097  1  0.35463700  0.27763400  0.36661500  1
  H  1098  1  0.35652400  0.30205900  0.33903900  1
  H  1099  1  0.37457800  0.28348000  0.27893200  1
  H  1111  1  0.25559600  0.54428600  0.17120600  1
  H  1112  1  0.27384800  0.51583600  0.18661300  1
  H  1119  1  0.24197200  0.53627100  0.10779600  1
  H  1120  1  0.21692600  0.56084600  0.09452600  1
  H  1121  1  0.23646800  0.60379600  0.13975400  1
  H  1122  1  0.26181000  0.57933900  0.15297100  1
  H  1123  1  0.28228200  0.52923100  0.11349900  1
  H  1135  1  0.25499800  0.42003100  0.82767700  1
  H  1136  1  0.27334500  0.44848900  0.81230200  1
  H  1143  1  0.24125000  0.42821500  0.89096500  1
  H  1144  1  0.21612000  0.40358900  0.90412000  1
  H  1145  1  0.23565400  0.36056600  0.85918300  1
  H  1146  1  0.26107500  0.38507500  0.84608100  1
  H  1147  1  0.28158500  0.43541900  0.88553100  1
  H  1159  1  0.74510700  0.15328000  0.43636100  1
  H  1160  1  0.72697100  0.16865800  0.46468900  1
  H  1167  1  0.75882100  0.08972600  0.44461900  1
  H  1168  1  0.78368400  0.07657200  0.42001100  1
  H  1169  1  0.76385100  0.12185200  0.37709100  1
  H  1170  1  0.73870100  0.13495500  0.40158300  1
  H  1171  1  0.71857800  0.09525000  0.45193700  1
  H  1183  1  0.74458200  0.81004600  0.56143100  1
  H  1184  1  0.72610600  0.79475900  0.53309700  1
  H  1191  1  0.75861600  0.87362000  0.55332400  1
  H  1192  1  0.78375400  0.88672400  0.57792100  1
  H  1193  1  0.76401100  0.84131600  0.62075900  1
  H  1194  1  0.73858200  0.82826700  0.59627900  1
  H  1195  1  0.71826800  0.86812200  0.54610300  1
  H  1207  1  0.74283700  0.54518900  0.82845300  1
  H  1208  1  0.72461400  0.51685200  0.81279200  1
  H  1215  1  0.75719500  0.53616400  0.89162400  1
  H  1216  1  0.78221000  0.56084100  0.90488500  1
  H  1217  1  0.76176300  0.60431100  0.86038700  1
  H  1218  1  0.73644900  0.57975100  0.84718500  1
  H  1219  1  0.71690900  0.52856600  0.88618900  1
  H  1231  1  0.74338800  0.41808300  0.16918000  1
  H  1232  1  0.72553400  0.44642400  0.18493100  1
  H  1239  1  0.75736200  0.42722700  0.10601100  1
  H  1240  1  0.78209600  0.40254600  0.09269600  1
  H  1241  1  0.76161700  0.35901800  0.13711600  1
  H  1242  1  0.73658100  0.38358400  0.15037500  1
  H  1243  1  0.71719700  0.43492200  0.11151000  1
  H  1255  1  0.25679900  0.15328300  0.56317500  1
  H  1256  1  0.27476100  0.16858000  0.53456200  1
  H  1263  1  0.24283100  0.08972600  0.55557700  1
  H  1264  1  0.21791900  0.07673700  0.58036400  1
  H  1265  1  0.23818800  0.12220400  0.62276800  1
  H  1266  1  0.26340500  0.13514000  0.59809500  1
  H  1267  1  0.28305700  0.09525800  0.54803500  1
  H  1279  1  0.25732800  0.81133800  0.43387400  1
  H  1280  1  0.27572600  0.79580800  0.46215200  1
  H  1287  1  0.24290700  0.87454200  0.44254800  1
  H  1288  1  0.21763300  0.88759200  0.41805200  1
  H  1289  1  0.23789500  0.84313900  0.37483300  1
  H  1290  1  0.26345700  0.83014600  0.39921200  1
  H  1291  1  0.28333000  0.86943700  0.44983700  1
  H  1303  1  0.75561700  0.04399900  0.67114600  1
  H  1304  1  0.77387400  0.01557100  0.68659200  1
  H  1311  1  0.74203200  0.03591100  0.60774700  1
  H  1312  1  0.71698800  0.06046600  0.59443100  1
  H  1313  1  0.73650400  0.10348000  0.63960900  1
  H  1314  1  0.76183900  0.07904400  0.65287300  1
  H  1315  1  0.78235600  0.02890800  0.61347100  1
  H  1327  1  0.75455000  0.91925000  0.32645100  1
  H  1328  1  0.77284100  0.94774700  0.31108300  1
  H  1335  1  0.74200700  0.92693300  0.39000900  1
  H  1336  1  0.71686400  0.90241900  0.40334100  1
  H  1337  1  0.73519500  0.85962700  0.35771900  1
  H  1338  1  0.76062900  0.88403000  0.34442500  1
  H  1339  1  0.78232300  0.93378700  0.38401400  1
  H  1351  1  0.24576500  0.65445300  0.93710100  1
  H  1352  1  0.22747500  0.66968400  0.96541800  1
  H  1359  1  0.25957000  0.59087200  0.94510100  1
  H  1360  1  0.28444200  0.57781000  0.92045000  1
  H  1361  1  0.26462000  0.62325000  0.87769200  1
  H  1362  1  0.23946200  0.63626300  0.90222700  1
  H  1363  1  0.21929600  0.59630900  0.95235500  1
  H  1375  1  0.24449300  0.30997100  0.06168500  1
  H  1376  1  0.22608000  0.29461100  0.03334800  1
  H  1383  1  0.25837400  0.37354000  0.05346400  1
  H  1384  1  0.28351300  0.38672600  0.07801700  1
  H  1385  1  0.26387300  0.34137000  0.12095500  1
  H  1386  1  0.23844300  0.32823900  0.09651900  1
  H  1387  1  0.21802700  0.36796800  0.04629000  1
  H  1399  1  0.24315100  0.04585400  0.32748700  1
  H  1400  1  0.22498800  0.01746300  0.31185100  1
  H  1407  1  0.25618400  0.03736100  0.39095700  1
  H  1408  1  0.28125200  0.06188400  0.40439500  1
  H  1409  1  0.26216600  0.10513600  0.35913300  1
  H  1410  1  0.23679800  0.08072600  0.34573700  1
  H  1411  1  0.21590300  0.03020200  0.38492300  1
  H  1423  1  0.25475100  0.92774700  0.67205500  1
  H  1424  1  0.23577300  0.95686500  0.68461800  1
  H  1431  1  0.24587100  0.91432900  0.60728700  1
  H  1432  1  0.26987300  0.88857700  0.59481400  1
  H  1433  1  0.27677700  0.86466500  0.65499400  1
  H  1434  1  0.25218300  0.88993500  0.66756400  1
  H  1435  1  0.21020800  0.92183100  0.62328000  1
  H  1447  1  0.75686900  0.65318200  0.06322900  1
  H  1448  1  0.77487000  0.66852200  0.03466000  1
  H  1455  1  0.74283700  0.58968400  0.05546400  1
  H  1456  1  0.71788300  0.57665600  0.08019600  1
  H  1457  1  0.73819800  0.62196000  0.12275300  1
  H  1458  1  0.76345200  0.63493700  0.09813400  1
  H  1459  1  0.78311600  0.59517200  0.04801400  1
  H  1471  1  0.75579100  0.31000500  0.93442200  1
  H  1472  1  0.77386300  0.29473800  0.96303800  1
  H  1479  1  0.74262100  0.37362600  0.94187800  1
  H  1480  1  0.71756300  0.38665800  0.91718000  1
  H  1481  1  0.73685100  0.34101600  0.87478800  1
  H  1482  1  0.76220800  0.32802300  0.89937900  1
  H  1483  1  0.78290800  0.36795200  0.94920600  1
  C  1  1  0.16982900  0.67111900  0.05440900  1
  C  2  1  0.18080300  0.69003100  0.05496100  1
  C  3  1  0.17630900  0.69980800  0.07349500  1
  C  4  1  0.16242700  0.68724500  0.08496000  1
  C  5  1  0.15510200  0.69380300  0.10445400  1
  C  6  1  0.16178600  0.71317200  0.11255400  1
  C  7  1  0.17611000  0.72548900  0.10057100  1
  C  8  1  0.18338400  0.71895600  0.08113700  1
  C  9  1  0.19381500  0.69644600  0.03846300  1
  C  10  1  0.19592500  0.68338000  0.02128300  1
  C  11  1  0.18524600  0.66391800  0.02038800  1
  C  12  1  0.17193700  0.65800100  0.03717000  1
  C  13  1  0.16261700  0.64882700  0.08506100  1
  C  14  1  0.14421500  0.63674100  0.08819100  1
  C  15  1  0.12674400  0.64668600  0.07928600  1
  C  16  1  0.13382300  0.66510100  0.07015200  1
  C  17  1  0.10501600  0.64083000  0.07857100  1
  C  18  1  0.09033400  0.65372700  0.06823300  1
  C  19  1  0.09707600  0.67236500  0.05842600  1
  C  20  1  0.11909300  0.67804000  0.05973900  1
  C  21  1  0.18271800  0.64200600  0.09255000  1
  C  22  1  0.18427200  0.62272600  0.10293800  1
  C  23  1  0.16529100  0.61087200  0.10607700  1
  C  24  1  0.14525900  0.61775900  0.09873900  1
  C  37  1  0.15721800  0.66801000  0.07356600  1
  C  38  1  0.08271000  0.68456500  0.04727700  1
  C  39  1  0.20389000  0.61572600  0.11027700  1
  C  40  1  0.18782800  0.65070900  0.00366900  1
  C  41  1  0.15415600  0.71976300  0.13164900  1
  C  46  1  0.16857800  0.29301500  0.94398200  1
  C  47  1  0.17946500  0.27411900  0.94352400  1
  C  48  1  0.17498800  0.26434700  0.92494900  1
  C  49  1  0.16120100  0.27689100  0.91336200  1
  C  50  1  0.15390100  0.27031300  0.89381000  1
  C  51  1  0.16051900  0.25094900  0.88577400  1
  C  52  1  0.17474400  0.23865400  0.89788800  1
  C  53  1  0.18198900  0.24520300  0.91738100  1
  C  54  1  0.19234800  0.26769100  0.96015500  1
  C  55  1  0.19442100  0.28073300  0.97737800  1
  C  56  1  0.18383200  0.30018000  0.97817700  1
  C  57  1  0.17065400  0.30611100  0.96125900  1
  C  58  1  0.16153100  0.31532600  0.91329200  1
  C  59  1  0.14317900  0.32738000  0.91007000  1
  C  60  1  0.12565700  0.31738500  0.91884300  1
  C  61  1  0.13265300  0.29896300  0.92798000  1
  C  62  1  0.10396300  0.32322900  0.91949800  1
  C  63  1  0.08924000  0.31032900  0.92980200  1
  C  64  1  0.09591100  0.29169900  0.93963200  1
  C  65  1  0.11788200  0.28601500  0.93835000  1
  C  66  1  0.18167100  0.32222000  0.90597100  1
  C  67  1  0.18331900  0.34154000  0.89565300  1
  C  68  1  0.16438500  0.35335200  0.89241200  1
  C  69  1  0.14431500  0.34639800  0.89958800  1
  C  82  1  0.15604000  0.29611100  0.92472000  1
  C  83  1  0.08152800  0.27953100  0.95079500  1
  C  84  1  0.20297600  0.34860100  0.88845600  1
  C  85  1  0.18638800  0.31336600  0.99493500  1
  C  86  1  0.15290700  0.24432600  0.86662000  1
  C  91  1  0.83043300  0.03730100  0.30946600  1
  C  92  1  0.81938300  0.03789900  0.29064900  1
  C  93  1  0.82374800  0.05661500  0.28094000  1
  C  94  1  0.83764100  0.06814700  0.29343500  1
  C  95  1  0.84491800  0.08778600  0.28686100  1
  C  96  1  0.83818900  0.09594700  0.26754400  1
  C  97  1  0.82382500  0.08390200  0.25532200  1
  C  98  1  0.81660100  0.06432700  0.26186500  1
  C  99  1  0.80651200  0.02123000  0.28420400  1
  C  100  1  0.80463300  0.00381900  0.29714000  1
  C  101  1  0.81540600  0.00286800  0.31649800  1
  C  102  1  0.82855300  0.01983400  0.32245400  1
  C  103  1  0.83758800  0.06790700  0.33177500  1
  C  104  1  0.85602500  0.07105000  0.34378900  1
  C  105  1  0.87348400  0.06235100  0.33379000  1
  C  106  1  0.86637400  0.05334500  0.31539500  1
  C  107  1  0.89521000  0.06163100  0.33962400  1
  C  108  1  0.90985200  0.05139000  0.32674800  1
  C  109  1  0.90306600  0.04168400  0.30814700  1
  C  110  1  0.88106000  0.04302600  0.30247600  1
  C  111  1  0.81748600  0.07515000  0.33870900  1
  C  112  1  0.81596200  0.08530300  0.35802000  1
  C  113  1  0.83498200  0.08845400  0.36979000  1
  C  114  1  0.85501100  0.08135600  0.36280300  1
  C  127  1  0.84296100  0.05661700  0.31257800  1
  C  128  1  0.91736800  0.03054400  0.29601900  1
  C  129  1  0.79634900  0.09245600  0.36510800  1
  C  130  1  0.81306300  0.98591200  0.32956800  1
  C  131  1  0.84581200  0.11515500  0.26089000  1
  C  136  1  0.83111400  0.92609600  0.68835900  1
  C  137  1  0.82015100  0.92545700  0.70716000  1
  C  138  1  0.82454500  0.90677200  0.71688800  1
  C  139  1  0.83836600  0.89530200  0.70441900  1
  C  140  1  0.84563000  0.87569000  0.71099300  1
  C  141  1  0.83894200  0.86748200  0.73027800  1
  C  142  1  0.82465800  0.87946600  0.74248300  1
  C  143  1  0.81745000  0.89901800  0.73593900  1
  C  144  1  0.80729900  0.94205000  0.71356000  1
  C  145  1  0.80534500  0.95942600  0.70058900  1
  C  146  1  0.81602300  0.96041100  0.68124500  1
  C  147  1  0.82916200  0.94352600  0.67533800  1
  C  148  1  0.83815300  0.89550600  0.66609400  1
  C  149  1  0.85653100  0.89243500  0.65411500  1
  C  150  1  0.87404500  0.90122900  0.66413800  1
  C  151  1  0.86701800  0.91022700  0.68250500  1
  C  152  1  0.89575200  0.90203400  0.65835600  1
  C  153  1  0.91045700  0.91234700  0.67126200  1
  C  154  1  0.90375500  0.92203700  0.68983700  1
  C  155  1  0.88177100  0.92060600  0.69546000  1
  C  156  1  0.81801400  0.88815000  0.65915200  1
  C  157  1  0.81639400  0.87793700  0.63987000  1
  C  158  1  0.83535300  0.87485200  0.62813100  1
  C  159  1  0.85542000  0.88206600  0.63513000  1
  C  172  1  0.84361700  0.90684700  0.68528400  1
  C  173  1  0.91812300  0.93321600  0.70201300  1
  C  174  1  0.79673600  0.87070100  0.63277000  1
  C  175  1  0.81359300  0.97731900  0.66813400  1
  C  176  1  0.84654900  0.84829500  0.73692100  1
  C  181  1  0.83103000  0.67045700  0.94500900  1
  C  182  1  0.82045600  0.68952400  0.94484300  1
  C  183  1  0.82472800  0.69949000  0.92630200  1
  C  184  1  0.83814100  0.68692600  0.91446200  1
  C  185  1  0.84484700  0.69351700  0.89471700  1
  C  186  1  0.83807100  0.71295900  0.88691800  1
  C  187  1  0.82424800  0.72529400  0.89920600  1
  C  188  1  0.81758800  0.71870900  0.91886900  1
  C  189  1  0.80795600  0.69589400  0.96165400  1
  C  190  1  0.80601700  0.68265000  0.97879800  1
  C  191  1  0.81633900  0.66305400  0.97932500  1
  C  192  1  0.82908800  0.65715800  0.96220700  1
  C  193  1  0.83724100  0.64852500  0.91403200  1
  C  194  1  0.85536400  0.63628900  0.91050900  1
  C  195  1  0.87312900  0.64582400  0.91934600  1
  C  196  1  0.86659700  0.66420200  0.92872400  1
  C  197  1  0.89461400  0.63935800  0.92015300  1
  C  198  1  0.90960700  0.65155600  0.93091900  1
  C  199  1  0.90347600  0.67015500  0.94103000  1
  C  200  1  0.88166900  0.67645100  0.93956200  1
  C  201  1  0.81689000  0.64197200  0.90684600  1
  C  202  1  0.81483700  0.62283500  0.89635600  1
  C  203  1  0.83356900  0.61087200  0.89277900  1
  C  204  1  0.85383100  0.61746400  0.89984100  1
  C  217  1  0.84321500  0.66747600  0.92561100  1
  C  218  1  0.91807000  0.68145600  0.95295300  1
  C  219  1  0.79498800  0.61601100  0.88936700  1
  C  220  1  0.81397100  0.64971800  0.99604200  1
  C  221  1  0.84433800  0.71950400  0.86742300  1
  C  226  1  0.83047400  0.29296100  0.05273100  1
  C  227  1  0.81986600  0.27385000  0.05284900  1
  C  228  1  0.82416000  0.26389300  0.07140400  1
  C  229  1  0.83760600  0.27651200  0.08331000  1
  C  230  1  0.84435100  0.26992500  0.10307400  1
  C  231  1  0.83758600  0.25043200  0.11082200  1
  C  232  1  0.82371500  0.23805200  0.09846800  1
  C  233  1  0.81701200  0.24463200  0.07878900  1
  C  234  1  0.80733900  0.26742700  0.03597600  1
  C  235  1  0.80540800  0.28065800  0.01881600  1
  C  236  1  0.81577400  0.30029200  0.01833100  1
  C  237  1  0.82854300  0.30624600  0.03551600  1
  C  238  1  0.83677800  0.31492400  0.08373700  1
  C  239  1  0.85493800  0.32722000  0.08733900  1
  C  240  1  0.87266800  0.31775700  0.07857500  1
  C  241  1  0.86608000  0.29935700  0.06916200  1
  C  242  1  0.89416600  0.32430900  0.07786500  1
  C  243  1  0.90911700  0.31217700  0.06715700  1
  C  244  1  0.90293600  0.29355100  0.05702200  1
  C  245  1  0.88111500  0.28717300  0.05838800  1
  C  246  1  0.81645300  0.32142200  0.09081700  1
  C  247  1  0.81445800  0.34058000  0.10125000  1
  C  248  1  0.83322900  0.35260700  0.10490000  1
  C  249  1  0.85346500  0.34606600  0.09795600  1
  C  262  1  0.84269600  0.29598800  0.07218500  1
  C  263  1  0.91749400  0.28230900  0.04516700  1
  C  264  1  0.79463400  0.34735700  0.10814200  1
  C  265  1  0.81343600  0.31360600  0.00158600  1
  C  266  1  0.84389500  0.24387800  0.13033100  1
  C  271  1  0.16949300  0.03695000  0.68887400  1
  C  272  1  0.18011500  0.03701200  0.70791900  1
  C  273  1  0.17568100  0.05545200  0.71794300  1
  C  274  1  0.16212500  0.06734500  0.70543100  1
  C  275  1  0.15529300  0.08703800  0.71206000  1
  C  276  1  0.16209000  0.09473300  0.73148700  1
  C  277  1  0.17604500  0.08238300  0.74377500  1
  C  278  1  0.18283100  0.06277300  0.73715300  1
  C  279  1  0.19286200  0.02023800  0.71419600  1
  C  280  1  0.19499500  0.00323600  0.70088600  1
  C  281  1  0.18464200  0.00280000  0.68129300  1
  C  282  1  0.17164100  0.01989400  0.67550300  1
  C  283  1  0.16298300  0.06820200  0.66716300  1
  C  284  1  0.14482400  0.07176400  0.65489600  1
  C  285  1  0.12713200  0.06267200  0.66426300  1
  C  286  1  0.13375000  0.05308200  0.68256000  1
  C  287  1  0.10565000  0.06180200  0.65769800  1
  C  288  1  0.09073900  0.05076900  0.66971900  1
  C  289  1  0.09694700  0.04047100  0.68824800  1
  C  290  1  0.11875600  0.04198700  0.69463600  1
  C  291  1  0.18329000  0.07555300  0.66074600  1
  C  292  1  0.18525700  0.08622300  0.64169300  1
  C  293  1  0.16649300  0.08987200  0.62970500  1
  C  294  1  0.14627100  0.08266400  0.63617900  1
  C  307  1  0.15711300  0.05633100  0.68596200  1
  C  308  1  0.08242000  0.02833500  0.69939500  1
  C  309  1  0.20508100  0.09321900  0.63491000  1
  C  310  1  0.18712400  0.98616900  0.66791500  1
  C  311  1  0.15574300  0.11420600  0.73804300  1
  C  316  1  0.16809600  0.92771600  0.30908300  1
  C  317  1  0.17862900  0.92783500  0.29005000  1
  C  318  1  0.17441600  0.90929000  0.28005600  1
  C  319  1  0.16109100  0.89716000  0.29256800  1
  C  320  1  0.15452000  0.87732400  0.28596000  1
  C  321  1  0.16135100  0.86972100  0.26656200  1
  C  322  1  0.17508400  0.88231400  0.25428600  1
  C  323  1  0.18160800  0.90206700  0.26088300  1
  C  324  1  0.19107100  0.94486400  0.28374900  1
  C  325  1  0.19300500  0.96193400  0.29703200  1
  C  326  1  0.18273000  0.96216700  0.31659300  1
  C  327  1  0.17002600  0.94484200  0.32241800  1
  C  328  1  0.16207700  0.89639100  0.33086000  1
  C  329  1  0.14400000  0.89255900  0.34308400  1
  C  330  1  0.12616800  0.90132300  0.33364200  1
  C  331  1  0.13261500  0.91098100  0.31534300  1
  C  332  1  0.10469800  0.90187300  0.34014700  1
  C  333  1  0.08963800  0.91269000  0.32809100  1
  C  334  1  0.09568500  0.92310000  0.30959100  1
  C  335  1  0.11747300  0.92185700  0.30323100  1
  C  336  1  0.18248700  0.88938300  0.33735100  1
  C  337  1  0.18464800  0.87876200  0.35642200  1
  C  338  1  0.16596400  0.87486800  0.36837900  1
  C  339  1  0.14564200  0.88174900  0.36184300  1
  C  352  1  0.15600100  0.90811300  0.31200900  1
  C  353  1  0.08104100  0.93511800  0.29846700  1
  C  354  1  0.20456200  0.87195900  0.36319100  1
  C  355  1  0.18512900  0.97879000  0.32997500  1
  C  356  1  0.15525500  0.85011800  0.26001800  1
  C  361  1  0.66988500  0.17058100  0.55399000  1
  C  362  1  0.68093200  0.18945900  0.55440800  1
  C  363  1  0.67656300  0.19933600  0.57291700  1
  C  364  1  0.66268500  0.18687300  0.58449600  1
  C  365  1  0.65547400  0.19354400  0.60399000  1
  C  366  1  0.66226400  0.21292800  0.61197300  1
  C  367  1  0.67658700  0.22513800  0.59988300  1
  C  368  1  0.68374700  0.21849200  0.58044800  1
  C  369  1  0.69387800  0.19575900  0.53782000  1
  C  370  1  0.69584500  0.18261100  0.52068400  1
  C  371  1  0.68508700  0.16318300  0.51992100  1
  C  372  1  0.67185000  0.15738400  0.53679500  1
  C  373  1  0.66273800  0.14845600  0.58477800  1
  C  374  1  0.64430800  0.13644500  0.58803800  1
  C  375  1  0.62683400  0.14640200  0.57915800  1
  C  376  1  0.63393600  0.16475400  0.56991200  1
  C  377  1  0.60508200  0.14061400  0.57855700  1
  C  378  1  0.59040000  0.15351100  0.56821900  1
  C  379  1  0.59716700  0.17208300  0.55830200  1
  C  380  1  0.61920600  0.17769400  0.55950200  1
  C  381  1  0.68284600  0.14161300  0.59222900  1
  C  382  1  0.68437400  0.12239100  0.60272800  1
  C  383  1  0.66537000  0.11060800  0.60599300  1
  C  384  1  0.64533300  0.11751400  0.59868200  1
  C  397  1  0.65735400  0.16760400  0.57321400  1
  C  398  1  0.58279800  0.18427200  0.54715100  1
  C  399  1  0.70399300  0.11538500  0.61005700  1
  C  400  1  0.68752300  0.14989600  0.50324100  1
  C  401  1  0.65475400  0.21962600  0.63107100  1
  C  406  1  0.66859600  0.79285400  0.44383300  1
  C  407  1  0.67939300  0.77390500  0.44356500  1
  C  408  1  0.67483400  0.76394200  0.42510900  1
  C  409  1  0.66108800  0.77641400  0.41340400  1
  C  410  1  0.65374500  0.76965900  0.39392800  1
  C  411  1  0.66028100  0.75018700  0.38608400  1
  C  412  1  0.67443400  0.73795100  0.39833300  1
  C  413  1  0.68172700  0.74467800  0.41774700  1
  C  414  1  0.69228100  0.76760500  0.46024000  1
  C  415  1  0.69444200  0.78082300  0.47731900  1
  C  416  1  0.68393800  0.80032200  0.47793300  1
  C  417  1  0.67076100  0.80612600  0.46096700  1
  C  418  1  0.66154600  0.81484200  0.41290200  1
  C  419  1  0.64322300  0.82691200  0.40958100  1
  C  420  1  0.62569300  0.81707400  0.41850900  1
  C  421  1  0.63265200  0.79873700  0.42784000  1
  C  422  1  0.60401800  0.82298400  0.41913300  1
  C  423  1  0.58927600  0.81023800  0.42959700  1
  C  424  1  0.59590200  0.79169200  0.43961400  1
  C  425  1  0.61786100  0.78594400  0.43837200  1
  C  426  1  0.68168400  0.82158200  0.40543400  1
  C  427  1  0.68335000  0.84075300  0.39485200  1
  C  428  1  0.66444800  0.85258700  0.39152000  1
  C  429  1  0.64438200  0.84579100  0.39885100  1
  C  442  1  0.65602300  0.79577800  0.42456300  1
  C  443  1  0.58150300  0.77966600  0.45092100  1
  C  444  1  0.70299500  0.84767700  0.38750800  1
  C  445  1  0.68655400  0.81366400  0.49456800  1
  C  446  1  0.65265400  0.74341000  0.36698800  1
  C  451  1  0.33066800  0.53819900  0.81024700  1
  C  452  1  0.31958900  0.53865400  0.79144300  1
  C  453  1  0.32403500  0.55724300  0.78152900  1
  C  454  1  0.33800200  0.56884700  0.79388100  1
  C  455  1  0.34533700  0.58839700  0.78709600  1
  C  456  1  0.33858400  0.59639800  0.76771800  1
  C  457  1  0.32416700  0.58426800  0.75563600  1
  C  458  1  0.31688300  0.56478500  0.76238800  1
  C  459  1  0.30658200  0.52200500  0.78521100  1
  C  460  1  0.30459400  0.50475900  0.79835100  1
  C  461  1  0.31538800  0.50395100  0.81770500  1
  C  462  1  0.32867600  0.52089400  0.82343900  1
  C  463  1  0.33806600  0.56898700  0.83223100  1
  C  464  1  0.35655900  0.57216100  0.84415700  1
  C  465  1  0.37393900  0.56327700  0.83419100  1
  C  466  1  0.36671900  0.55412000  0.81591100  1
  C  467  1  0.39567700  0.56249500  0.83997700  1
  C  468  1  0.41021900  0.55204400  0.82716600  1
  C  469  1  0.40332300  0.54218500  0.80868400  1
  C  470  1  0.38130900  0.54358700  0.80305900  1
  C  471  1  0.31801600  0.57634200  0.83918300  1
  C  472  1  0.31660200  0.58663600  0.85842600  1
  C  473  1  0.33568000  0.58982900  0.87010000  1
  C  474  1  0.35565600  0.58262100  0.86309200  1
  C  487  1  0.34331600  0.55748200  0.81312600  1
  C  488  1  0.41752900  0.53085700  0.79662500  1
  C  489  1  0.29703300  0.59382900  0.86557100  1
  C  490  1  0.31292700  0.48716000  0.83098500  1
  C  491  1  0.34621400  0.61554300  0.76087700  1
  C  496  1  0.33099300  0.42632500  0.18834600  1
  C  497  1  0.32003600  0.42570800  0.20715200  1
  C  498  1  0.32441800  0.40702700  0.21689300  1
  C  499  1  0.33822500  0.39553800  0.20442700  1
  C  500  1  0.34548200  0.37592700  0.21101100  1
  C  501  1  0.33880100  0.36774000  0.23030600  1
  C  502  1  0.32452700  0.37974000  0.24250700  1
  C  503  1  0.31732700  0.39929100  0.23595300  1
  C  504  1  0.30720100  0.44231500  0.21354600  1
  C  505  1  0.30525800  0.45968300  0.20056400  1
  C  506  1  0.31592700  0.46064700  0.18121600  1
  C  507  1  0.32904900  0.44374800  0.17531400  1
  C  508  1  0.33799900  0.39570400  0.16610800  1
  C  509  1  0.35637100  0.39259600  0.15413000  1
  C  510  1  0.37389500  0.40138100  0.16414100  1
  C  511  1  0.36688100  0.41041300  0.18249600  1
  C  512  1  0.39560800  0.40212600  0.15837100  1
  C  513  1  0.41033300  0.41241100  0.17127800  1
  C  514  1  0.40364200  0.42213300  0.18984200  1
  C  515  1  0.38165100  0.42076500  0.19545200  1
  C  516  1  0.31785400  0.38833800  0.15919500  1
  C  517  1  0.31622500  0.37807600  0.13994100  1
  C  518  1  0.33517600  0.37495800  0.12819700  1
  C  519  1  0.35525000  0.38218400  0.13517000  1
  C  532  1  0.34347800  0.40706400  0.18528100  1
  C  533  1  0.41802800  0.43328500  0.20201800  1
  C  534  1  0.29656500  0.37081400  0.13287800  1
  C  535  1  0.31350600  0.47754900  0.16809400  1
  C  536  1  0.34640900  0.34855900  0.23696100  1
  C  541  1  0.33094200  0.17062200  0.44495200  1
  C  542  1  0.32043500  0.18972300  0.44486500  1
  C  543  1  0.32478700  0.19977400  0.42638500  1
  C  544  1  0.33819000  0.18723200  0.41451500  1
  C  545  1  0.34494000  0.19388200  0.39480500  1
  C  546  1  0.33821400  0.21336400  0.38706800  1
  C  547  1  0.32441600  0.22569000  0.39939300  1
  C  548  1  0.31771400  0.21904300  0.41902400  1
  C  549  1  0.30792200  0.19604500  0.46168400  1
  C  550  1  0.30591700  0.18272500  0.47876500  1
  C  551  1  0.31618500  0.16310100  0.47921900  1
  C  552  1  0.32893300  0.15724600  0.46208600  1
  C  553  1  0.33715500  0.14885000  0.41385400  1
  C  554  1  0.35524000  0.13656700  0.41031600  1
  C  555  1  0.37301300  0.14597600  0.41927000  1
  C  556  1  0.36652600  0.16433100  0.42872300  1
  C  557  1  0.39447100  0.13943100  0.42009400  1
  C  558  1  0.40948500  0.15152900  0.43094800  1
  C  559  1  0.40340000  0.17010800  0.44111900  1
  C  560  1  0.38161800  0.17648100  0.43964300  1
  C  561  1  0.31681400  0.14246100  0.40650600  1
  C  562  1  0.31473200  0.12343100  0.39583400  1
  C  563  1  0.33341900  0.11140400  0.39225700  1
  C  564  1  0.35367300  0.11783800  0.39948300  1
  C  577  1  0.34316800  0.16770600  0.42557000  1
  C  578  1  0.41801500  0.18133000  0.45308800  1
  C  579  1  0.29489900  0.11677000  0.38866300  1
  C  580  1  0.31379700  0.14971200  0.49589300  1
  C  581  1  0.34448200  0.21993600  0.36758200  1
  C  586  1  0.33140400  0.79331400  0.55221400  1
  C  587  1  0.32049400  0.77435300  0.55216500  1
  C  588  1  0.32403900  0.76445100  0.57089200  1
  C  589  1  0.33721000  0.77700700  0.58312900  1
  C  590  1  0.34333300  0.77040900  0.60307700  1
  C  591  1  0.33622600  0.75097100  0.61067200  1
  C  592  1  0.32257300  0.73868600  0.59801100  1
  C  593  1  0.31647400  0.74528600  0.57815600  1
  C  594  1  0.30823700  0.76806000  0.53506800  1
  C  595  1  0.30673200  0.78134500  0.51791900  1
  C  596  1  0.31725300  0.80090900  0.51765500  1
  C  597  1  0.32990000  0.80665300  0.53499900  1
  C  598  1  0.33710100  0.81541800  0.58327500  1
  C  599  1  0.35547000  0.82697500  0.58813300  1
  C  600  1  0.37332600  0.81704100  0.58015000  1
  C  601  1  0.36660000  0.79912000  0.56994000  1
  C  602  1  0.39504600  0.82290800  0.58059100  1
  C  603  1  0.41009100  0.81061900  0.57018600  1
  C  604  1  0.40375800  0.79258300  0.55912800  1
  C  605  1  0.38172400  0.78677700  0.55946700  1
  C  606  1  0.31656100  0.82304400  0.58839800  1
  C  607  1  0.31461600  0.84239800  0.59847600  1
  C  608  1  0.33356900  0.85368400  0.60338800  1
  C  609  1  0.35400400  0.84606200  0.59831500  1
  C  622  1  0.34302700  0.79630600  0.57201700  1
  C  623  1  0.41843000  0.78143300  0.54733600  1
  C  624  1  0.29461500  0.85113000  0.60176600  1
  C  625  1  0.31494100  0.81444500  0.50107700  1
  C  626  1  0.34216700  0.74431000  0.63024900  1
  C  631  1  0.66933200  0.53631000  0.18838500  1
  C  632  1  0.68003500  0.53607200  0.20739100  1
  C  633  1  0.67584200  0.55446000  0.21761500  1
  C  634  1  0.66237000  0.56660700  0.20526700  1
  C  635  1  0.65577100  0.58630000  0.21210400  1
  C  636  1  0.66272500  0.59375500  0.23157200  1
  C  637  1  0.67658700  0.58114900  0.24369800  1
  C  638  1  0.68314000  0.56153400  0.23686900  1
  C  639  1  0.69263900  0.51910800  0.21343500  1
  C  640  1  0.69456300  0.50223700  0.19992500  1
  C  641  1  0.68412200  0.50213300  0.18038000  1
  C  642  1  0.67124900  0.51938300  0.17482200  1
  C  643  1  0.66301800  0.56784400  0.16700500  1
  C  644  1  0.64481700  0.57171300  0.15488600  1
  C  645  1  0.62709100  0.56269700  0.16426700  1
  C  646  1  0.63373200  0.55284600  0.18241700  1
  C  647  1  0.60554800  0.56213200  0.15785100  1
  C  648  1  0.59060300  0.55113500  0.16986600  1
  C  649  1  0.59683700  0.54056300  0.18823200  1
  C  650  1  0.61870600  0.54178500  0.19448400  1
  C  651  1  0.68335200  0.57509500  0.16056000  1
  C  652  1  0.68530400  0.58597500  0.14162500  1
  C  653  1  0.66650600  0.58992000  0.12978000  1
  C  654  1  0.64625500  0.58281500  0.13628500  1
  C  667  1  0.65714300  0.55583500  0.18571700  1
  C  668  1  0.58227500  0.52844800  0.19935200  1
  C  669  1  0.70514500  0.59290100  0.13482600  1
  C  670  1  0.68649700  0.48570500  0.16676800  1
  C  671  1  0.65658900  0.61323300  0.23830700  1
  C  676  1  0.66796000  0.42700000  0.80936800  1
  C  677  1  0.67846200  0.42736100  0.79032200  1
  C  678  1  0.67413700  0.40899700  0.78004400  1
  C  679  1  0.66077000  0.39673700  0.79238800  1
  C  680  1  0.65415600  0.37700400  0.78551900  1
  C  681  1  0.66099500  0.36962600  0.76603500  1
  C  682  1  0.67474600  0.38236000  0.75392100  1
  C  683  1  0.68130800  0.40201200  0.76077300  1
  C  684  1  0.69103400  0.44439600  0.78428700  1
  C  685  1  0.69313300  0.46122200  0.79785300  1
  C  686  1  0.68290000  0.46121000  0.81744100  1
  C  687  1  0.67005900  0.44388300  0.82298800  1
  C  688  1  0.66175300  0.39536000  0.83065200  1
  C  689  1  0.64364400  0.39139400  0.84279400  1
  C  690  1  0.62586500  0.40039900  0.83349400  1
  C  691  1  0.63237400  0.41034300  0.81536900  1
  C  692  1  0.60438900  0.40091400  0.83998900  1
  C  693  1  0.58938200  0.41197200  0.82809300  1
  C  694  1  0.59548900  0.42266500  0.80977200  1
  C  695  1  0.61728100  0.42146300  0.80341900  1
  C  696  1  0.68212300  0.38815600  0.83704100  1
  C  697  1  0.68420400  0.37720700  0.85593100  1
  C  698  1  0.66549200  0.37316900  0.86779700  1
  C  699  1  0.64521100  0.38024400  0.86136200  1
  C  712  1  0.65574700  0.40742000  0.81199500  1
  C  713  1  0.58088300  0.43486700  0.79880300  1
  C  714  1  0.70407200  0.37029300  0.86267400  1
  C  715  1  0.68546700  0.47759300  0.83110500  1
  C  716  1  0.65493700  0.35007400  0.75929700  1
  C  721  1  0.04787800  0.68058700  0.02920700  1
  C  722  1  0.04271400  0.69959900  0.01938200  1
  C  723  1  0.02388500  0.70080300  0.00700100  1
  C  724  1  0.01048500  0.68337400  0.00399700  1
  C  725  1  0.01567600  0.66477200  0.01430100  1
  C  726  1  0.03405300  0.66344900  0.02676600  1
  C  729  1  0.99271600  0.68375600  0.99021000  1
  C  730  1  0.97509200  0.69716700  0.99326400  1
  C  731  1  0.95633500  0.69522200  0.98114100  1
  C  732  1  0.95504500  0.67999200  0.96558500  1
  C  733  1  0.97294200  0.66722200  0.96198300  1
  C  734  1  0.99153800  0.66905600  0.97413600  1
  C  745  1  0.04699700  0.28360800  0.96912100  1
  C  746  1  0.04171700  0.26456100  0.97884800  1
  C  747  1  0.02297600  0.26335200  0.99125200  1
  C  748  1  0.00977200  0.28080600  0.99438200  1
  C  749  1  0.01508800  0.29945400  0.98419100  1
  C  750  1  0.03338000  0.30078500  0.97170700  1
  C  753  1  0.99203100  0.28037000  0.00811400  1
  C  754  1  0.97438200  0.26686800  0.00502500  1
  C  755  1  0.95566200  0.26873000  0.01708800  1
  C  756  1  0.95442800  0.28397000  0.03262400  1
  C  757  1  0.97234900  0.29683200  0.03626700  1
  C  758  1  0.99090900  0.29507600  0.02417500  1
  C  769  1  0.95190200  0.01209300  0.30011000  1
  C  770  1  0.95703800  0.00238600  0.28114400  1
  C  771  1  0.97575100  0.98991900  0.27996800  1
  C  772  1  0.98907300  0.98670400  0.29737300  1
  C  773  1  0.98390000  0.99688900  0.31593600  1
  C  774  1  0.96563600  0.00943200  0.31723500  1
  C  777  1  0.00677700  0.97288400  0.29697300  1
  C  778  1  0.02424000  0.97583500  0.28334000  1
  C  779  1  0.04291200  0.96363100  0.28514400  1
  C  780  1  0.04428400  0.94808400  0.30046000  1
  C  781  1  0.02654400  0.94458400  0.31347300  1
  C  782  1  0.00803300  0.95681300  0.31177000  1
  C  793  1  0.95262800  0.95187500  0.69801700  1
  C  794  1  0.95794500  0.96140300  0.71707500  1
  C  795  1  0.97670000  0.97391900  0.71834800  1
  C  796  1  0.98987900  0.97735600  0.70095100  1
  C  797  1  0.98451700  0.96737600  0.68228200  1
  C  798  1  0.96621400  0.95477900  0.68088700  1
  C  801  1  0.00766000  0.99117400  0.70147300  1
  C  802  1  0.02538800  0.98785000  0.71477700  1
  C  803  1  0.04416000  0.99999700  0.71293800  1
  C  804  1  0.04536700  0.01584900  0.69792300  1
  C  805  1  0.02736800  0.01972200  0.68527100  1
  C  806  1  0.00875600  0.00754500  0.68699900  1
  C  817  1  0.54794200  0.18030100  0.52913300  1
  C  818  1  0.54277600  0.19931600  0.51931200  1
  C  819  1  0.52392400  0.20053300  0.50696700  1
  C  820  1  0.51050300  0.18311400  0.50399400  1
  C  821  1  0.51569700  0.16450900  0.51429100  1
  C  822  1  0.53409700  0.16317600  0.52672100  1
  C  825  1  0.49270700  0.18351100  0.49024100  1
  C  826  1  0.47510400  0.19693800  0.49332700  1
  C  827  1  0.45633000  0.19502200  0.48122600  1
  C  828  1  0.45500100  0.17980300  0.46566200  1
  C  829  1  0.47287700  0.16701600  0.46202900  1
  C  830  1  0.49149100  0.16882000  0.47416100  1
  C  841  1  0.54674600  0.78384300  0.46882900  1
  C  842  1  0.54180400  0.76513100  0.47933400  1
  C  843  1  0.52304200  0.76411100  0.49172500  1
  C  844  1  0.50946500  0.78143100  0.49408000  1
  C  845  1  0.51442800  0.79969900  0.48306400  1
  C  846  1  0.53275200  0.80084300  0.47060500  1
  C  849  1  0.49179400  0.78128500  0.50792600  1
  C  850  1  0.47483400  0.76676000  0.50612800  1
  C  851  1  0.45630600  0.76846700  0.51848600  1
  C  852  1  0.45458000  0.78460000  0.53304300  1
  C  853  1  0.47181000  0.79858800  0.53538600  1
  C  854  1  0.49018000  0.79695700  0.52301300  1
  C  865  1  0.45197900  0.51228000  0.80077500  1
  C  866  1  0.45710800  0.50255700  0.78181500  1
  C  867  1  0.47577800  0.49002900  0.78066100  1
  C  868  1  0.48907200  0.48677000  0.79807900  1
  C  869  1  0.48390200  0.49696300  0.81663700  1
  C  870  1  0.46567900  0.50956500  0.81791700  1
  C  873  1  0.50676700  0.47293500  0.79767400  1
  C  874  1  0.52416700  0.47579700  0.78394800  1
  C  875  1  0.54280800  0.46354100  0.78568500  1
  C  876  1  0.54421500  0.44802800  0.80103000  1
  C  877  1  0.52654200  0.44462300  0.81415100  1
  C  878  1  0.50806200  0.45690700  0.81251500  1
  C  889  1  0.45255900  0.45188900  0.19799900  1
  C  890  1  0.45786300  0.46147900  0.21703000  1
  C  891  1  0.47662300  0.47399100  0.21827600  1
  C  892  1  0.48981600  0.47736100  0.20087600  1
  C  893  1  0.48447200  0.46731400  0.18223900  1
  C  894  1  0.46616400  0.45472300  0.18087300  1
  C  897  1  0.50758600  0.49118800  0.20136100  1
  C  898  1  0.52529000  0.48793400  0.21471100  1
  C  899  1  0.54405000  0.50009300  0.21285800  1
  C  900  1  0.54527100  0.51588500  0.19778000  1
  C  901  1  0.52729600  0.51968700  0.18507700  1
  C  902  1  0.50869300  0.50749900  0.18682100  1
  C  913  1  0.15500000  0.75045200  0.15412100  1
  C  914  1  0.13958900  0.74763900  0.17000100  1
  C  915  1  0.13742900  0.76308900  0.18537900  1
  C  916  1  0.14993800  0.78138200  0.18495200  1
  C  917  1  0.16529400  0.78372100  0.16910800  1
  C  918  1  0.16774300  0.76851200  0.15394600  1
  C  921  1  0.14745200  0.79731600  0.19985500  1
  C  922  1  0.14931600  0.79315100  0.22122700  1
  C  923  1  0.15015100  0.80944100  0.23562100  1
  C  924  1  0.14887400  0.83023700  0.22892400  1
  C  925  1  0.14604000  0.83436000  0.20773900  1
  C  926  1  0.14527800  0.81813600  0.19340100  1
  C  937  1  0.15423500  0.21376000  0.84398800  1
  C  938  1  0.13881200  0.21633400  0.82800700  1
  C  939  1  0.13683900  0.20085600  0.81261000  1
  C  940  1  0.14955000  0.18276500  0.81311400  1
  C  941  1  0.16492100  0.18067200  0.82905300  1
  C  942  1  0.16718700  0.19591200  0.84423800  1
  C  945  1  0.14726000  0.16679900  0.79819000  1
  C  946  1  0.14909600  0.17101000  0.77683500  1
  C  947  1  0.15014600  0.15474600  0.76243900  1
  C  948  1  0.14911800  0.13392600  0.76911700  1
  C  949  1  0.14631200  0.12974000  0.79027900  1
  C  950  1  0.14533200  0.14594100  0.80462000  1
  C  961  1  0.84529600  0.13748800  0.22999300  1
  C  962  1  0.86050300  0.15366000  0.23282200  1
  C  963  1  0.86266600  0.16908300  0.21731300  1
  C  964  1  0.85036000  0.16842400  0.19895100  1
  C  965  1  0.83523500  0.15226100  0.19657900  1
  C  966  1  0.83278800  0.13704600  0.21184100  1
  C  969  1  0.85271800  0.18347900  0.18304000  1
  C  970  1  0.85049500  0.20485200  0.18715200  1
  C  971  1  0.84942400  0.21933700  0.17088700  1
  C  972  1  0.85080700  0.21273900  0.15016200  1
  C  973  1  0.85401100  0.19157400  0.14608900  1
  C  974  1  0.85501700  0.17714500  0.16229200  1
  C  985  1  0.84569900  0.82574100  0.76764500  1
  C  986  1  0.86106700  0.80978200  0.76501900  1
  C  987  1  0.86318000  0.79435000  0.78052500  1
  C  988  1  0.85066900  0.79481400  0.79868700  1
  C  989  1  0.83536400  0.81074800  0.80084500  1
  C  990  1  0.83296200  0.82596100  0.78558000  1
  C  993  1  0.85305400  0.77982900  0.81464600  1
  C  994  1  0.85097400  0.75842300  0.81056200  1
  C  995  1  0.84993600  0.74397300  0.82685800  1
  C  996  1  0.85121500  0.75064700  0.84757600  1
  C  997  1  0.85428100  0.77185600  0.85162400  1
  C  998  1  0.85524800  0.78625200  0.83539300  1
  C  1009  1  0.65539000  0.25047600  0.65327500  1
  C  1010  1  0.63989400  0.24773000  0.66908900  1
  C  1011  1  0.63770700  0.26321000  0.68443600  1
  C  1012  1  0.65027400  0.28146900  0.68404400  1
  C  1013  1  0.66569900  0.28374800  0.66825500  1
  C  1014  1  0.66816900  0.26851200  0.65311800  1
  C  1017  1  0.64776900  0.29741800  0.69893700  1
  C  1018  1  0.64933900  0.29321800  0.72032300  1
  C  1019  1  0.65007500  0.30948300  0.73474900  1
  C  1020  1  0.64899300  0.33029500  0.72807000  1
  C  1021  1  0.64647100  0.33446100  0.70685800  1
  C  1022  1  0.64580400  0.31826000  0.69248900  1
  C  1033  1  0.65473900  0.71298500  0.34420200  1
  C  1034  1  0.63920800  0.71525100  0.32827200  1
  C  1035  1  0.63748500  0.69971500  0.31290500  1
  C  1036  1  0.65056000  0.68186500  0.31338500  1
  C  1037  1  0.66604600  0.68009300  0.32926000  1
  C  1038  1  0.66806600  0.69539600  0.34441300  1
  C  1041  1  0.64847300  0.66581100  0.29852500  1
  C  1042  1  0.64990600  0.66999400  0.27713400  1
  C  1043  1  0.65098700  0.65371400  0.26275700  1
  C  1044  1  0.65039600  0.63289700  0.26948900  1
  C  1045  1  0.64802400  0.62872100  0.29070300  1
  C  1046  1  0.64701800  0.64493900  0.30502500  1
  C  1057  1  0.34505800  0.63788000  0.72996400  1
  C  1058  1  0.36011000  0.65421400  0.73260900  1
  C  1059  1  0.36195800  0.66960700  0.71703100  1
  C  1060  1  0.34948000  0.66877800  0.69878200  1
  C  1061  1  0.33452200  0.65244600  0.69659100  1
  C  1062  1  0.33238600  0.63725700  0.71192200  1
  C  1065  1  0.35148800  0.68384300  0.68282800  1
  C  1066  1  0.34923000  0.70521000  0.68696000  1
  C  1067  1  0.34794700  0.71969800  0.67071200  1
  C  1068  1  0.34914000  0.71311700  0.64996900  1
  C  1069  1  0.35235100  0.69195900  0.64586200  1
  C  1070  1  0.35356200  0.67752500  0.66205000  1
  C  1081  1  0.34560900  0.32604900  0.26771000  1
  C  1082  1  0.36105000  0.31014900  0.26512400  1
  C  1083  1  0.36319700  0.29474000  0.28064600  1
  C  1084  1  0.35064600  0.29517400  0.29878300  1
  C  1085  1  0.33526600  0.31104500  0.30089900  1
  C  1086  1  0.33283100  0.32623600  0.28561600  1
  C  1089  1  0.35307100  0.28021900  0.31476500  1
  C  1090  1  0.35107700  0.25880300  0.31070500  1
  C  1091  1  0.35006800  0.24437200  0.32701600  1
  C  1092  1  0.35129000  0.25107800  0.34772700  1
  C  1093  1  0.35427600  0.27230100  0.35175200  1
  C  1094  1  0.35521300  0.28667900  0.33550500  1
  C  1105  1  0.28936700  0.50566900  0.15938700  1
  C  1106  1  0.29169500  0.50960400  0.13795900  1
  C  1107  1  0.28083400  0.52669600  0.12902800  1
  C  1108  1  0.26758000  0.53982900  0.14087200  1
  C  1109  1  0.26563900  0.53567200  0.16219900  1
  C  1110  1  0.27625700  0.51878600  0.17125400  1
  C  1113  1  0.25474800  0.55549900  0.13144900  1
  C  1114  1  0.24173600  0.55074900  0.11414300  1
  C  1115  1  0.22689300  0.56517200  0.10635900  1
  C  1116  1  0.22486200  0.58486600  0.11541100  1
  C  1117  1  0.23819200  0.58996200  0.13234600  1
  C  1118  1  0.25289500  0.57543300  0.14026600  1
  C  1129  1  0.28882400  0.45883500  0.83960500  1
  C  1130  1  0.29109700  0.45498700  0.86106500  1
  C  1131  1  0.28017400  0.43788800  0.86998100  1
  C  1132  1  0.26691400  0.42465300  0.85808800  1
  C  1133  1  0.26503600  0.42872200  0.83673000  1
  C  1134  1  0.27571200  0.44561300  0.82769200  1
  C  1137  1  0.25402900  0.40896200  0.86746900  1
  C  1138  1  0.24099500  0.41371500  0.88466300  1
  C  1139  1  0.22610100  0.39925900  0.89237800  1
  C  1140  1  0.22404000  0.37952800  0.88337600  1
  C  1141  1  0.23739400  0.37443000  0.86656000  1
  C  1142  1  0.25214800  0.38899100  0.85870500  1
  C  1153  1  0.71153900  0.14126800  0.47512100  1
  C  1154  1  0.70923000  0.11975300  0.47136500  1
  C  1155  1  0.72002900  0.11083600  0.45434500  1
  C  1156  1  0.73319900  0.12277900  0.44108700  1
  C  1157  1  0.73513000  0.14418800  0.44507300  1
  C  1158  1  0.72458100  0.15322800  0.46189000  1
  C  1161  1  0.74592000  0.11340000  0.42542200  1
  C  1162  1  0.75895300  0.09610400  0.43014800  1
  C  1163  1  0.77368800  0.08838600  0.41570100  1
  C  1164  1  0.77558400  0.09748300  0.39600100  1
  C  1165  1  0.76222300  0.11439900  0.39093200  1
  C  1166  1  0.74763300  0.12225800  0.40548400  1
  C  1177  1  0.71075800  0.82218200  0.52278200  1
  C  1178  1  0.70860500  0.84368200  0.52661300  1
  C  1179  1  0.71960500  0.85254500  0.54363800  1
  C  1180  1  0.73281800  0.84056000  0.55682400  1
  C  1181  1  0.73458600  0.81916400  0.55277100  1
  C  1182  1  0.72383400  0.81017900  0.53594900  1
  C  1185  1  0.74573500  0.84989100  0.57248400  1
  C  1186  1  0.75883400  0.86720100  0.56777400  1
  C  1187  1  0.77373300  0.87488600  0.58221500  1
  C  1188  1  0.77573600  0.86573600  0.60188500  1
  C  1189  1  0.76231900  0.84879800  0.60693700  1
  C  1190  1  0.74756200  0.84097500  0.59239200  1
  C  1201  1  0.70948900  0.50589000  0.84001700  1
  C  1202  1  0.70738000  0.50933000  0.86152600  1
  C  1203  1  0.71821700  0.52636800  0.87061100  1
  C  1204  1  0.73121900  0.53993900  0.85883400  1
  C  1205  1  0.73297600  0.53624200  0.83743300  1
  C  1206  1  0.72238200  0.51941900  0.82822600  1
  C  1209  1  0.74397300  0.55563200  0.86834600  1
  C  1210  1  0.75721400  0.55076200  0.88546100  1
  C  1211  1  0.77202900  0.56525200  0.89324500  1
  C  1212  1  0.77379700  0.58512100  0.88438800  1
  C  1213  1  0.76021300  0.59034200  0.86767600  1
  C  1214  1  0.74553300  0.57575100  0.85975700  1
  C  1225  1  0.71030600  0.45749100  0.15775000  1
  C  1226  1  0.70801700  0.45411400  0.13623100  1
  C  1227  1  0.71863500  0.43707300  0.12709200  1
  C  1228  1  0.73159700  0.42343600  0.13882300  1
  C  1229  1  0.73354100  0.42707600  0.16023200  1
  C  1230  1  0.72316600  0.44390200  0.16949200  1
  C  1233  1  0.74414300  0.40773600  0.12925800  1
  C  1234  1  0.75730300  0.41261700  0.11214200  1
  C  1235  1  0.77195400  0.39812200  0.10432200  1
  C  1236  1  0.77363100  0.37823300  0.11314200  1
  C  1237  1  0.76011600  0.37299900  0.12984700  1
  C  1238  1  0.74560400  0.38759500  0.13780200  1
  C  1249  1  0.29001700  0.14117600  0.52430900  1
  C  1250  1  0.29230700  0.11968900  0.52826800  1
  C  1251  1  0.28163500  0.11082800  0.54546800  1
  C  1252  1  0.26861400  0.12280300  0.55869100  1
  C  1253  1  0.26668600  0.14418200  0.55449100  1
  C  1254  1  0.27712400  0.15316900  0.53750400  1
  C  1257  1  0.25596400  0.11346300  0.57451100  1
  C  1258  1  0.24280600  0.09615400  0.56998700  1
  C  1259  1  0.22804900  0.08852800  0.58454200  1
  C  1260  1  0.22625700  0.09775100  0.60413200  1
  C  1261  1  0.23976400  0.11466000  0.60901900  1
  C  1262  1  0.25438800  0.12241700  0.59436000  1
  C  1273  1  0.29093300  0.82322300  0.47275600  1
  C  1274  1  0.29301400  0.84479800  0.46914100  1
  C  1275  1  0.28206000  0.85380900  0.45214900  1
  C  1276  1  0.26896600  0.84188900  0.43879600  1
  C  1277  1  0.26725500  0.82041900  0.44265300  1
  C  1278  1  0.27796300  0.81128800  0.45943600  1
  C  1281  1  0.25606000  0.85131500  0.42318100  1
  C  1282  1  0.24279000  0.86835400  0.42803100  1
  C  1283  1  0.22781900  0.87601200  0.41364900  1
  C  1284  1  0.22592300  0.86710600  0.39390300  1
  C  1285  1  0.23953100  0.85047100  0.38870400  1
  C  1286  1  0.25436200  0.84267400  0.40318800  1
  C  1297  1  0.78942300  0.00539100  0.65938700  1
  C  1298  1  0.79176400  0.00930900  0.63795700  1
  C  1299  1  0.78089900  0.02638700  0.62900200  1
  C  1300  1  0.76762700  0.03952200  0.64082600  1
  C  1301  1  0.76567100  0.03538300  0.66215500  1
  C  1302  1  0.77629400  0.01850900  0.67123300  1
  C  1305  1  0.75479300  0.05517500  0.63137900  1
  C  1306  1  0.74179100  0.05039800  0.61407400  1
  C  1307  1  0.72694800  0.06480900  0.60626300  1
  C  1308  1  0.72491400  0.08451600  0.61528500  1
  C  1309  1  0.73823300  0.08963800  0.63222100  1
  C  1310  1  0.75293400  0.07512000  0.64016900  1
  C  1321  1  0.78890100  0.95767000  0.33823600  1
  C  1322  1  0.79154400  0.95355800  0.35961000  1
  C  1323  1  0.78065300  0.93643900  0.36851700  1
  C  1324  1  0.76706400  0.92344300  0.35670500  1
  C  1325  1  0.76482900  0.92776000  0.33542700  1
  C  1326  1  0.77547400  0.94467600  0.32639700  1
  C  1329  1  0.75419400  0.90777800  0.36614500  1
  C  1330  1  0.74150500  0.91249400  0.38358300  1
  C  1331  1  0.72660400  0.89810400  0.39140700  1
  C  1332  1  0.72420100  0.87847300  0.38226700  1
  C  1333  1  0.73721000  0.87340600  0.36519300  1
  C  1334  1  0.75196300  0.88790600  0.35723000  1
  C  1345  1  0.21205700  0.64222500  0.97568300  1
  C  1346  1  0.20981600  0.62071800  0.97184200  1
  C  1347  1  0.22071000  0.61188900  0.95483300  1
  C  1348  1  0.23390700  0.62391000  0.94167000  1
  C  1349  1  0.23577900  0.64530600  0.94574500  1
  C  1350  1  0.22513700  0.65426000  0.96255400  1
  C  1353  1  0.24667800  0.61462000  0.92599100  1
  C  1354  1  0.25971600  0.59731200  0.93065900  1
  C  1355  1  0.27445700  0.58964900  0.91618700  1
  C  1356  1  0.27635100  0.59881500  0.89651900  1
  C  1357  1  0.26299500  0.61575500  0.89151000  1
  C  1358  1  0.24840400  0.62355800  0.90608900  1
  C  1369  1  0.21065300  0.32198600  0.02301600  1
  C  1370  1  0.20843900  0.34348500  0.02682100  1
  C  1371  1  0.21939900  0.35238800  0.04384600  1
  C  1372  1  0.23263900  0.34044800  0.05704700  1
  C  1373  1  0.23446900  0.31905300  0.05301500  1
  C  1374  1  0.22375500  0.31002500  0.03619600  1
  C  1377  1  0.24554400  0.34983200  0.07268100  1
  C  1378  1  0.25861200  0.36715000  0.06792700  1
  C  1379  1  0.27350900  0.37488500  0.08234000  1
  C  1380  1  0.27554100  0.36577200  0.10202600  1
  C  1381  1  0.26215700  0.34882500  0.10712100  1
  C  1382  1  0.24739800  0.34095500  0.09260400  1
  C  1393  1  0.20921200  0.00699000  0.33892200  1
  C  1394  1  0.20669200  0.01073200  0.36033800  1
  C  1395  1  0.21749300  0.02779800  0.36940300  1
  C  1396  1  0.23086900  0.04109400  0.35770300  1
  C  1397  1  0.23301700  0.03711500  0.33638800  1
  C  1398  1  0.22245500  0.02026200  0.32719900  1
  C  1401  1  0.24362500  0.05674600  0.36727000  1
  C  1402  1  0.25649100  0.05189700  0.38465300  1
  C  1403  1  0.27133800  0.06629500  0.39254700  1
  C  1404  1  0.27350600  0.08605400  0.38353000  1
  C  1405  1  0.26030100  0.09126100  0.36653400  1
  C  1406  1  0.24559200  0.07675600  0.35850600  1
  C  1417  1  0.21165100  0.95706800  0.66140300  1
  C  1418  1  0.20432700  0.94677100  0.64338300  1
  C  1419  1  0.21567000  0.92919000  0.63624100  1
  C  1420  1  0.23414200  0.92159700  0.64653700  1
  C  1421  1  0.24110200  0.93218700  0.66441500  1
  C  1422  1  0.23002200  0.94954500  0.67172000  1
  C  1425  1  0.24625100  0.90459300  0.63866700  1
  C  1426  1  0.25126700  0.90331900  0.61740800  1
  C  1427  1  0.26534800  0.88808900  0.60996700  1
  C  1428  1  0.27474100  0.87359600  0.62359200  1
  C  1429  1  0.26955300  0.87449300  0.64470200  1
  C  1430  1  0.25526800  0.88956800  0.65207600  1
  C  1441  1  0.79013500  0.64113200  0.02438500  1
  C  1442  1  0.79241000  0.61963600  0.02830700  1
  C  1443  1  0.78170900  0.61074800  0.04547700  1
  C  1444  1  0.76867600  0.62270500  0.05870300  1
  C  1445  1  0.76676500  0.64409300  0.05454200  1
  C  1446  1  0.77722900  0.65310600  0.03758300  1
  C  1449  1  0.75599300  0.61334000  0.07448200  1
  C  1450  1  0.74280800  0.59606800  0.06989500  1
  C  1451  1  0.72802800  0.58842000  0.08441700  1
  C  1452  1  0.72624500  0.59758000  0.10403600  1
  C  1453  1  0.73977200  0.61445600  0.10898200  1
  C  1454  1  0.75441700  0.62223800  0.09435600  1
  C  1465  1  0.78956100  0.32209900  0.97311400  1
  C  1466  1  0.79207500  0.34355600  0.96904100  1
  C  1467  1  0.78132600  0.35239900  0.95184400  1
  C  1468  1  0.76801600  0.34044000  0.93872800  1
  C  1469  1  0.76588300  0.31909000  0.94302500  1
  C  1470  1  0.77639000  0.31012100  0.96001500  1
  C  1473  1  0.75528300  0.34979100  0.92294000  1
  C  1474  1  0.74236300  0.36716500  0.92748300  1
  C  1475  1  0.72752000  0.37481900  0.91298000  1
  C  1476  1  0.72541400  0.36557000  0.89341400  1
  C  1477  1  0.73867800  0.34858900  0.88850900  1
  C  1478  1  0.75337700  0.34079600  0.90312100  1
  N  740  1  0.05652100  0.71681900  0.02175500  1
  N  743  1  0.06525200  0.67656500  0.04032300  1
  N  744  1  0.93742900  0.67505100  0.95527700  1
  N  764  1  0.05532300  0.24730200  0.97635200  1
  N  767  1  0.06428900  0.28761200  0.95793800  1
  N  768  1  0.93684500  0.28882700  0.04287300  1
  N  788  1  0.94331400  0.00495700  0.26393800  1
  N  791  1  0.93463800  0.02330000  0.30408500  1
  N  792  1  0.06185100  0.93764500  0.30518800  1
  N  812  1  0.94436800  0.95859400  0.73428600  1
  N  815  1  0.93534700  0.94058500  0.69397700  1
  N  816  1  0.06298000  0.02620400  0.69306000  1
  N  836  1  0.55660400  0.21652400  0.52165000  1
  N  839  1  0.56533400  0.17627000  0.54021800  1
  N  840  1  0.43737600  0.17490800  0.45535100  1
  N  860  1  0.55578000  0.74804500  0.47764600  1
  N  863  1  0.56410300  0.78774400  0.45770300  1
  N  864  1  0.43713300  0.78899600  0.54369600  1
  N  884  1  0.44343200  0.50519700  0.76458300  1
  N  887  1  0.43478600  0.52360000  0.80471000  1
  N  888  1  0.56174100  0.43746800  0.80562600  1
  N  908  1  0.44426500  0.45873800  0.23423700  1
  N  911  1  0.43526100  0.44062400  0.19397400  1
  N  912  1  0.56287400  0.52626000  0.19293000  1
  N  932  1  0.12634200  0.72985000  0.16999700  1
  N  935  1  0.15844000  0.73800400  0.13828100  1
  N  936  1  0.15305200  0.84647700  0.24067000  1
  N  956  1  0.12538400  0.23391800  0.82792400  1
  N  959  1  0.15749900  0.22623600  0.85986800  1
  N  960  1  0.15351400  0.11776900  0.75738800  1
  N  980  1  0.87352800  0.15391000  0.25070800  1
  N  983  1  0.84179900  0.12164500  0.24255800  1
  N  984  1  0.84636400  0.22449500  0.13396100  1
  N  1004  1  0.87430700  0.80976000  0.74735400  1
  N  1007  1  0.84229900  0.84162400  0.75512200  1
  N  1008  1  0.84680500  0.73889300  0.86377200  1
  N  1028  1  0.62657500  0.22999000  0.66904400  1
  N  1031  1  0.65885900  0.23798900  0.63747100  1
  N  1032  1  0.65304400  0.34650100  0.73990500  1
  N  1052  1  0.62543900  0.73258700  0.32819800  1
  N  1055  1  0.65777800  0.72551500  0.36008200  1
  N  1056  1  0.65463800  0.61674900  0.25769000  1
  N  1076  1  0.37326700  0.65468300  0.75040000  1
  N  1079  1  0.34178400  0.62208400  0.74265000  1
  N  1080  1  0.34476300  0.72492300  0.63377900  1
  N  1100  1  0.37433500  0.31017200  0.24748900  1
  N  1103  1  0.34218600  0.34192000  0.25517700  1
  N  1104  1  0.34690100  0.23933100  0.36393200  1
  N  1124  1  0.30387500  0.49594600  0.12568500  1
  N  1127  1  0.29683700  0.48916100  0.16925500  1
  N  1128  1  0.20852400  0.59641000  0.10913600  1
  N  1148  1  0.30329500  0.46872600  0.87338000  1
  N  1151  1  0.29635100  0.47532700  0.82971400  1
  N  1152  1  0.20765500  0.36794200  0.88955600  1
  N  1172  1  0.69710600  0.10738600  0.48511300  1
  N  1175  1  0.70408000  0.15117600  0.49150600  1
  N  1176  1  0.79185900  0.09131800  0.38441300  1
  N  1196  1  0.69643500  0.85609400  0.51293700  1
  N  1199  1  0.70310000  0.81231200  0.50639500  1
  N  1200  1  0.79211000  0.87191800  0.61347600  1
  N  1220  1  0.69541900  0.49527400  0.87370800  1
  N  1223  1  0.70190400  0.48960200  0.82989800  1
  N  1224  1  0.79023500  0.59668600  0.89046600  1
  N  1244  1  0.69610200  0.46823900  0.12409600  1
  N  1247  1  0.70294100  0.47378200  0.16790500  1
  N  1248  1  0.78997400  0.36668100  0.10707800  1
  N  1268  1  0.30426800  0.10728500  0.51455900  1
  N  1271  1  0.29741700  0.15106200  0.50782000  1
  N  1272  1  0.20985500  0.09178500  0.61570500  1
  N  1292  1  0.30505400  0.85710500  0.48300600  1
  N  1295  1  0.29849700  0.81320400  0.48911200  1
  N  1296  1  0.20937900  0.87304900  0.38244300  1
  N  1316  1  0.80396200  0.99564800  0.62570300  1
  N  1319  1  0.79689300  0.98889200  0.66926800  1
  N  1320  1  0.70858100  0.09605400  0.60898900  1
  N  1340  1  0.80406900  0.96706800  0.37187700  1
  N  1343  1  0.79636000  0.97423600  0.32841500  1
  N  1344  1  0.70779800  0.86698900  0.38857800  1
  N  1364  1  0.19765700  0.60827700  0.98549400  1
  N  1367  1  0.20448000  0.65205800  0.99206200  1
  N  1368  1  0.29259500  0.59265800  0.88488600  1
  N  1388  1  0.19626100  0.35585200  0.01311100  1
  N  1391  1  0.20306600  0.31211700  0.00659900  1
  N  1392  1  0.29192100  0.37199200  0.11358600  1
  N  1412  1  0.19437400  0.99693000  0.37248000  1
  N  1415  1  0.20173200  0.99059800  0.32890100  1
  N  1416  1  0.28997900  0.09748200  0.38975400  1
  N  1436  1  0.18614900  0.95423500  0.63262400  1
  N  1439  1  0.20309300  0.97377200  0.66989800  1
  N  1440  1  0.29119800  0.86196200  0.61801000  1
  N  1460  1  0.80438100  0.60725400  0.01458400  1
  N  1463  1  0.79753300  0.65102300  0.00789900  1
  N  1464  1  0.70983100  0.59160500  0.11559100  1
  N  1484  1  0.80433600  0.35595900  0.98264200  1
  N  1487  1  0.79697900  0.31226000  0.98964700  1
  N  1488  1  0.70892900  0.37154400  0.88190400  1
  O  741  1  0.06409200  0.72261700  0.00473900  1
  O  742  1  0.04694800  0.73178800  0.02990100  1
  O  765  1  0.06297600  0.24137800  0.99332100  1
  O  766  1  0.04552800  0.23241400  0.96813900  1
  O  789  1  0.93559500  0.98796800  0.25808500  1
  O  790  1  0.95301700  0.01322600  0.24906400  1
  O  813  1  0.93673500  0.97549200  0.74033100  1
  O  814  1  0.95418100  0.95020900  0.74905200  1
  O  837  1  0.56414600  0.22230800  0.50461600  1
  O  838  1  0.54706400  0.23150800  0.52980700  1
  O  861  1  0.56346500  0.74300100  0.49488300  1
  O  862  1  0.54633500  0.73263500  0.47003800  1
  O  885  1  0.43565800  0.48823900  0.75869900  1
  O  886  1  0.45320000  0.51344100  0.74973600  1
  O  909  1  0.43663700  0.47566200  0.24021700  1
  O  910  1  0.45405600  0.45039900  0.24904100  1
  O  933  1  0.10683100  0.73452200  0.16827000  1
  O  934  1  0.12882200  0.71938600  0.18619000  1
  O  957  1  0.10592100  0.22894500  0.82951100  1
  O  958  1  0.12777900  0.24442600  0.81175300  1
  O  981  1  0.89311000  0.15247800  0.24628100  1
  O  982  1  0.87074600  0.17013700  0.26097300  1
  O  1005  1  0.89382200  0.81144400  0.75211500  1
  O  1006  1  0.87178400  0.79352700  0.73699900  1
  O  1029  1  0.60709200  0.23473000  0.66721800  1
  O  1030  1  0.62893200  0.21953700  0.68525900  1
  O  1053  1  0.60607800  0.72727100  0.32984800  1
  O  1054  1  0.62758200  0.74311100  0.31200500  1
  O  1077  1  0.39283200  0.65345000  0.74584000  1
  O  1078  1  0.37037000  0.67091500  0.76062500  1
  O  1101  1  0.39383100  0.31194000  0.25229300  1
  O  1102  1  0.37191100  0.29392300  0.23714000  1
  O  1125  1  0.31921300  0.50519000  0.11705700  1
  O  1126  1  0.29250000  0.48742600  0.11207900  1
  O  1149  1  0.31859300  0.45956400  0.88215200  1
  O  1150  1  0.29192100  0.47725800  0.88687300  1
  O  1173  1  0.68173900  0.09862100  0.47601100  1
  O  1174  1  0.70852000  0.09382300  0.49366900  1
  O  1197  1  0.68119700  0.86481700  0.52210500  1
  O  1198  1  0.70785100  0.86969100  0.50440400  1
  O  1221  1  0.68011700  0.50415000  0.88262800  1
  O  1222  1  0.70699300  0.48660200  0.88706900  1
  O  1245  1  0.68065700  0.45943000  0.11515900  1
  O  1246  1  0.70766500  0.47691900  0.11075400  1
  O  1269  1  0.31968600  0.09860700  0.52363100  1
  O  1270  1  0.29273600  0.09365100  0.50624000  1
  O  1293  1  0.32029500  0.86613600  0.47400500  1
  O  1294  1  0.29352500  0.87044300  0.49162200  1
  O  1317  1  0.81930200  0.00489400  0.61707800  1
  O  1318  1  0.79260300  0.98711000  0.61209500  1
  O  1341  1  0.81945500  0.95769800  0.38028100  1
  O  1342  1  0.79301300  0.97552200  0.38565800  1
  O  1365  1  0.18235000  0.59951500  0.97629600  1
  O  1366  1  0.20906100  0.59470600  0.99404700  1
  O  1389  1  0.18099300  0.36455900  0.02224700  1
  O  1390  1  0.20766100  0.36946000  0.00457300  1
  O  1413  1  0.17897100  0.00604100  0.38099600  1
  O  1414  1  0.20560600  0.98834400  0.38616200  1
  O  1437  1  0.17142900  0.94090900  0.63187100  1
  O  1438  1  0.19083600  0.95963800  0.61454700  1
  O  1461  1  0.81978300  0.59855100  0.02365500  1
  O  1462  1  0.79285100  0.59364400  0.00622500  1
  O  1485  1  0.81976700  0.36450000  0.97346800  1
  O  1486  1  0.79306400  0.36970000  0.99094000  1
