# generated using pymatgen
data_H32C53(N3O2)4
_symmetry_space_group_name_H-M   'P 1'
_cell_length_a   30.64460000
_cell_length_b   64.61525000
_cell_length_c   64.61490000
_cell_angle_alpha   119.99946245
_cell_angle_beta   90.00000000
_cell_angle_gamma   89.73759858
_symmetry_Int_Tables_number   1
_chemical_formula_structural   H32C53(N3O2)4
_chemical_formula_sum   'H384 C636 N144 O96'
_cell_volume   110802.24858488
_cell_formula_units_Z   12
loop_
 _symmetry_equiv_pos_site_id
 _symmetry_equiv_pos_as_xyz
  1  'x, y, z'
loop_
 _atom_site_type_symbol
 _atom_site_label
 _atom_site_symmetry_multiplicity
 _atom_site_fract_x
 _atom_site_fract_y
 _atom_site_fract_z
 _atom_site_occupancy
  H  25  1  0.61815900  0.51720500  0.42017000  1
  H  26  1  0.66037200  0.51781700  0.38937900  1
  H  27  1  0.70803500  0.52525400  0.36333500  1
  H  28  1  0.75950100  0.53788900  0.34416700  1
  H  29  1  0.80725500  0.59066100  0.41151200  1
  H  30  1  0.69024400  0.57537600  0.47298100  1
  H  31  1  0.68148900  0.60661100  0.42833200  1
  H  32  1  0.72342500  0.67369900  0.48429000  1
  H  33  1  0.77754000  0.65425200  0.49579000  1
  H  34  1  0.80263900  0.54462900  0.44057400  1
  H  35  1  0.82842300  0.62769100  0.50138000  1
  H  36  1  0.87281300  0.59646400  0.50041800  1
  H  66  1  0.28600400  0.92143000  0.50189900  1
  H  67  1  0.32834800  0.89001600  0.50138500  1
  H  68  1  0.37613500  0.85649600  0.49403600  1
  H  69  1  0.42769800  0.82454600  0.48140700  1
  H  70  1  0.47540700  0.83845800  0.42810600  1
  H  71  1  0.35803100  0.91534700  0.44321600  1
  H  72  1  0.34941500  0.83978500  0.41239100  1
  H  73  1  0.39196200  0.82813100  0.34509500  1
  H  74  1  0.44618800  0.85877300  0.36430300  1
  H  75  1  0.47012000  0.91378200  0.47390700  1
  H  76  1  0.49686900  0.89084300  0.39066900  1
  H  77  1  0.54075400  0.92121000  0.42173600  1
  H  107  1  0.95118000  0.60041100  0.09960300  1
  H  108  1  0.99294900  0.63120500  0.13111000  1
  H  109  1  0.04057000  0.65725500  0.16454800  1
  H  110  1  0.09223700  0.67640700  0.19621600  1
  H  111  1  0.14074300  0.60904100  0.18181000  1
  H  112  1  0.02403800  0.54759700  0.10511800  1
  H  113  1  0.01466600  0.59209600  0.18090000  1
  H  114  1  0.05765300  0.53610300  0.19200800  1
  H  115  1  0.11200300  0.52474700  0.16124100  1
  H  116  1  0.13560000  0.57992300  0.10679600  1
  H  117  1  0.16284500  0.51920100  0.12915600  1
  H  118  1  0.20685000  0.52009900  0.09883200  1
  H  148  1  0.11899000  0.50721500  0.59385800  1
  H  149  1  0.16089700  0.50651600  0.62470500  1
  H  150  1  0.20882100  0.49922300  0.65082400  1
  H  151  1  0.26085400  0.48681300  0.67004700  1
  H  152  1  0.30917300  0.43370300  0.60274000  1
  H  153  1  0.19191700  0.44881500  0.54114500  1
  H  154  1  0.18313600  0.41752900  0.58573200  1
  H  155  1  0.22694200  0.35040500  0.53009200  1
  H  156  1  0.28094600  0.36983000  0.51873100  1
  H  157  1  0.30295600  0.47951900  0.57339500  1
  H  158  1  0.33124900  0.39639600  0.51306500  1
  H  159  1  0.37465700  0.42765400  0.51382700  1
  H  189  1  0.78456700  0.10502000  0.51176400  1
  H  190  1  0.82630300  0.13660000  0.51261700  1
  H  191  1  0.87409000  0.16998700  0.52002900  1
  H  192  1  0.92599000  0.20149100  0.53248300  1
  H  193  1  0.97428700  0.18662100  0.58506700  1
  H  194  1  0.85743200  0.11000500  0.56969900  1
  H  195  1  0.84849900  0.18620500  0.60145700  1
  H  196  1  0.89169300  0.19709500  0.66834400  1
  H  197  1  0.94559900  0.16601400  0.64866200  1
  H  198  1  0.96873000  0.11166400  0.53895100  1
  H  199  1  0.99614800  0.13373300  0.62187800  1
  H  200  1  0.04003800  0.10334400  0.59043900  1
  H  230  1  0.45264900  0.42665100  0.91590000  1
  H  231  1  0.49498300  0.39582200  0.88442800  1
  H  232  1  0.54295700  0.36973100  0.85097000  1
  H  233  1  0.59481600  0.35051800  0.81922000  1
  H  234  1  0.64241100  0.41782000  0.83365600  1
  H  235  1  0.52480300  0.47940000  0.91042400  1
  H  236  1  0.51661200  0.43472900  0.83446800  1
  H  237  1  0.55930900  0.49040100  0.82305100  1
  H  238  1  0.61310400  0.50187400  0.85400100  1
  H  239  1  0.63663500  0.44707900  0.90890200  1
  H  240  1  0.66352100  0.50751800  0.88625200  1
  H  241  1  0.70729000  0.50667300  0.91668600  1
  H  253  1  0.96594600  0.54328500  0.22439700  1
  H  260  1  0.85074900  0.59431000  0.29862900  1
  H  261  1  0.95900300  0.55852000  0.30582600  1
  H  262  1  0.94469200  0.61452500  0.30149600  1
  H  264  1  0.78626700  0.59863300  0.32039200  1
  H  265  1  0.78065900  0.58798800  0.33875700  1
  H  269  1  0.92125100  0.52146700  0.23645900  1
  H  270  1  0.89848900  0.53351500  0.26325100  1
  H  277  1  0.83268100  0.54242200  0.33581000  1
  H  278  1  0.04191100  0.58243700  0.23446300  1
  H  285  1  0.63285300  0.69911000  0.47658300  1
  H  292  1  0.51851100  0.72229400  0.42548900  1
  H  293  1  0.62707400  0.76476500  0.46035600  1
  H  294  1  0.61271200  0.70427200  0.40492500  1
  H  296  1  0.45411700  0.73997300  0.42130900  1
  H  297  1  0.44866800  0.76896600  0.43170700  1
  H  301  1  0.58832300  0.73332300  0.49823800  1
  H  302  1  0.56594600  0.74799700  0.48600800  1
  H  309  1  0.50104300  0.81153900  0.47671400  1
  H  310  1  0.70891900  0.66914200  0.43727400  1
  H  317  1  0.30007800  0.79597900  0.32005300  1
  H  324  1  0.18507400  0.72228700  0.29781100  1
  H  325  1  0.29248100  0.71443600  0.25424100  1
  H  326  1  0.27910800  0.71927600  0.31491700  1
  H  328  1  0.12053600  0.70067600  0.28075900  1
  H  329  1  0.11456800  0.68216700  0.25180800  1
  H  333  1  0.25500900  0.78388600  0.28626900  1
  H  334  1  0.23217300  0.75719700  0.27177200  1
  H  341  1  0.16560200  0.68458600  0.20876200  1
  H  342  1  0.37646800  0.78589500  0.34907400  1
  H  349  1  0.46818900  0.48303800  0.79017300  1
  H  356  1  0.35398400  0.43153100  0.71631500  1
  H  357  1  0.46148900  0.46678700  0.70823700  1
  H  358  1  0.44838100  0.41129800  0.71346900  1
  H  360  1  0.28937500  0.42703700  0.69467300  1
  H  361  1  0.28336000  0.43735500  0.67605000  1
  H  365  1  0.42329300  0.50460300  0.77771400  1
  H  366  1  0.40084500  0.49231500  0.75088800  1
  H  373  1  0.33454500  0.48250800  0.67814900  1
  H  374  1  0.54469300  0.44401100  0.78073100  1
  H  381  1  0.13465000  0.32513300  0.53691100  1
  H  388  1  0.01954800  0.30276100  0.58834200  1
  H  389  1  0.12673300  0.25891400  0.55216100  1
  H  390  1  0.11367100  0.31947300  0.60823100  1
  H  392  1  0.95484000  0.28585400  0.59296600  1
  H  393  1  0.94865400  0.25689900  0.58239100  1
  H  397  1  0.08958100  0.29144700  0.51517600  1
  H  398  1  0.06673200  0.27684300  0.52728000  1
  H  405  1  0.99951800  0.21379800  0.53666100  1
  H  406  1  0.21103700  0.35383300  0.57578900  1
  H  413  1  0.80078900  0.23021500  0.69404100  1
  H  420  1  0.68636700  0.30459300  0.71734100  1
  H  421  1  0.79475100  0.31205100  0.76008200  1
  H  422  1  0.78065800  0.30729200  0.69968600  1
  H  424  1  0.62181000  0.32637800  0.73488100  1
  H  425  1  0.61615800  0.34486100  0.76387800  1
  H  429  1  0.75629400  0.24265800  0.72817500  1
  H  430  1  0.73391900  0.26958300  0.74295000  1
  H  437  1  0.66839700  0.34225700  0.80651200  1
  H  438  1  0.87683300  0.23961200  0.66436200  1
  H  445  1  0.88790200  0.51045700  0.47043200  1
  H  452  1  0.01199400  0.53721700  0.53825700  1
  H  453  1  0.02482800  0.46927900  0.47754800  1
  H  454  1  0.03508100  0.53778600  0.49669100  1
  H  456  1  0.04634600  0.54599300  0.57411200  1
  H  457  1  0.07606500  0.52640200  0.57728100  1
  H  461  1  0.89565800  0.48185700  0.48284900  1
  H  462  1  0.94064400  0.47896900  0.49534400  1
  H  469  1  0.06779900  0.47993500  0.55855900  1
  H  470  1  0.92268400  0.55824100  0.46058200  1
  H  477  1  0.55460300  0.97780700  0.50775500  1
  H  484  1  0.67892100  0.01914700  0.48110500  1
  H  485  1  0.69028900  0.02613800  0.54896600  1
  H  486  1  0.70180000  0.97696600  0.48023400  1
  H  488  1  0.71356800  0.04622900  0.47249400  1
  H  489  1  0.74295600  0.06889300  0.49217900  1
  H  493  1  0.56166200  0.01879600  0.53645200  1
  H  494  1  0.60637800  0.03423900  0.53931800  1
  H  501  1  0.73342000  0.09660500  0.53876100  1
  H  502  1  0.59060000  0.92026700  0.45983900  1
  H  509  1  0.22066000  0.55032700  0.04277600  1
  H  516  1  0.34488600  0.48200600  0.00119600  1
  H  517  1  0.35723100  0.54294700  0.99442900  1
  H  518  1  0.36790500  0.52329300  0.04344600  1
  H  520  1  0.37941100  0.44613200  0.97397000  1
  H  521  1  0.40909400  0.44303500  0.95128100  1
  H  525  1  0.22817500  0.53806200  0.00178300  1
  H  526  1  0.27310100  0.52542000  0.98630400  1
  H  533  1  0.40094600  0.46198600  0.92378600  1
  H  534  1  0.25596900  0.56002400  0.10027300  1
  H  541  1  0.38724300  0.51431100  0.54416000  1
  H  548  1  0.50996500  0.48760100  0.47529600  1
  H  549  1  0.52357900  0.55500600  0.53649500  1
  H  550  1  0.53406100  0.48627400  0.51638400  1
  H  552  1  0.54379200  0.47906000  0.43935500  1
  H  553  1  0.57349400  0.49860400  0.43630700  1
  H  557  1  0.39428500  0.54317100  0.53203900  1
  H  558  1  0.43891700  0.54596200  0.51926000  1
  H  565  1  0.56634400  0.54489700  0.45549100  1
  H  566  1  0.42332200  0.46662100  0.55387400  1
  H  573  1  0.05379900  0.04763200  0.50359500  1
  H  580  1  0.17601500  0.00581100  0.53070600  1
  H  581  1  0.19151300  0.99935000  0.46324700  1
  H  582  1  0.20033600  0.04818300  0.53179500  1
  H  584  1  0.20949000  0.97845500  0.53948800  1
  H  585  1  0.23962300  0.95577900  0.52009200  1
  H  589  1  0.06164800  0.00661100  0.47487800  1
  H  590  1  0.10651700  0.99111700  0.47217800  1
  H  597  1  0.23417000  0.92860000  0.47387600  1
  H  598  1  0.08850800  0.10516700  0.55094900  1
  H  605  1  0.72117100  0.47638000  0.97293500  1
  H  612  1  0.84354100  0.54499000  0.01455000  1
  H  613  1  0.85790200  0.48404100  0.02123500  1
  H  614  1  0.86765000  0.50370800  0.97225800  1
  H  616  1  0.87717900  0.58093600  0.04177100  1
  H  617  1  0.90699100  0.58408200  0.06442300  1
  H  621  1  0.72853700  0.48868900  0.01394800  1
  H  622  1  0.77318300  0.50142300  0.02941800  1
  H  629  1  0.89996100  0.56512600  0.09184100  1
  H  630  1  0.75661700  0.46635200  0.91537700  1
  H  655  1  0.12867600  0.25411100  0.74517600  1
  H  656  1  0.17088900  0.25472300  0.71438500  1
  H  657  1  0.21855200  0.26216000  0.68834100  1
  H  658  1  0.27001800  0.27479500  0.66917300  1
  H  659  1  0.31777200  0.32756700  0.73651800  1
  H  660  1  0.20076100  0.31228200  0.79798700  1
  H  661  1  0.19200600  0.34351700  0.75333800  1
  H  662  1  0.23394200  0.41060500  0.80929600  1
  H  663  1  0.28805700  0.39115800  0.82079600  1
  H  664  1  0.31315600  0.28153500  0.76558000  1
  H  665  1  0.33894000  0.36459700  0.82638600  1
  H  666  1  0.38333000  0.33333333  0.82538733  1
  H  696  1  0.79652100  0.65833600  0.82690500  1
  H  697  1  0.83886500  0.62692200  0.82639100  1
  H  698  1  0.88665200  0.59340200  0.81904200  1
  H  699  1  0.93821540  0.56145200  0.80641300  1
  H  700  1  0.98592440  0.57536400  0.75311200  1
  H  701  1  0.86854800  0.65225300  0.76822200  1
  H  702  1  0.85993200  0.57669100  0.73739700  1
  H  703  1  0.90247940  0.56503700  0.67010100  1
  H  704  1  0.95670540  0.59567900  0.68930860  1
  H  705  1  0.98063740  0.65068800  0.79891300  1
  H  706  1  0.00738600  0.62774900  0.71567460  1
  H  707  1  0.05127100  0.65811600  0.74674160  1
  H  737  1  0.46169700  0.33731700  0.42460860  1
  H  738  1  0.50346600  0.36811100  0.45611560  1
  H  739  1  0.55108700  0.39416100  0.48955360  1
  H  740  1  0.60275400  0.41331300  0.52122200  1
  H  741  1  0.65126000  0.34594700  0.50681600  1
  H  742  1  0.53455500  0.28450300  0.43012400  1
  H  743  1  0.52518300  0.32900200  0.50590600  1
  H  744  1  0.56817000  0.27300900  0.51701400  1
  H  745  1  0.62252000  0.26165300  0.48624700  1
  H  746  1  0.64611700  0.31682900  0.43180200  1
  H  747  1  0.67336200  0.25610700  0.45416200  1
  H  748  1  0.71736700  0.25700500  0.42383800  1
  H  778  1  0.62950700  0.24412100  0.91886400  1
  H  779  1  0.67141400  0.24342200  0.94971100  1
  H  780  1  0.71933800  0.23612900  0.97583000  1
  H  781  1  0.77137100  0.22371900  0.99505300  1
  H  782  1  0.81969000  0.17060900  0.92774600  1
  H  783  1  0.70243400  0.18572100  0.86615100  1
  H  784  1  0.69365300  0.15443500  0.91073800  1
  H  785  1  0.73745900  0.08731100  0.85509800  1
  H  786  1  0.79146300  0.10673600  0.84373700  1
  H  787  1  0.81347300  0.21642500  0.89840100  1
  H  788  1  0.84176600  0.13330200  0.83807100  1
  H  789  1  0.88517400  0.16456000  0.83883300  1
  H  819  1  0.29508400  0.84192600  0.83677000  1
  H  820  1  0.33682000  0.87350600  0.83762300  1
  H  821  1  0.38460700  0.90689260  0.84503460  1
  H  822  1  0.43650700  0.93839660  0.85748860  1
  H  823  1  0.48480400  0.92352660  0.91007260  1
  H  824  1  0.36794900  0.84691100  0.89470460  1
  H  825  1  0.35901600  0.92311060  0.92646225  1
  H  826  1  0.40221000  0.93400060  0.99334920  1
  H  827  1  0.45611600  0.90291960  0.97366720  1
  H  828  1  0.47924700  0.84857000  0.86395660  1
  H  829  1  0.50666500  0.87063900  0.94688360  1
  H  830  1  0.55055500  0.84025000  0.91544460  1
  H  860  1  0.96316640  0.16355700  0.24090560  1
  H  861  1  0.00550000  0.13272800  0.20943360  1
  H  862  1  0.05347400  0.10663700  0.17597560  1
  H  863  1  0.10533300  0.08742400  0.14422560  1
  H  864  1  0.15292800  0.15472600  0.15866165  1
  H  865  1  0.03532000  0.21630600  0.23542960  1
  H  866  1  0.02712900  0.17163500  0.15947400  1
  H  867  1  0.06982600  0.22730700  0.14805700  1
  H  868  1  0.12362100  0.23878000  0.17900700  1
  H  869  1  0.14715200  0.18398500  0.23390760  1
  H  870  1  0.17403800  0.24442400  0.21125800  1
  H  871  1  0.21780700  0.24357900  0.24169200  1
  H  883  1  0.47646300  0.28019100  0.54940300  1
  H  890  1  0.36126600  0.33121600  0.62363500  1
  H  891  1  0.46952000  0.29542600  0.63083200  1
  H  892  1  0.45520900  0.35143100  0.62650200  1
  H  894  1  0.29678400  0.33553900  0.64539800  1
  H  895  1  0.29117600  0.32489400  0.66376300  1
  H  899  1  0.43176800  0.25837300  0.56146500  1
  H  900  1  0.40900600  0.27042100  0.58825700  1
  H  907  1  0.34319800  0.27932800  0.66081600  1
  H  908  1  0.55242800  0.31934300  0.55946900  1
  H  915  1  0.14337000  0.43601600  0.80158900  1
  H  922  1  0.02902800  0.45920000  0.75049500  1
  H  923  1  0.13759100  0.50167100  0.78536200  1
  H  924  1  0.12322900  0.44117800  0.72993100  1
  H  926  1  0.96463440  0.47687900  0.74631500  1
  H  927  1  0.95918540  0.50587200  0.75671300  1
  H  931  1  0.09884000  0.47022900  0.82324400  1
  H  932  1  0.07646300  0.48490300  0.81101400  1
  H  939  1  0.01156000  0.54844500  0.80172000  1
  H  940  1  0.21943600  0.40604800  0.76228000  1
  H  947  1  0.81059500  0.53288500  0.64505900  1
  H  954  1  0.69559100  0.45919300  0.62281700  1
  H  955  1  0.80299800  0.45134200  0.57924700  1
  H  956  1  0.78962500  0.45618200  0.63992300  1
  H  958  1  0.63105300  0.43758200  0.60576500  1
  H  959  1  0.62508500  0.41907300  0.57681400  1
  H  963  1  0.76552600  0.52079200  0.61127460  1
  H  964  1  0.74269000  0.49410300  0.59677800  1
  H  971  1  0.67611900  0.42149200  0.53376800  1
  H  972  1  0.88698500  0.52280100  0.67408000  1
  H  979  1  0.97870640  0.21994400  0.11517900  1
  H  986  1  0.86450100  0.16843700  0.04132100  1
  H  987  1  0.97200640  0.20369300  0.03324300  1
  H  988  1  0.95889840  0.14820400  0.03847500  1
  H  990  1  0.79989200  0.16394300  0.01967900  1
  H  991  1  0.79387700  0.17426100  0.00105600  1
  H  995  1  0.93381040  0.24150900  0.10272000  1
  H  996  1  0.91136240  0.22922100  0.07589400  1
  H  1003  1  0.84506200  0.21941400  0.00315500  1
  H  1004  1  0.05521000  0.18091700  0.10573700  1
  H  1011  1  0.64516700  0.06203900  0.86191700  1
  H  1018  1  0.53006500  0.03966700  0.91334800  1
  H  1019  1  0.63725000  0.99581964  0.87716664  1
  H  1020  1  0.62418800  0.05637900  0.93323700  1
  H  1022  1  0.46535700  0.02276000  0.91797200  1
  H  1023  1  0.45917100  0.99380464  0.90739664  1
  H  1027  1  0.60009800  0.02835300  0.84018200  1
  H  1028  1  0.57724900  0.01374900  0.85228600  1
  H  1035  1  0.51003500  0.95070360  0.86166660  1
  H  1036  1  0.72155400  0.09073900  0.90079500  1
  H  1043  1  0.31130600  0.96712060  0.01904620  1
  H  1050  1  0.19688400  0.04149900  0.04234665  1
  H  1051  1  0.30526800  0.04895700  0.08508760  1
  H  1052  1  0.29117500  0.04419800  0.02469200  1
  H  1054  1  0.13232700  0.06328400  0.05988700  1
  H  1055  1  0.12667500  0.08176700  0.08888365  1
  H  1059  1  0.26681100  0.97956360  0.05318020  1
  H  1060  1  0.24443600  0.00648900  0.06795560  1
  H  1067  1  0.17891400  0.07916300  0.13151760  1
  H  1068  1  0.38735000  0.97651760  0.98936720  1
  H  1075  1  0.39841900  0.24736300  0.79543800  1
  H  1082  1  0.52251100  0.27412300  0.86326300  1
  H  1083  1  0.53534500  0.20618500  0.80255400  1
  H  1084  1  0.54559800  0.27469200  0.82169700  1
  H  1086  1  0.55686300  0.28289900  0.89911800  1
  H  1087  1  0.58658200  0.26330800  0.90228700  1
  H  1091  1  0.40617500  0.21876300  0.80785500  1
  H  1092  1  0.45116100  0.21587500  0.82035000  1
  H  1099  1  0.57831600  0.21684100  0.88350767  1
  H  1100  1  0.43320100  0.29514700  0.78558800  1
  H  1107  1  0.06512000  0.71471300  0.83276100  1
  H  1114  1  0.18943800  0.75605300  0.80611060  1
  H  1115  1  0.20080600  0.76304400  0.87397200  1
  H  1116  1  0.21231700  0.71387200  0.80523960  1
  H  1118  1  0.22408500  0.78313500  0.79749960  1
  H  1119  1  0.25347300  0.80579900  0.81718460  1
  H  1123  1  0.07217900  0.75570200  0.86145800  1
  H  1124  1  0.11689500  0.77114500  0.86432360  1
  H  1131  1  0.24393700  0.83351100  0.86376660  1
  H  1132  1  0.10111700  0.65717300  0.78484500  1
  H  1139  1  0.73117700  0.28723300  0.36778160  1
  H  1146  1  0.85540300  0.21891200  0.32620200  1
  H  1147  1  0.86774800  0.27985300  0.31943460  1
  H  1148  1  0.87842200  0.26019900  0.36845200  1
  H  1150  1  0.88992800  0.18303800  0.29897600  1
  H  1151  1  0.91961140  0.17994100  0.27628660  1
  H  1155  1  0.73869200  0.27496800  0.32678860  1
  H  1156  1  0.78361800  0.26232600  0.31130960  1
  H  1163  1  0.91146340  0.19889200  0.24879160  1
  H  1164  1  0.76648600  0.29693000  0.42527900  1
  H  1171  1  0.89776000  0.25121700  0.86916600  1
  H  1178  1  0.02048200  0.22450700  0.80030200  1
  H  1179  1  0.03409600  0.29191200  0.86150100  1
  H  1180  1  0.04457800  0.22318000  0.84139000  1
  H  1182  1  0.05430900  0.21596600  0.76436100  1
  H  1183  1  0.08401100  0.23551000  0.76131300  1
  H  1187  1  0.90480240  0.28007700  0.85704500  1
  H  1188  1  0.94943440  0.28286800  0.84426600  1
  H  1195  1  0.07686100  0.28180300  0.78049700  1
  H  1196  1  0.93383940  0.20352700  0.87888000  1
  H  1203  1  0.56431600  0.78453800  0.82860060  1
  H  1210  1  0.68653200  0.74271700  0.85571200  1
  H  1211  1  0.70203000  0.73625600  0.78825260  1
  H  1212  1  0.71085300  0.78508900  0.85680060  1
  H  1214  1  0.72000700  0.71536100  0.86449400  1
  H  1215  1  0.75014000  0.69268500  0.84509800  1
  H  1219  1  0.57216500  0.74351700  0.79988360  1
  H  1220  1  0.61703400  0.72802300  0.79718360  1
  H  1227  1  0.74468700  0.66550600  0.79888200  1
  H  1228  1  0.59902500  0.84207300  0.87595460  1
  H  1235  1  0.23168800  0.21328600  0.29794060  1
  H  1242  1  0.35405800  0.28189600  0.33955560  1
  H  1243  1  0.36841900  0.22094700  0.34624100  1
  H  1244  1  0.37816700  0.24061400  0.29726360  1
  H  1246  1  0.38769600  0.31784200  0.36677660  1
  H  1247  1  0.41750800  0.32098800  0.38942860  1
  H  1251  1  0.23905400  0.22559500  0.33895400  1
  H  1252  1  0.28370000  0.23832900  0.35442400  1
  H  1259  1  0.41047800  0.30203200  0.41684700  1
  H  1260  1  0.26713400  0.20325800  0.24038260  1
  C  1  1  0.78221700  0.58051900  0.45383200  1
  C  2  1  0.78995600  0.60427000  0.47147100  1
  C  3  1  0.76063700  0.61915900  0.46879200  1
  C  4  1  0.73307500  0.60526300  0.44952400  1
  C  5  1  0.70120900  0.61662100  0.44266500  1
  C  6  1  0.69805400  0.64190300  0.45512900  1
  C  7  1  0.72571800  0.65543800  0.47490500  1
  C  8  1  0.75720800  0.64420800  0.48178500  1
  C  9  1  0.82315000  0.61033100  0.48850500  1
  C  10  1  0.84897400  0.59200200  0.48779100  1
  C  11  1  0.84231400  0.56780900  0.47014100  1
  C  12  1  0.80830500  0.56203000  0.45321900  1
  C  13  1  0.70844400  0.56383400  0.43714700  1
  C  14  1  0.69962300  0.54706700  0.41324900  1
  C  15  1  0.72823700  0.55029800  0.39853000  1
  C  16  1  0.75653900  0.56906800  0.41259100  1
  C  17  1  0.72966400  0.53849100  0.37347200  1
  C  18  1  0.76014100  0.54596100  0.36239700  1
  C  19  1  0.78999100  0.56468000  0.37597900  1
  C  20  1  0.78740300  0.57647300  0.40129600  1
  C  21  1  0.68344600  0.56350700  0.45547100  1
  C  22  1  0.64920900  0.54670300  0.44948800  1
  C  23  1  0.64157300  0.53000800  0.42503700  1
  C  24  1  0.66627500  0.53015600  0.40685900  1
  C  37  1  0.74517200  0.57951000  0.43837400  1
  C  42  1  0.45024100  0.89091500  0.43806600  1
  C  43  1  0.45823900  0.88461200  0.41426200  1
  C  44  1  0.42904200  0.86708900  0.39948200  1
  C  45  1  0.40128500  0.86193900  0.41350300  1
  C  46  1  0.36930500  0.84392000  0.40228200  1
  C  47  1  0.36627700  0.83102200  0.37700600  1
  C  48  1  0.39420100  0.83701900  0.36334800  1
  C  49  1  0.42576600  0.85495000  0.37444000  1
  C  50  1  0.49143000  0.89545000  0.40806500  1
  C  51  1  0.51696800  0.91312500  0.42630600  1
  C  52  1  0.51005000  0.91987800  0.45056000  1
  C  53  1  0.47603700  0.90886200  0.45646700  1
  C  54  1  0.37638000  0.89122100  0.45496500  1
  C  55  1  0.36759500  0.88429400  0.47190000  1
  C  56  1  0.39625300  0.86629600  0.46869100  1
  C  57  1  0.42450700  0.86133000  0.44974400  1
  C  58  1  0.39773100  0.85320600  0.48066300  1
  C  59  1  0.42828500  0.83458800  0.47320800  1
  C  60  1  0.45815400  0.82922400  0.45434100  1
  C  61  1  0.45552100  0.84259200  0.44238600  1
  C  62  1  0.35129200  0.90986100  0.45521900  1
  C  63  1  0.31704400  0.92088500  0.47215000  1
  C  64  1  0.30944700  0.91334200  0.48902000  1
  C  65  1  0.33423800  0.89502500  0.48893800  1
  C  78  1  0.41319900  0.87661300  0.43922400  1
  C  83  1  0.11574600  0.56673800  0.12950600  1
  C  84  1  0.12389100  0.54911900  0.13564300  1
  C  85  1  0.09463900  0.55179100  0.15318900  1
  C  86  1  0.06671200  0.57103500  0.15852200  1
  C  87  1  0.03469000  0.57780100  0.17663000  1
  C  88  1  0.03174300  0.56528700  0.18939500  1
  C  89  1  0.05982000  0.54555400  0.18320600  1
  C  90  1  0.09146100  0.53876000  0.16520300  1
  C  91  1  0.15728400  0.53206800  0.12466100  1
  C  92  1  0.18288100  0.53274600  0.10701300  1
  C  93  1  0.17579700  0.55036900  0.10043600  1
  C  94  1  0.14159800  0.56731000  0.11159100  1
  C  95  1  0.04171200  0.58343200  0.12945400  1
  C  96  1  0.03254200  0.60733100  0.13657100  1
  C  97  1  0.06103700  0.62204500  0.15453300  1
  C  98  1  0.08954500  0.60797800  0.15929100  1
  C  99  1  0.06231000  0.64710100  0.16769600  1
  C  100  1  0.09293200  0.65816700  0.18614600  1
  C  101  1  0.12310500  0.64457800  0.19127000  1
  C  102  1  0.12061500  0.61926100  0.17786500  1
  C  103  1  0.01697000  0.56510900  0.11075500  1
  C  104  1  0.98267900  0.57109600  0.09984500  1
  C  105  1  0.97466200  0.59554700  0.10759700  1
  C  106  1  0.99911700  0.61372300  0.12597000  1
  C  119  1  0.07852800  0.58219600  0.14393800  1
  C  124  1  0.28369700  0.44359700  0.56037900  1
  C  125  1  0.29212200  0.41982700  0.54286900  1
  C  126  1  0.26312200  0.40493800  0.54558000  1
  C  127  1  0.23502200  0.41885400  0.56470700  1
  C  128  1  0.20325400  0.40749600  0.57150700  1
  C  129  1  0.20066300  0.38220700  0.55912000  1
  C  130  1  0.22887400  0.36866600  0.53947800  1
  C  131  1  0.26030200  0.37988400  0.53267200  1
  C  132  1  0.32549200  0.41376700  0.52586300  1
  C  133  1  0.35073100  0.43211600  0.52645500  1
  C  134  1  0.34332300  0.45633300  0.54395700  1
  C  135  1  0.30919200  0.46210400  0.56087200  1
  C  136  1  0.20961700  0.46030200  0.57700400  1
  C  137  1  0.20050300  0.47712900  0.60088800  1
  C  138  1  0.22916100  0.47393600  0.61563800  1
  C  139  1  0.25773400  0.45510800  0.60160700  1
  C  140  1  0.23058700  0.48591100  0.64069700  1
  C  141  1  0.26142500  0.47859300  0.65180300  1
  C  142  1  0.29164600  0.45986800  0.63824600  1
  C  143  1  0.28902200  0.44788700  0.61292900  1
  C  144  1  0.18482900  0.46068700  0.55864600  1
  C  145  1  0.15050300  0.47761200  0.56458600  1
  C  146  1  0.14249200  0.49433100  0.58902500  1
  C  147  1  0.16701800  0.49413800  0.60723400  1
  C  160  1  0.24659000  0.44461400  0.57581700  1
  C  165  1  0.94898200  0.13433700  0.57493500  1
  C  166  1  0.95715700  0.14038000  0.59864100  1
  C  167  1  0.92805100  0.15802800  0.61365000  1
  C  168  1  0.90011700  0.16346800  0.59987300  1
  C  169  1  0.86843400  0.18180200  0.61137700  1
  C  170  1  0.86571600  0.19460100  0.63667100  1
  C  171  1  0.89367200  0.18824300  0.65007700  1
  C  172  1  0.92505200  0.17005900  0.63871200  1
  C  173  1  0.99052900  0.12928300  0.60454600  1
  C  174  1  0.01605600  0.11160000  0.58609900  1
  C  175  1  0.00888700  0.10511400  0.56195200  1
  C  176  1  0.97474100  0.11638800  0.55632500  1
  C  177  1  0.87498900  0.13456300  0.55844500  1
  C  178  1  0.86586300  0.14182700  0.54178700  1
  C  179  1  0.89446400  0.15973600  0.54502300  1
  C  180  1  0.92305500  0.16427700  0.56368400  1
  C  181  1  0.89584600  0.17299400  0.53322700  1
  C  182  1  0.92662300  0.19133700  0.54056200  1
  C  183  1  0.95676800  0.19629200  0.55916500  1
  C  184  1  0.95418800  0.18278600  0.57097100  1
  C  185  1  0.85030600  0.11579400  0.55796500  1
  C  186  1  0.81605500  0.10498700  0.54112500  1
  C  187  1  0.80800500  0.11293400  0.52459200  1
  C  188  1  0.83243500  0.13135800  0.52487400  1
  C  201  1  0.91186300  0.14890500  0.57407900  1
  C  206  1  0.61685700  0.46017000  0.88606300  1
  C  207  1  0.62488100  0.47771600  0.87985100  1
  C  208  1  0.59583800  0.47500000  0.86222100  1
  C  209  1  0.56811600  0.45583400  0.85694300  1
  C  210  1  0.53644000  0.44899000  0.83871800  1
  C  211  1  0.53359800  0.46136300  0.82580200  1
  C  212  1  0.56140400  0.48104900  0.83196400  1
  C  213  1  0.59271500  0.48791200  0.85007400  1
  C  214  1  0.65804600  0.49470500  0.89080300  1
  C  215  1  0.68349900  0.49406300  0.90852200  1
  C  216  1  0.67651500  0.47652200  0.91518400  1
  C  217  1  0.64255800  0.45963400  0.90404900  1
  C  218  1  0.54303500  0.44354700  0.88607600  1
  C  219  1  0.53426300  0.41965900  0.87898200  1
  C  220  1  0.56304900  0.40491200  0.86105100  1
  C  221  1  0.59142600  0.41894800  0.85632700  1
  C  222  1  0.56466400  0.37985300  0.84787700  1
  C  223  1  0.59536100  0.36875200  0.82935900  1
  C  224  1  0.62526900  0.38231200  0.82419700  1
  C  225  1  0.62252800  0.40762700  0.83766100  1
  C  226  1  0.51798600  0.46189700  0.90477700  1
  C  227  1  0.48374500  0.45594200  0.91567800  1
  C  228  1  0.47608900  0.43149800  0.90791700  1
  C  229  1  0.50087400  0.41329900  0.88956000  1
  C  242  1  0.57992600  0.44473700  0.87161800  1
  C  247  1  0.98008800  0.58011600  0.24491800  1
  C  248  1  0.97383900  0.60089500  0.26756167  1
  C  249  1  0.94812900  0.59954800  0.28501700  1
  C  250  1  0.92946600  0.57780500  0.28072700  1
  C  251  1  0.93497700  0.55694600  0.25791700  1
  C  252  1  0.96035500  0.55852300  0.24045400  1
  C  254  1  0.90818400  0.57711400  0.29994300  1
  C  255  1  0.86548300  0.58612000  0.30690500  1
  C  256  1  0.84134500  0.58229700  0.32341200  1
  C  257  1  0.86146000  0.56954900  0.33369800  1
  C  258  1  0.90523900  0.56129300  0.32752500  1
  C  259  1  0.92812800  0.56536800  0.31090000  1
  C  275  1  0.83662000  0.56007300  0.34490900  1
  C  276  1  0.01105700  0.57931000  0.22887400  1
  C  279  1  0.64731300  0.68239500  0.43969900  1
  C  280  1  0.64140000  0.68400700  0.41879600  1
  C  281  1  0.61593000  0.70292700  0.41999500  1
  C  282  1  0.59717900  0.72062800  0.44170000  1
  C  283  1  0.60235800  0.71889600  0.46268900  1
  C  284  1  0.62750100  0.69979000  0.46126100  1
  C  286  1  0.57608900  0.74053800  0.44221500  1
  C  287  1  0.53335900  0.73866200  0.43343100  1
  C  288  1  0.50934200  0.75906700  0.43717300  1
  C  289  1  0.52962000  0.78198300  0.44960300  1
  C  290  1  0.57342200  0.78388100  0.45763300  1
  C  291  1  0.59619000  0.76311300  0.45365000  1
  C  307  1  0.50490700  0.80280500  0.45903800  1
  C  308  1  0.67799000  0.66702500  0.44060700  1
  C  311  1  0.31452100  0.77562700  0.33657200  1
  C  312  1  0.30835400  0.75314500  0.33496500  1
  C  313  1  0.28248900  0.73567600  0.31626500  1
  C  314  1  0.26358500  0.73987500  0.29874900  1
  C  315  1  0.26902500  0.76257600  0.30049200  1
  C  316  1  0.29456000  0.78001000  0.31938500  1
  C  318  1  0.24211600  0.72066700  0.27899500  1
  C  319  1  0.19957000  0.71387400  0.28128500  1
  C  320  1  0.17522900  0.69734100  0.26111000  1
  C  321  1  0.19498500  0.68684400  0.23797900  1
  C  322  1  0.23862400  0.69284500  0.23565100  1
  C  323  1  0.26171800  0.70950300  0.25620100  1
  C  339  1  0.16986100  0.67557900  0.21740300  1
  C  340  1  0.34559100  0.79159300  0.35165000  1
  C  343  1  0.48297400  0.44617400  0.76999500  1
  C  344  1  0.47718500  0.42525300  0.74750700  1
  C  345  1  0.45154300  0.42638900  0.72985800  1
  C  346  1  0.43251100  0.44805400  0.73389100  1
  C  347  1  0.43762500  0.46906800  0.75658000  1
  C  348  1  0.46292800  0.46770300  0.77419400  1
  C  350  1  0.41108800  0.44848300  0.71456900  1
  C  351  1  0.36848900  0.43951200  0.70781500  1
  C  352  1  0.34411600  0.44310800  0.69120700  1
  C  353  1  0.36389100  0.45557900  0.68060000  1
  C  354  1  0.40757300  0.46379700  0.68657200  1
  C  355  1  0.43070000  0.45995800  0.70331100  1
  C  371  1  0.33876400  0.46485000  0.66923200  1
  C  372  1  0.51371400  0.44714100  0.78620700  1
  C  375  1  0.14910000  0.34141200  0.57372200  1
  C  376  1  0.14295500  0.33964000  0.59451900  1
  C  377  1  0.11706800  0.32092700  0.59323300  1
  C  378  1  0.09813100  0.30354700  0.57152800  1
  C  379  1  0.10359000  0.30544000  0.55064400  1
  C  380  1  0.12913800  0.32435000  0.55216200  1
  C  382  1  0.07650500  0.28380000  0.57092100  1
  C  383  1  0.03393300  0.28618400  0.58010800  1
  C  384  1  0.00942900  0.26605400  0.57642100  1
  C  385  1  0.02903100  0.24286100  0.56362400  1
  C  386  1  0.07269000  0.24043200  0.55518800  1
  C  387  1  0.09595400  0.26094100  0.55912900  1
  C  403  1  0.00375700  0.22236800  0.55430000  1
  C  404  1  0.18013700  0.35652200  0.57286200  1
  C  407  1  0.81524700  0.25054600  0.67754400  1
  C  408  1  0.80936500  0.27314000  0.67930700  1
  C  409  1  0.78388700  0.29083000  0.69824300  1
  C  410  1  0.76511400  0.28671500  0.71582300  1
  C  411  1  0.77031100  0.26392400  0.71395500  1
  C  412  1  0.79545100  0.24627800  0.69482800  1
  C  414  1  0.74388000  0.30604900  0.73572500  1
  C  415  1  0.70111800  0.31296400  0.73375900  1
  C  416  1  0.67694700  0.32954400  0.75411900  1
  C  417  1  0.69709200  0.33994800  0.77709700  1
  C  418  1  0.74092500  0.33381400  0.77909300  1
  C  419  1  0.76384600  0.31711000  0.75836400  1
  C  435  1  0.67225100  0.35125700  0.79784700  1
  C  436  1  0.84587100  0.23425300  0.66213600  1
  C  439  1  0.93533600  0.53547300  0.47367500  1
  C  440  1  0.97875500  0.54319600  0.48134900  1
  C  441  1  0.00421700  0.53157600  0.49079700  1
  C  442  1  0.98777600  0.51257400  0.49333000  1
  C  443  1  0.94448300  0.50451100  0.48548700  1
  C  444  1  0.91933000  0.51596600  0.47560100  1
  C  446  1  0.01412800  0.50432800  0.50603800  1
  C  447  1  0.02435200  0.52016000  0.53020700  1
  C  448  1  0.05018000  0.51312100  0.54379500  1
  C  449  1  0.06659100  0.48919600  0.53266100  1
  C  450  1  0.05724500  0.47310900  0.50820300  1
  C  451  1  0.03151100  0.48095700  0.49515100  1
  C  467  1  0.08660500  0.48108700  0.54659300  1
  C  468  1  0.90848300  0.54824800  0.46640700  1
  C  471  1  0.60238700  0.95612900  0.48261200  1
  C  472  1  0.64580200  0.95616500  0.47482800  1
  C  473  1  0.67091300  0.97724800  0.48647200  1
  C  474  1  0.65414300  0.99873700  0.50557100  1
  C  475  1  0.61083300  0.99887900  0.51367700  1
  C  476  1  0.58602500  0.97751900  0.50218900  1
  C  478  1  0.68029400  0.01969800  0.51393900  1
  C  479  1  0.69091500  0.02808800  0.49818500  1
  C  480  1  0.71666100  0.04867700  0.50532800  1
  C  481  1  0.73258600  0.06139000  0.52928300  1
  C  482  1  0.72283400  0.05296800  0.54529600  1
  C  483  1  0.69721900  0.03210200  0.53734200  1
  C  499  1  0.75236500  0.08344400  0.53750700  1
  C  500  1  0.57594200  0.93601000  0.46989400  1
  C  503  1  0.26824800  0.54672100  0.06438000  1
  C  504  1  0.31166900  0.53880700  0.06431100  1
  C  505  1  0.33701800  0.52934000  0.04320900  1
  C  506  1  0.32045700  0.52702000  0.02175300  1
  C  507  1  0.27713700  0.53507600  0.02164700  1
  C  508  1  0.25209500  0.54498100  0.04302500  1
  C  510  1  0.34676900  0.51433700  0.00075900  1
  C  511  1  0.35715300  0.49011600  0.99228100  1
  C  512  1  0.38304300  0.47656800  0.97164500  1
  C  513  1  0.39936600  0.48779300  0.95899200  1
  C  514  1  0.38982500  0.51229900  0.96749700  1
  C  515  1  0.36402500  0.52530800  0.98840200  1
  C  531  1  0.41954600  0.47393700  0.93696800  1
  C  532  1  0.24155500  0.55411800  0.08448700  1
  C  535  1  0.43496200  0.48894700  0.54023500  1
  C  536  1  0.47824300  0.48099500  0.53209800  1
  C  537  1  0.50326900  0.49262400  0.52258300  1
  C  538  1  0.48651200  0.51187000  0.52044600  1
  C  539  1  0.44331600  0.52012700  0.52871400  1
  C  540  1  0.41859000  0.50864200  0.53864600  1
  C  542  1  0.51250700  0.52021900  0.50775500  1
  C  543  1  0.52241800  0.50457000  0.48346200  1
  C  544  1  0.54812600  0.51166900  0.46992600  1
  C  545  1  0.56478100  0.53545900  0.48124300  1
  C  546  1  0.55567700  0.55136700  0.50581600  1
  C  547  1  0.53002100  0.54346700  0.51880200  1
  C  563  1  0.58499400  0.54366100  0.46746500  1
  C  564  1  0.40862400  0.47629800  0.54776700  1
  C  567  1  0.10101600  0.06918200  0.52892800  1
  C  568  1  0.14421500  0.06910400  0.53693300  1
  C  569  1  0.16962600  0.04798000  0.52539800  1
  C  570  1  0.15330300  0.02654300  0.50621400  1
  C  571  1  0.11019800  0.02645300  0.49790200  1
  C  572  1  0.08509700  0.04784600  0.50928100  1
  C  574  1  0.17952000  0.00552200  0.49803700  1
  C  575  1  0.18892500  0.99694700  0.51378700  1
  C  576  1  0.21475700  0.97629900  0.50684500  1
  C  577  1  0.23204200  0.96375500  0.48311800  1
  C  578  1  0.22344400  0.97234900  0.46711100  1
  C  579  1  0.19762800  0.99324500  0.47485300  1
  C  595  1  0.25260400  0.94184300  0.47512100  1
  C  596  1  0.07423400  0.08929300  0.54152000  1
  C  599  1  0.76858600  0.48005100  0.95132900  1
  C  600  1  0.81177700  0.48805100  0.95138900  1
  C  601  1  0.83693800  0.49760100  0.97249700  1
  C  602  1  0.82040100  0.49990800  0.99396200  1
  C  603  1  0.77730800  0.49176600  0.99407100  1
  C  604  1  0.75245300  0.48179500  0.97269300  1
  C  606  1  0.84645500  0.51264900  0.01495200  1
  C  607  1  0.85614500  0.53689700  0.02344400  1
  C  608  1  0.88181900  0.55049000  0.04405200  1
  C  609  1  0.89864800  0.53927900  0.05666000  1
  C  610  1  0.88979800  0.51474900  0.04814500  1
  C  611  1  0.86418300  0.50170100  0.02727600  1
  C  627  1  0.91873600  0.55316000  0.07863200  1
  C  628  1  0.74206800  0.47253200  0.93120000  1
  C  631  1  0.29273400  0.31742500  0.77883800  1
  C  632  1  0.30047300  0.34117600  0.79647700  1
  C  633  1  0.27115400  0.35606500  0.79379800  1
  C  634  1  0.24359200  0.34216900  0.77453000  1
  C  635  1  0.21172600  0.35352700  0.76767100  1
  C  636  1  0.20857100  0.37880900  0.78013500  1
  C  637  1  0.23623500  0.39234400  0.79991100  1
  C  638  1  0.26772500  0.38111400  0.80679100  1
  C  639  1  0.33366700  0.34723700  0.81351100  1
  C  640  1  0.35949100  0.32890800  0.81279700  1
  C  641  1  0.35283100  0.30471500  0.79514700  1
  C  642  1  0.31882200  0.29893600  0.77822500  1
  C  643  1  0.21896100  0.30074000  0.76215300  1
  C  644  1  0.21014000  0.28397300  0.73825500  1
  C  645  1  0.23875400  0.28720400  0.72353600  1
  C  646  1  0.26705600  0.30597400  0.73759700  1
  C  647  1  0.24018100  0.27539700  0.69847800  1
  C  648  1  0.27065800  0.28286700  0.68740300  1
  C  649  1  0.30050800  0.30158600  0.70098500  1
  C  650  1  0.29792000  0.31337900  0.72630200  1
  C  651  1  0.19396300  0.30041300  0.78047700  1
  C  652  1  0.15972600  0.28360900  0.77449400  1
  C  653  1  0.15209000  0.26691400  0.75004300  1
  C  654  1  0.17679200  0.26706200  0.73186500  1
  C  667  1  0.25568900  0.31641600  0.76338000  1
  C  672  1  0.96075840  0.62782100  0.76307200  1
  C  673  1  0.96875640  0.62151800  0.73926800  1
  C  674  1  0.93955940  0.60399500  0.72448800  1
  C  675  1  0.91180240  0.59884500  0.73850900  1
  C  676  1  0.87982200  0.58082600  0.72728800  1
  C  677  1  0.87679400  0.56792800  0.70201200  1
  C  678  1  0.90471840  0.57392500  0.68835400  1
  C  679  1  0.93628340  0.59185600  0.69944600  1
  C  680  1  0.00194700  0.63235600  0.73307100  1
  C  681  1  0.02748500  0.65003100  0.75131200  1
  C  682  1  0.02056700  0.65678400  0.77556600  1
  C  683  1  0.98655440  0.64576800  0.78147300  1
  C  684  1  0.88689700  0.62812700  0.77997100  1
  C  685  1  0.87811200  0.62120000  0.79690600  1
  C  686  1  0.90677040  0.60320200  0.79369700  1
  C  687  1  0.93502440  0.59823600  0.77475000  1
  C  688  1  0.90824840  0.59011200  0.80566900  1
  C  689  1  0.93880240  0.57149400  0.79821400  1
  C  690  1  0.96867140  0.56613000  0.77934700  1
  C  691  1  0.96603840  0.57949800  0.76739200  1
  C  692  1  0.86180900  0.64676700  0.78022500  1
  C  693  1  0.82756100  0.65779100  0.79715600  1
  C  694  1  0.81996400  0.65024800  0.81402600  1
  C  695  1  0.84475500  0.63193100  0.81394400  1
  C  708  1  0.92371640  0.61351900  0.76423000  1
  C  713  1  0.62626300  0.30364400  0.45451200  1
  C  714  1  0.63440800  0.28602500  0.46064900  1
  C  715  1  0.60515600  0.28869700  0.47819500  1
  C  716  1  0.57722900  0.30794100  0.48352800  1
  C  717  1  0.54520700  0.31470700  0.50163600  1
  C  718  1  0.54226000  0.30219300  0.51440100  1
  C  719  1  0.57033700  0.28246000  0.50821200  1
  C  720  1  0.60197800  0.27566600  0.49020900  1
  C  721  1  0.66780100  0.26897400  0.44966700  1
  C  722  1  0.69339800  0.26965200  0.43201900  1
  C  723  1  0.68631400  0.28727500  0.42544200  1
  C  724  1  0.65211500  0.30421600  0.43659700  1
  C  725  1  0.55222900  0.32033800  0.45446000  1
  C  726  1  0.54305900  0.34423700  0.46157700  1
  C  727  1  0.57155400  0.35895100  0.47953900  1
  C  728  1  0.60006200  0.34488400  0.48429700  1
  C  729  1  0.57282700  0.38400700  0.49270200  1
  C  730  1  0.60344900  0.39507300  0.51115200  1
  C  731  1  0.63362200  0.38148400  0.51627600  1
  C  732  1  0.63113200  0.35616700  0.50287100  1
  C  733  1  0.52748700  0.30201500  0.43576100  1
  C  734  1  0.49319600  0.30800200  0.42485100  1
  C  735  1  0.48517900  0.33245300  0.43260300  1
  C  736  1  0.50963400  0.35062900  0.45097600  1
  C  749  1  0.58904500  0.31910200  0.46894400  1
  C  754  1  0.79421400  0.18050300  0.88538500  1
  C  755  1  0.80263900  0.15673300  0.86787500  1
  C  756  1  0.77363900  0.14184400  0.87058600  1
  C  757  1  0.74553900  0.15576000  0.88971300  1
  C  758  1  0.71377100  0.14440200  0.89651300  1
  C  759  1  0.71118000  0.11911300  0.88412600  1
  C  760  1  0.73939100  0.10557200  0.86448400  1
  C  761  1  0.77081900  0.11679000  0.85767800  1
  C  762  1  0.83600900  0.15067300  0.85086900  1
  C  763  1  0.86124800  0.16902200  0.85146100  1
  C  764  1  0.85384000  0.19323900  0.86896300  1
  C  765  1  0.81970900  0.19901000  0.88587800  1
  C  766  1  0.72013400  0.19720800  0.90201000  1
  C  767  1  0.71102000  0.21403500  0.92589400  1
  C  768  1  0.73967800  0.21084200  0.94064400  1
  C  769  1  0.76825100  0.19201400  0.92661300  1
  C  770  1  0.74110400  0.22281700  0.96570300  1
  C  771  1  0.77194200  0.21549900  0.97680900  1
  C  772  1  0.80216300  0.19677400  0.96325200  1
  C  773  1  0.79953900  0.18479300  0.93793500  1
  C  774  1  0.69534600  0.19759300  0.88365200  1
  C  775  1  0.66102000  0.21451800  0.88959200  1
  C  776  1  0.65300900  0.23123700  0.91403100  1
  C  777  1  0.67753500  0.23104400  0.93224000  1
  C  790  1  0.75710700  0.18152000  0.90082300  1
  C  795  1  0.45949900  0.87124300  0.89994060  1
  C  796  1  0.46767400  0.87728600  0.92364660  1
  C  797  1  0.43856800  0.89493400  0.93865560  1
  C  798  1  0.41063400  0.90037360  0.92487820  1
  C  799  1  0.37895100  0.91870760  0.93638220  1
  C  800  1  0.37623300  0.93150660  0.96167620  1
  C  801  1  0.40418900  0.92514860  0.97508220  1
  C  802  1  0.43556900  0.90696460  0.96371720  1
  C  803  1  0.50104600  0.86618900  0.92955160  1
  C  804  1  0.52657300  0.84850600  0.91110460  1
  C  805  1  0.51940400  0.84202000  0.88695760  1
  C  806  1  0.48525800  0.85329400  0.88133060  1
  C  807  1  0.38550600  0.87146900  0.88345060  1
  C  808  1  0.37638000  0.87873300  0.86679300  1
  C  809  1  0.40498100  0.89664200  0.87002900  1
  C  810  1  0.43357200  0.90118260  0.88868960  1
  C  811  1  0.40636300  0.90989960  0.85823260  1
  C  812  1  0.43714000  0.92824260  0.86556760  1
  C  813  1  0.46728500  0.93319760  0.88417060  1
  C  814  1  0.46470500  0.91969160  0.89597660  1
  C  815  1  0.36082300  0.85270000  0.88297060  1
  C  816  1  0.32657200  0.84189300  0.86613060  1
  C  817  1  0.31852200  0.84984000  0.84959800  1
  C  818  1  0.34295200  0.86826400  0.84988000  1
  C  831  1  0.42238000  0.88581100  0.89908460  1
  C  836  1  0.12737400  0.19707600  0.21106860  1
  C  837  1  0.13539800  0.21462200  0.20485700  1
  C  838  1  0.10635500  0.21190600  0.18722700  1
  C  839  1  0.07863300  0.19274000  0.18194900  1
  C  840  1  0.04695700  0.18589600  0.16372400  1
  C  841  1  0.04411500  0.19826900  0.15080800  1
  C  842  1  0.07192100  0.21795500  0.15697000  1
  C  843  1  0.10323200  0.22481800  0.17508000  1
  C  844  1  0.16856300  0.23161100  0.21580900  1
  C  845  1  0.19401600  0.23096900  0.23352765  1
  C  846  1  0.18703200  0.21342800  0.24018960  1
  C  847  1  0.15307500  0.19654000  0.22905460  1
  C  848  1  0.05355200  0.18045300  0.21108160  1
  C  849  1  0.04478000  0.15656500  0.20398760  1
  C  850  1  0.07356600  0.14181800  0.18605660  1
  C  851  1  0.10194300  0.15585400  0.18133260  1
  C  852  1  0.07518100  0.11675900  0.17288260  1
  C  853  1  0.10587800  0.10565800  0.15436460  1
  C  854  1  0.13578600  0.11921800  0.14920260  1
  C  855  1  0.13304500  0.14453300  0.16266660  1
  C  856  1  0.02850300  0.19880300  0.22978260  1
  C  857  1  0.99426235  0.19284800  0.24068360  1
  C  858  1  0.98660640  0.16840400  0.23292260  1
  C  859  1  0.01139100  0.15020500  0.21456560  1
  C  872  1  0.09044300  0.18164300  0.19662360  1
  C  877  1  0.49060500  0.31702200  0.56992400  1
  C  878  1  0.48435600  0.33780100  0.59252000  1
  C  879  1  0.45864600  0.33645400  0.61002300  1
  C  880  1  0.43998300  0.31471100  0.60573300  1
  C  881  1  0.44549400  0.29385200  0.58292300  1
  C  882  1  0.47087200  0.29542900  0.56546000  1
  C  884  1  0.41870100  0.31402000  0.62494900  1
  C  885  1  0.37600000  0.32302600  0.63191100  1
  C  886  1  0.35186200  0.31920300  0.64841800  1
  C  887  1  0.37197700  0.30645500  0.65870400  1
  C  888  1  0.41575600  0.29819900  0.65253100  1
  C  889  1  0.43864500  0.30227400  0.63590600  1
  C  905  1  0.34713700  0.29697900  0.66991500  1
  C  906  1  0.52157400  0.31621600  0.55388000  1
  C  909  1  0.15783000  0.41930100  0.76470500  1
  C  910  1  0.15191700  0.42091300  0.74380200  1
  C  911  1  0.12644700  0.43983300  0.74500100  1
  C  912  1  0.10769600  0.45753400  0.76670600  1
  C  913  1  0.11287500  0.45580200  0.78769500  1
  C  914  1  0.13801800  0.43669600  0.78626700  1
  C  916  1  0.08660600  0.47744400  0.76722100  1
  C  917  1  0.04387600  0.47556800  0.75843700  1
  C  918  1  0.01985900  0.49597300  0.76217900  1
  C  919  1  0.04013700  0.51888900  0.77460900  1
  C  920  1  0.08393900  0.52078700  0.78263900  1
  C  921  1  0.10670700  0.50001900  0.77865600  1
  C  937  1  0.01542400  0.53971100  0.78404400  1
  C  938  1  0.18850700  0.40393100  0.76561300  1
  C  941  1  0.82503800  0.51253300  0.66157800  1
  C  942  1  0.81887100  0.49005100  0.65997100  1
  C  943  1  0.79300600  0.47258200  0.64127100  1
  C  944  1  0.77410200  0.47678100  0.62375500  1
  C  945  1  0.77954200  0.49948200  0.62549800  1
  C  946  1  0.80507700  0.51691600  0.64439100  1
  C  948  1  0.75263300  0.45757300  0.60400100  1
  C  949  1  0.71008700  0.45078000  0.60629100  1
  C  950  1  0.68574600  0.43424700  0.58611600  1
  C  951  1  0.70550200  0.42375000  0.56298500  1
  C  952  1  0.74914100  0.42975100  0.56065700  1
  C  953  1  0.77223500  0.44640900  0.58120700  1
  C  969  1  0.68037800  0.41248500  0.54240900  1
  C  970  1  0.85610800  0.52849900  0.67665600  1
  C  973  1  0.99349135  0.18308000  0.09500100  1
  C  974  1  0.98770240  0.16215900  0.07251300  1
  C  975  1  0.96206040  0.16329500  0.05486400  1
  C  976  1  0.94302840  0.18496000  0.05889700  1
  C  977  1  0.94814240  0.20597400  0.08158600  1
  C  978  1  0.97344540  0.20460900  0.09920000  1
  C  980  1  0.92160540  0.18538900  0.03957500  1
  C  981  1  0.87900600  0.17641800  0.03282100  1
  C  982  1  0.85463300  0.18001400  0.01621300  1
  C  983  1  0.87440800  0.19248500  0.00560600  1
  C  984  1  0.91809040  0.20070300  0.01157800  1
  C  985  1  0.94121740  0.19686400  0.02831700  1
  C  1001  1  0.84928100  0.20175600  0.99423800  1
  C  1002  1  0.02423100  0.18404700  0.11121300  1
  C  1005  1  0.65961700  0.07831800  0.89872800  1
  C  1006  1  0.65347200  0.07654600  0.91952500  1
  C  1007  1  0.62758500  0.05783300  0.91823900  1
  C  1008  1  0.60864800  0.04045300  0.89653400  1
  C  1009  1  0.61410700  0.04234600  0.87565000  1
  C  1010  1  0.63965500  0.06125600  0.87716800  1
  C  1012  1  0.58702200  0.02070600  0.89592700  1
  C  1013  1  0.54445000  0.02309000  0.90511400  1
  C  1014  1  0.51994600  0.00296000  0.90142700  1
  C  1015  1  0.53954800  0.97976660  0.88862960  1
  C  1016  1  0.58320700  0.97733760  0.88019360  1
  C  1017  1  0.60647100  0.99784664  0.88413464  1
  C  1033  1  0.51427400  0.95927360  0.87930560  1
  C  1034  1  0.69065400  0.09342800  0.89786800  1
  C  1037  1  0.32576400  0.98745160  0.00254920  1
  C  1038  1  0.31988200  0.01004600  0.00431300  1
  C  1039  1  0.29440400  0.02773600  0.02324900  1
  C  1040  1  0.27563100  0.02362100  0.04082860  1
  C  1041  1  0.28082800  0.00083000  0.03896060  1
  C  1042  1  0.30596800  0.98318360  0.01983320  1
  C  1044  1  0.25439700  0.04295500  0.06073060  1
  C  1045  1  0.21163500  0.04987000  0.05876465  1
  C  1046  1  0.18746400  0.06645000  0.07912460  1
  C  1047  1  0.20760900  0.07685400  0.10210260  1
  C  1048  1  0.25144200  0.07072000  0.10409860  1
  C  1049  1  0.27436300  0.05401600  0.08336960  1
  C  1065  1  0.18276800  0.08816300  0.12285260  1
  C  1066  1  0.35638800  0.97115860  0.98714120  1
  C  1069  1  0.44585300  0.27237900  0.79868100  1
  C  1070  1  0.48927200  0.28010200  0.80635500  1
  C  1071  1  0.51473400  0.26848200  0.81580300  1
  C  1072  1  0.49829300  0.24948000  0.81833600  1
  C  1073  1  0.45500000  0.24141700  0.81049300  1
  C  1074  1  0.42984700  0.25287200  0.80060700  1
  C  1076  1  0.52464500  0.24123400  0.83104400  1
  C  1077  1  0.53486900  0.25706600  0.85521300  1
  C  1078  1  0.56069700  0.25002700  0.86880100  1
  C  1079  1  0.57710800  0.22610200  0.85766700  1
  C  1080  1  0.56776200  0.21001500  0.83320900  1
  C  1081  1  0.54202800  0.21786300  0.82015700  1
  C  1097  1  0.59712200  0.21799300  0.87159900  1
  C  1098  1  0.41900000  0.28515400  0.79141300  1
  C  1101  1  0.11290400  0.69303500  0.80761800  1
  C  1102  1  0.15631900  0.69307100  0.79983400  1
  C  1103  1  0.18143000  0.71415400  0.81147760  1
  C  1104  1  0.16466000  0.73564300  0.83057660  1
  C  1105  1  0.12135000  0.73578500  0.83868300  1
  C  1106  1  0.09654200  0.71442500  0.82719500  1
  C  1108  1  0.19081100  0.75660400  0.83894460  1
  C  1109  1  0.20143200  0.76499400  0.82319060  1
  C  1110  1  0.22717800  0.78558300  0.83033360  1
  C  1111  1  0.24310300  0.79829600  0.85428860  1
  C  1112  1  0.23335100  0.78987400  0.87030160  1
  C  1113  1  0.20773600  0.76900800  0.86234760  1
  C  1129  1  0.26288200  0.82035000  0.86251260  1
  C  1130  1  0.08645900  0.67291600  0.79490000  1
  C  1133  1  0.77876500  0.28362700  0.38938600  1
  C  1134  1  0.82218600  0.27571300  0.38931700  1
  C  1135  1  0.84753500  0.26624600  0.36821500  1
  C  1136  1  0.83097400  0.26392600  0.34675860  1
  C  1137  1  0.78765400  0.27198200  0.34665260  1
  C  1138  1  0.76261200  0.28188700  0.36803060  1
  C  1140  1  0.85728600  0.25124300  0.32576460  1
  C  1141  1  0.86767000  0.22702200  0.31728660  1
  C  1142  1  0.89356000  0.21347400  0.29665060  1
  C  1143  1  0.90988340  0.22469900  0.28399760  1
  C  1144  1  0.90034240  0.24920500  0.29250260  1
  C  1145  1  0.87454200  0.26221400  0.31340760  1
  C  1161  1  0.93006340  0.21084300  0.26197360  1
  C  1162  1  0.75207200  0.29102400  0.40949300  1
  C  1165  1  0.94547940  0.22585300  0.86524100  1
  C  1166  1  0.98876040  0.21790100  0.85710400  1
  C  1167  1  0.01378600  0.22953000  0.84758900  1
  C  1168  1  0.99702935  0.24877600  0.84545200  1
  C  1169  1  0.95383340  0.25703300  0.85372000  1
  C  1170  1  0.92910740  0.24554800  0.86365200  1
  C  1172  1  0.02302400  0.25712500  0.83276100  1
  C  1173  1  0.03293500  0.24147600  0.80846800  1
  C  1174  1  0.05864300  0.24857500  0.79493200  1
  C  1175  1  0.07529800  0.27236500  0.80624900  1
  C  1176  1  0.06619400  0.28827300  0.83082200  1
  C  1177  1  0.04053800  0.28037300  0.84380800  1
  C  1193  1  0.09551100  0.28056700  0.79247100  1
  C  1194  1  0.91914140  0.21320400  0.87277300  1
  C  1197  1  0.61153300  0.80608800  0.85393360  1
  C  1198  1  0.65473200  0.80601000  0.86193860  1
  C  1199  1  0.68014300  0.78488600  0.85040360  1
  C  1200  1  0.66382000  0.76344900  0.83121960  1
  C  1201  1  0.62071500  0.76335900  0.82290760  1
  C  1202  1  0.59561400  0.78475200  0.83428660  1
  C  1204  1  0.69003700  0.74242800  0.82304260  1
  C  1205  1  0.69944200  0.73385300  0.83879300  1
  C  1206  1  0.72527400  0.71320500  0.83185100  1
  C  1207  1  0.74255900  0.70066100  0.80812400  1
  C  1208  1  0.73396100  0.70925500  0.79211660  1
  C  1209  1  0.70814500  0.73015100  0.79985860  1
  C  1225  1  0.76312100  0.67874900  0.80012700  1
  C  1226  1  0.58475100  0.82619900  0.86652560  1
  C  1229  1  0.27910300  0.21695700  0.27633460  1
  C  1230  1  0.32229400  0.22495700  0.27639460  1
  C  1231  1  0.34745500  0.23450700  0.29750260  1
  C  1232  1  0.33091800  0.23681400  0.31896760  1
  C  1233  1  0.28782500  0.22867200  0.31907660  1
  C  1234  1  0.26297000  0.21870100  0.29769860  1
  C  1236  1  0.35697200  0.24955500  0.33995760  1
  C  1237  1  0.36666200  0.27380300  0.34844960  1
  C  1238  1  0.39233600  0.28739600  0.36905760  1
  C  1239  1  0.40916500  0.27618500  0.38166600  1
  C  1240  1  0.40031500  0.25165500  0.37315100  1
  C  1241  1  0.37470000  0.23860700  0.35228200  1
  C  1257  1  0.42925300  0.29006600  0.40363800  1
  C  1258  1  0.25258500  0.20943800  0.25620560  1
  N  38  1  0.81730800  0.57255000  0.36525100  1
  N  39  1  0.86741600  0.55160400  0.47147500  1
  N  40  1  0.66895500  0.65362800  0.44952800  1
  N  41  1  0.62689800  0.54430200  0.46597400  1
  N  79  1  0.48548700  0.81053800  0.44648900  1
  N  80  1  0.53475600  0.93754200  0.46670000  1
  N  81  1  0.33690700  0.81394400  0.36543600  1
  N  82  1  0.29453400  0.93971700  0.47443500  1
  N  120  1  0.15065600  0.65531900  0.20974700  1
  N  121  1  0.20062700  0.54896100  0.08282300  1
  N  122  1  0.00237700  0.57076200  0.20655800  1
  N  123  1  0.96061400  0.55459900  0.08091000  1
  N  161  1  0.31934400  0.45217600  0.64903100  1
  N  162  1  0.36777500  0.47254800  0.54244600  1
  N  163  1  0.17136800  0.37053400  0.56458200  1
  N  164  1  0.12847300  0.48009800  0.54805900  1
  N  202  1  0.98443600  0.21469000  0.56688600  1
  N  203  1  0.03368500  0.08749100  0.54567300  1
  N  204  1  0.83671800  0.21199400  0.64850900  1
  N  205  1  0.79420200  0.08592000  0.53850900  1
  N  243  1  0.65271000  0.37154200  0.80558900  1
  N  244  1  0.70118600  0.47798900  0.93286300  1
  N  245  1  0.50457700  0.45578400  0.80850400  1
  N  246  1  0.46144700  0.47244600  0.93464300  1
  N  263  1  0.79917900  0.59015700  0.32782900  1
  N  266  1  0.92507900  0.54814100  0.33724600  1
  N  267  1  0.99406500  0.62251300  0.27231700  1
  N  268  1  0.91721600  0.53545400  0.25222400  1
  N  295  1  0.46713100  0.75580900  0.42956300  1
  N  298  1  0.59340000  0.80664900  0.47049300  1
  N  299  1  0.66169700  0.66691800  0.39720300  1
  N  300  1  0.58450500  0.73495700  0.48416000  1
  N  327  1  0.13321100  0.69310000  0.26478700  1
  N  330  1  0.25811300  0.68291300  0.21268200  1
  N  331  1  0.32880800  0.74841500  0.35183600  1
  N  332  1  0.25102800  0.76819400  0.28463400  1
  N  359  1  0.30205200  0.43531600  0.68701400  1
  N  362  1  0.42707100  0.47668300  0.67653600  1
  N  363  1  0.49776400  0.40370100  0.74296000  1
  N  364  1  0.41952400  0.49050800  0.76202600  1
  N  391  1  0.96740700  0.26984300  0.58446100  1
  N  394  1  0.09203800  0.21740600  0.54200300  1
  N  395  1  0.16344800  0.35637100  0.61609900  1
  N  396  1  0.08558700  0.28971100  0.52918100  1
  N  423  1  0.63472600  0.33390300  0.75075800  1
  N  426  1  0.76078200  0.34364900  0.80191700  1
  N  427  1  0.82968800  0.27775100  0.66234600  1
  N  428  1  0.75246200  0.25841300  0.72990000  1
  N  455  1  0.05782300  0.52977700  0.56707700  1
  N  458  1  0.07322900  0.44933100  0.49729100  1
  N  459  1  0.99605700  0.56313400  0.48056400  1
  N  460  1  0.92552400  0.48687000  0.48799300  1
  N  487  1  0.72470400  0.05535400  0.48873700  1
  N  490  1  0.73831600  0.06575100  0.56910800  1
  N  491  1  0.66348500  0.93550000  0.45481900  1
  N  492  1  0.59153400  0.01897300  0.53140800  1
  N  519  1  0.39083600  0.45323100  0.96488400  1
  N  522  1  0.40568700  0.52330400  0.95476100  1
  N  523  1  0.32908900  0.53938500  0.08494900  1
  N  524  1  0.25806000  0.53277300  0.00157700  1
  N  551  1  0.55544200  0.49518500  0.44651700  1
  N  554  1  0.57183300  0.57502900  0.51691900  1
  N  555  1  0.49581500  0.46084600  0.53252000  1
  N  556  1  0.42407600  0.53801400  0.52660200  1
  N  583  1  0.22157700  0.96943900  0.52341100  1
  N  586  1  0.24025300  0.95971100  0.44351800  1
  N  587  1  0.16127200  0.08974900  0.55705100  1
  N  588  1  0.09138900  0.00639000  0.48007000  1
  N  615  1  0.88893700  0.57384900  0.05082900  1
  N  618  1  0.90616400  0.50375700  0.06083600  1
  N  619  1  0.82911200  0.48746600  0.93073000  1
  N  620  1  0.75826600  0.49404200  0.01414900  1
  N  668  1  0.32782500  0.30945600  0.69025700  1
  N  669  1  0.37793300  0.28851000  0.79648100  1
  N  670  1  0.17947200  0.39053400  0.77453400  1
  N  671  1  0.13741500  0.28120800  0.79098000  1
  N  709  1  0.99600435  0.54744400  0.77149500  1
  N  710  1  0.04527300  0.67444800  0.79170600  1
  N  711  1  0.84742400  0.55085000  0.69044200  1
  N  712  1  0.80505100  0.67662300  0.79944100  1
  N  750  1  0.66117300  0.39222500  0.53475300  1
  N  751  1  0.71114400  0.28586700  0.40782900  1
  N  752  1  0.51289400  0.30766800  0.53156400  1
  N  753  1  0.47113100  0.29150500  0.40591600  1
  N  791  1  0.82986100  0.18908200  0.97403700  1
  N  792  1  0.87829200  0.20945400  0.86745200  1
  N  793  1  0.68188500  0.10744000  0.88958800  1
  N  794  1  0.63899000  0.21700400  0.87306500  1
  N  832  1  0.49495300  0.95159560  0.89189160  1
  N  833  1  0.54420200  0.82439700  0.87067860  1
  N  834  1  0.34723500  0.94889960  0.97351420  1
  N  835  1  0.30471900  0.82282600  0.86351460  1
  N  873  1  0.16322700  0.10844800  0.13059460  1
  N  874  1  0.21170300  0.21489500  0.25786860  1
  N  875  1  0.01509400  0.19269000  0.13351000  1
  N  876  1  0.97196440  0.20935200  0.25964860  1
  N  893  1  0.30969600  0.32706300  0.65283500  1
  N  896  1  0.43559600  0.28504700  0.66225200  1
  N  897  1  0.50458200  0.35941900  0.59732300  1
  N  898  1  0.42773300  0.27236000  0.57723000  1
  N  925  1  0.97764840  0.49271500  0.75456900  1
  N  928  1  0.10391700  0.54355500  0.79549900  1
  N  929  1  0.17221400  0.40382400  0.72220900  1
  N  930  1  0.09502200  0.47186300  0.80916600  1
  N  957  1  0.64372800  0.43000600  0.58979300  1
  N  960  1  0.76863000  0.41981900  0.53768800  1
  N  961  1  0.83932500  0.48532100  0.67684200  1
  N  962  1  0.76154500  0.50510000  0.60964000  1
  N  989  1  0.81256900  0.17222200  0.01202000  1
  N  992  1  0.93758840  0.21358900  0.00154200  1
  N  993  1  0.00828100  0.14060700  0.06796600  1
  N  994  1  0.93004140  0.22741400  0.08703200  1
  N  1021  1  0.47792400  0.00674900  0.90946700  1
  N  1024  1  0.60255500  0.95431160  0.86700860  1
  N  1025  1  0.67396500  0.09327700  0.94110500  1
  N  1026  1  0.59610400  0.02661700  0.85418700  1
  N  1053  1  0.14524300  0.07080900  0.07576365  1
  N  1056  1  0.27129900  0.08055500  0.12692260  1
  N  1057  1  0.34020500  0.01465700  0.98735200  1
  N  1058  1  0.26297900  0.99531864  0.05490524  1
  N  1085  1  0.56834000  0.26668300  0.89208300  1
  N  1088  1  0.58374600  0.18623700  0.82229700  1
  N  1089  1  0.50657400  0.30004000  0.80557000  1
  N  1090  1  0.43604100  0.22377600  0.81299900  1
  N  1117  1  0.23522100  0.79226000  0.81374260  1
  N  1120  1  0.24883300  0.80265700  0.89411360  1
  N  1121  1  0.17400200  0.67240600  0.77982500  1
  N  1122  1  0.10205100  0.75587900  0.85641400  1
  N  1149  1  0.90135340  0.19013700  0.28988960  1
  N  1152  1  0.91620440  0.26021000  0.27976660  1
  N  1153  1  0.83960600  0.27629100  0.40995500  1
  N  1154  1  0.76857700  0.26967900  0.32658260  1
  N  1181  1  0.06595900  0.23209100  0.77152300  1
  N  1184  1  0.08235000  0.31193500  0.84192500  1
  N  1185  1  0.00633200  0.19775200  0.85752600  1
  N  1186  1  0.93459340  0.27492000  0.85160800  1
  N  1213  1  0.73209400  0.70634500  0.84841700  1
  N  1216  1  0.75077000  0.69661700  0.76852360  1
  N  1217  1  0.67178900  0.82665500  0.88205660  1
  N  1218  1  0.60190600  0.74329600  0.80507560  1
  N  1245  1  0.39945400  0.31075500  0.37583460  1
  N  1248  1  0.41668100  0.24066300  0.38584200  1
  N  1249  1  0.33962900  0.22437200  0.25573560  1
  N  1250  1  0.26878300  0.23094800  0.33915500  1
  O  271  1  0.93494800  0.52727400  0.32125600  1
  O  272  1  0.02023000  0.62971900  0.28950200  1
  O  273  1  0.95879800  0.55831800  0.34890800  1
  O  274  1  0.96624300  0.63863100  0.27704000  1
  O  303  1  0.60330700  0.81167600  0.49137100  1
  O  304  1  0.68810400  0.67659300  0.38979100  1
  O  305  1  0.62712000  0.80780400  0.46006100  1
  O  306  1  0.63394600  0.65558500  0.38118000  1
  O  335  1  0.26763500  0.69876500  0.20760900  1
  O  336  1  0.35493400  0.73109500  0.34189000  1
  O  337  1  0.29197200  0.67118100  0.21114200  1
  O  338  1  0.30115200  0.74394900  0.36340800  1
  O  367  1  0.43669800  0.49761400  0.69230900  1
  O  368  1  0.52414100  0.39632500  0.72579200  1
  O  369  1  0.46087200  0.46635900  0.66483600  1
  O  370  1  0.47021500  0.38763100  0.73836800  1
  O  399  1  0.10164200  0.21241100  0.52108700  1
  O  400  1  0.18957700  0.34627800  0.62327500  1
  O  401  1  0.12582900  0.21568900  0.55207000  1
  O  402  1  0.13582200  0.36791200  0.63226100  1
  O  431  1  0.77078300  0.32774000  0.80688100  1
  O  432  1  0.85611000  0.29478300  0.67215200  1
  O  433  1  0.79442500  0.35528600  0.80323200  1
  O  434  1  0.80196000  0.28258700  0.65104200  1
  O  463  1  0.04259300  0.43449200  0.48998300  1
  O  464  1  0.02955700  0.55757900  0.46761400  1
  O  465  1  0.09800400  0.44472100  0.47999600  1
  O  466  1  0.00526200  0.57999600  0.50106800  1
  O  495  1  0.70737000  0.07330100  0.58388400  1
  O  496  1  0.69710600  0.92809600  0.46028200  1
  O  497  1  0.76295700  0.05299000  0.57372000  1
  O  498  1  0.67263200  0.93922600  0.43799300  1
  O  527  1  0.37497000  0.53074700  0.94728300  1
  O  528  1  0.36261500  0.55216800  0.09234600  1
  O  529  1  0.43033100  0.54052400  0.96753900  1
  O  530  1  0.33830400  0.51879800  0.08117700  1
  O  559  1  0.54131200  0.59011200  0.52456300  1
  O  560  1  0.52961000  0.46609900  0.54514300  1
  O  561  1  0.59674500  0.57921600  0.53401400  1
  O  562  1  0.50466900  0.44405500  0.51186600  1
  O  591  1  0.21014300  0.95225800  0.42831700  1
  O  592  1  0.19503000  0.09711800  0.55178200  1
  O  593  1  0.26531800  0.97256000  0.43937400  1
  O  594  1  0.16999800  0.08598500  0.57390600  1
  O  623  1  0.87577900  0.49623500  0.06834900  1
  O  624  1  0.86296900  0.47475200  0.92335300  1
  O  625  1  0.93122000  0.48659800  0.04801100  1
  O  626  1  0.83776300  0.50806100  0.93446800  1
  O  901  1  0.44546500  0.26418000  0.64626200  1
  O  902  1  0.53074700  0.36662500  0.61450800  1
  O  903  1  0.46931500  0.29522400  0.67391400  1
  O  904  1  0.47676000  0.37553700  0.60204600  1
  O  933  1  0.11382400  0.54858200  0.81637700  1
  O  934  1  0.19862100  0.41349900  0.71479700  1
  O  935  1  0.13763700  0.54471000  0.78506700  1
  O  936  1  0.14446300  0.39249100  0.70618600  1
  O  965  1  0.77815200  0.43567100  0.53261460  1
  O  966  1  0.86545100  0.46800100  0.66689600  1
  O  967  1  0.80248900  0.40808700  0.53614800  1
  O  968  1  0.81166900  0.48085500  0.68841400  1
  O  997  1  0.94721540  0.23452000  0.01731500  1
  O  998  1  0.03465800  0.13323100  0.05079800  1
  O  999  1  0.97138940  0.20326500  0.98984200  1
  O  1000  1  0.98073240  0.12453700  0.06337400  1
  O  1029  1  0.61215900  0.94931660  0.84609260  1
  O  1030  1  0.70009400  0.08318400  0.94828100  1
  O  1031  1  0.63634600  0.95259460  0.87707560  1
  O  1032  1  0.64633900  0.10481800  0.95726700  1
  O  1061  1  0.28130000  0.06464600  0.13188660  1
  O  1062  1  0.36662700  0.03168900  0.99715800  1
  O  1063  1  0.30494200  0.09219200  0.12823760  1
  O  1064  1  0.31247700  0.01949300  0.97604800  1
  O  1093  1  0.55311000  0.17139800  0.81498900  1
  O  1094  1  0.54007400  0.29448500  0.79262000  1
  O  1095  1  0.60852100  0.18162700  0.80500200  1
  O  1096  1  0.51577900  0.31690200  0.82607400  1
  O  1125  1  0.21788700  0.81020700  0.90888960  1
  O  1126  1  0.20762300  0.66500200  0.78528800  1
  O  1127  1  0.27347400  0.78989600  0.89872600  1
  O  1128  1  0.18314900  0.67613200  0.76299860  1
  O  1157  1  0.88548700  0.26765300  0.27228865  1
  O  1158  1  0.87313200  0.28907400  0.41735200  1
  O  1159  1  0.94084840  0.27743000  0.29254460  1
  O  1160  1  0.84882100  0.25570400  0.40618300  1
  O  1189  1  0.05182900  0.32701800  0.84956900  1
  O  1190  1  0.04012700  0.20300500  0.87014900  1
  O  1191  1  0.10726200  0.31612200  0.85902000  1
  O  1192  1  0.01518600  0.18096100  0.83687200  1
  O  1221  1  0.72066000  0.68916400  0.75332260  1
  O  1222  1  0.70554700  0.83402400  0.87678760  1
  O  1223  1  0.77583500  0.70946600  0.76437960  1
  O  1224  1  0.68051500  0.82289100  0.89891160  1
  O  1253  1  0.38629600  0.23314100  0.39335500  1
  O  1254  1  0.37348600  0.21165800  0.24835860  1
  O  1255  1  0.44173700  0.22350400  0.37301700  1
  O  1256  1  0.34828000  0.24496700  0.25947360  1
