# generated using pymatgen
data_H20C35N4
_symmetry_space_group_name_H-M   'P 1'
_cell_length_a   19.27300000
_cell_length_b   52.38960000
_cell_length_c   52.38960000
_cell_angle_alpha   90.00000000
_cell_angle_beta   90.00000000
_cell_angle_gamma   90.00000000
_symmetry_Int_Tables_number   1
_chemical_formula_structural   H20C35N4
_chemical_formula_sum   'H320 C560 N64'
_cell_volume   52898.02853641
_cell_formula_units_Z   16
loop_
 _symmetry_equiv_pos_site_id
 _symmetry_equiv_pos_as_xyz
  1  'x, y, z'
loop_
 _atom_site_type_symbol
 _atom_site_label
 _atom_site_symmetry_multiplicity
 _atom_site_fract_x
 _atom_site_fract_y
 _atom_site_fract_z
 _atom_site_occupancy
  C  1  1  0.20167700  0.07187000  0.98615800  1
  C  2  1  0.18323000  0.07457500  0.96037800  1
  C  3  1  0.21852400  0.09463300  0.94961600  1
  C  4  1  0.26384500  0.10512200  0.96752200  1
  C  5  1  0.30029600  0.12775800  0.96058800  1
  C  6  1  0.28973700  0.13984600  0.93637700  1
  C  7  1  0.24237000  0.12794600  0.91929300  1
  C  8  1  0.20726300  0.10554300  0.92556200  1
  C  9  1  0.13296900  0.05951100  0.94821500  1
  C  10  1  0.09821500  0.04108300  0.96243700  1
  C  11  1  0.11243200  0.03770900  0.98870200  1
  C  12  1  0.16442200  0.05326200  0.00058100  1
  C  13  1  0.32854300  0.07891900  0.99959800  1
  C  14  1  0.36006700  0.09404100  0.01837100  1
  C  15  1  0.31384400  0.11233100  0.02657500  1
  C  16  1  0.25053200  0.10934200  0.01375000  1
  C  17  1  0.32397700  0.13038300  0.04598800  1
  C  18  1  0.26802800  0.14558500  0.05337800  1
  C  19  1  0.20216900  0.14303900  0.04160700  1
  C  20  1  0.19430900  0.12520700  0.02117800  1
  C  21  1  0.36326300  0.05602400  0.99233500  1
  C  22  1  0.42911700  0.04958600  0.00313600  1
  C  23  1  0.45959200  0.06636000  0.02109100  1
  C  24  1  0.42530100  0.08848500  0.02892100  1
  C  37  1  0.25951700  0.09051500  0.99232300  1
  C  38  1  0.70158200  0.43538600  0.02108200  1
  C  39  1  0.68353600  0.43280000  0.04691300  1
  C  40  1  0.71886000  0.41273900  0.05765800  1
  C  41  1  0.76401200  0.40220800  0.03972200  1
  C  42  1  0.80048800  0.37957900  0.04665600  1
  C  43  1  0.79026600  0.36758300  0.07093300  1
  C  44  1  0.74335000  0.37960200  0.08810100  1
  C  45  1  0.70810400  0.40197100  0.08180700  1
  C  46  1  0.63328000  0.44786000  0.05908400  1
  C  47  1  0.59829800  0.46621900  0.04484300  1
  C  48  1  0.61224000  0.46951100  0.01854600  1
  C  49  1  0.66405400  0.45390100  0.00664000  1
  C  50  1  0.82826000  0.42841700  0.00752200  1
  C  51  1  0.85949800  0.41343700  0.98857400  1
  C  52  1  0.81347700  0.39502100  0.98052100  1
  C  53  1  0.75036600  0.39787100  0.99350700  1
  C  54  1  0.82360800  0.37694900  0.96113000  1
  C  55  1  0.76779400  0.36159900  0.95390300  1
  C  56  1  0.70209000  0.36399400  0.96583300  1
  C  57  1  0.69428200  0.38187000  0.98622700  1
  C  58  1  0.86312000  0.45124400  0.01490300  1
  C  59  1  0.92884400  0.45773600  0.00403500  1
  C  60  1  0.95917600  0.44105900  0.98596100  1
  C  61  1  0.92471400  0.41901100  0.97801500  1
  C  74  1  0.75940400  0.41674500  0.01489200  1
  C  75  1  0.45291700  0.27104100  0.82020300  1
  C  76  1  0.43568300  0.29696700  0.82258700  1
  C  77  1  0.47129500  0.30772100  0.84259700  1
  C  78  1  0.51567300  0.28963200  0.85331800  1
  C  79  1  0.55151200  0.29640400  0.87613200  1
  C  80  1  0.54139000  0.32067100  0.88815700  1
  C  81  1  0.49543300  0.33803300  0.87592000  1
  C  82  1  0.46077900  0.33188700  0.85337400  1
  C  83  1  0.38568000  0.30919700  0.80745800  1
  C  84  1  0.35024600  0.29494400  0.78921600  1
  C  85  1  0.36338500  0.26856700  0.78612400  1
  C  86  1  0.41498000  0.25660300  0.80179100  1
  C  87  1  0.57928700  0.25723100  0.82712200  1
  C  88  1  0.61032600  0.23821100  0.84206800  1
  C  89  1  0.56425000  0.23024000  0.86049900  1
  C  90  1  0.50146700  0.24346800  0.85780000  1
  C  91  1  0.57417100  0.21084700  0.87858500  1
  C  92  1  0.51849300  0.20389500  0.89412600  1
  C  93  1  0.45308300  0.21606000  0.89186200  1
  C  94  1  0.44545800  0.23641300  0.87392900  1
  C  95  1  0.61428400  0.26465900  0.80433900  1
  C  96  1  0.67972800  0.25362300  0.79775200  1
  C  97  1  0.70975000  0.23539200  0.81433200  1
  C  98  1  0.67523000  0.22745700  0.83637200  1
  C  111  1  0.51064800  0.26477800  0.83885600  1
  C  112  1  0.95259200  0.23621300  0.18703100  1
  C  113  1  0.93478000  0.21035500  0.18450200  1
  C  114  1  0.97011800  0.19961200  0.16442600  1
  C  115  1  0.01504700  0.21759700  0.15384500  1
  C  116  1  0.05112700  0.21076500  0.13110000  1
  C  117  1  0.04085000  0.18652400  0.11904700  1
  C  118  1  0.99448000  0.16924000  0.13118600  1
  C  119  1  0.95961200  0.17543600  0.15367300  1
  C  120  1  0.88471000  0.19816300  0.19963300  1
  C  121  1  0.84964400  0.21241200  0.21797500  1
  C  122  1  0.86326000  0.23874400  0.22117600  1
  C  123  1  0.91502000  0.25065500  0.20554100  1
  C  124  1  0.07917300  0.24983600  0.18004800  1
  C  125  1  0.11027400  0.26884700  0.16511100  1
  C  126  1  0.06429300  0.27683700  0.14665600  1
  C  127  1  0.00126000  0.26378700  0.14948200  1
  C  128  1  0.07435800  0.29621700  0.12856200  1
  C  129  1  0.01869000  0.30326300  0.11305900  1
  C  130  1  0.95317200  0.29120100  0.11538500  1
  C  131  1  0.94536400  0.27084600  0.13330100  1
  C  132  1  0.11407100  0.24245700  0.20286900  1
  C  133  1  0.17976900  0.25334200  0.20936800  1
  C  134  1  0.20998700  0.27146800  0.19271600  1
  C  135  1  0.17546800  0.27942600  0.17068100  1
  C  148  1  0.01035700  0.24242400  0.16837100  1
  C  149  1  0.81228200  0.93715600  0.02150700  1
  C  150  1  0.82505000  0.93552900  0.04782700  1
  C  151  1  0.78759400  0.91579500  0.05825500  1
  C  152  1  0.74682800  0.90438200  0.03943800  1
  C  153  1  0.71216200  0.88119000  0.04573600  1
  C  154  1  0.71912000  0.86971500  0.07042800  1
  C  155  1  0.75984600  0.88305900  0.08873200  1
  C  156  1  0.79387200  0.90581000  0.08294300  1
  C  157  1  0.87425400  0.95056300  0.06059800  1
  C  158  1  0.91333400  0.96792100  0.04653400  1
  C  159  1  0.90439400  0.97035500  0.01984600  1
  C  160  1  0.85337000  0.95484400  0.00734800  1
  C  161  1  0.68805600  0.93079200  0.00593600  1
  C  162  1  0.66110000  0.91729700  0.98509700  1
  C  163  1  0.70722800  0.89862700  0.97786800  1
  C  164  1  0.76677200  0.89980100  0.99317500  1
  C  165  1  0.69955800  0.88127600  0.95770000  1
  C  166  1  0.75428800  0.86477100  0.95222200  1
  C  167  1  0.81657200  0.86524600  0.96663900  1
  C  168  1  0.82187000  0.88267500  0.98754400  1
  C  169  1  0.65086900  0.95281200  0.01420800  1
  C  170  1  0.58780600  0.96019700  0.00187700  1
  C  171  1  0.56272000  0.94539600  0.98128100  1
  C  172  1  0.59888000  0.92392800  0.97282900  1
  C  185  1  0.75512800  0.91853400  0.01455100  1
  C  186  1  0.31196500  0.57006900  0.98566300  1
  C  187  1  0.32482100  0.57171900  0.95934900  1
  C  188  1  0.28728300  0.59141000  0.94888300  1
  C  189  1  0.24686300  0.60292300  0.96773800  1
  C  190  1  0.21195300  0.62605800  0.96140500  1
  C  191  1  0.21904800  0.63755600  0.93673000  1
  C  192  1  0.25992800  0.62424000  0.91845400  1
  C  193  1  0.29380900  0.60145500  0.92423000  1
  C  194  1  0.37366200  0.55655100  0.94654700  1
  C  195  1  0.41272100  0.53918900  0.96061300  1
  C  196  1  0.40391100  0.53680700  0.98730900  1
  C  197  1  0.35291300  0.55232700  0.99981100  1
  C  198  1  0.18765500  0.57652900  0.00116500  1
  C  199  1  0.16048400  0.59013100  0.02190000  1
  C  200  1  0.20675500  0.60872400  0.02920400  1
  C  201  1  0.26644500  0.60746000  0.01398100  1
  C  202  1  0.19911700  0.62606300  0.04938400  1
  C  203  1  0.25409100  0.64241200  0.05500100  1
  C  204  1  0.31656800  0.64177600  0.04071600  1
  C  205  1  0.32185400  0.62439300  0.01977500  1
  C  206  1  0.15062100  0.55444600  0.99297200  1
  C  207  1  0.08759500  0.54705500  0.00532700  1
  C  208  1  0.06225200  0.56197000  0.02579600  1
  C  209  1  0.09824600  0.58350700  0.03416300  1
  C  222  1  0.25487300  0.58872200  0.99261000  1
  C  223  1  0.56206000  0.73588100  0.18526700  1
  C  224  1  0.57852400  0.70987000  0.18303600  1
  C  225  1  0.54372400  0.69928600  0.16274300  1
  C  226  1  0.50043900  0.71756200  0.15174600  1
  C  227  1  0.46629100  0.71107800  0.12850200  1
  C  228  1  0.47680100  0.68688800  0.11638000  1
  C  229  1  0.52079000  0.66918500  0.12910700  1
  C  230  1  0.55395200  0.67507500  0.15202800  1
  C  231  1  0.62763400  0.69747600  0.19842300  1
  C  232  1  0.66303600  0.71164500  0.21674300  1
  C  233  1  0.65088400  0.73811200  0.21961000  1
  C  234  1  0.59999400  0.75022700  0.20374900  1
  C  235  1  0.43584900  0.74953300  0.17804800  1
  C  236  1  0.40451400  0.76847100  0.16309900  1
  C  237  1  0.45065500  0.77667000  0.14479200  1
  C  238  1  0.51395700  0.76380400  0.14767000  1
  C  239  1  0.44020100  0.79597100  0.12665500  1
  C  240  1  0.49577100  0.80316700  0.11118700  1
  C  241  1  0.56163000  0.79134400  0.11354600  1
  C  242  1  0.56970400  0.77098500  0.13146100  1
  C  243  1  0.40106300  0.74216300  0.20090300  1
  C  244  1  0.33520400  0.75293600  0.20738300  1
  C  245  1  0.30469500  0.77092800  0.19066200  1
  C  246  1  0.33907100  0.77888400  0.16859800  1
  C  259  1  0.50491700  0.74230600  0.16642600  1
  C  260  1  0.06166100  0.77135000  0.82196500  1
  C  261  1  0.07749600  0.79742400  0.82405900  1
  C  262  1  0.04228700  0.80802500  0.84425400  1
  C  263  1  0.99947000  0.78965700  0.85535500  1
  C  264  1  0.96576000  0.79604900  0.87871500  1
  C  265  1  0.97611600  0.82025700  0.89081800  1
  C  266  1  0.01965400  0.83804400  0.87799700  1
  C  267  1  0.05249700  0.83222600  0.85499600  1
  C  268  1  0.12655900  0.80986500  0.80868900  1
  C  269  1  0.16253400  0.79568500  0.79053100  1
  C  270  1  0.15083800  0.76918200  0.78773300  1
  C  271  1  0.10006800  0.75701100  0.80360800  1
  C  272  1  0.93562400  0.75749800  0.82907900  1
  C  273  1  0.90446800  0.73847900  0.84397700  1
  C  274  1  0.95057400  0.73037000  0.86233400  1
  C  275  1  0.01362000  0.74343000  0.85959500  1
  C  276  1  0.94032600  0.71098500  0.88039300  1
  C  277  1  0.99592200  0.70386900  0.89588400  1
  C  278  1  0.06158300  0.71587900  0.89367000  1
  C  279  1  0.06944100  0.73627600  0.87578300  1
  C  280  1  0.90076800  0.76489600  0.80624800  1
  C  281  1  0.83503800  0.75404300  0.79972200  1
  C  282  1  0.80472600  0.73594000  0.81637000  1
  C  283  1  0.83923000  0.72793900  0.83839000  1
  C  296  1  0.00449400  0.76486800  0.84077400  1
  C  297  1  0.70280600  0.57168000  0.48638700  1
  C  298  1  0.68683200  0.57370900  0.46032100  1
  C  299  1  0.72187000  0.59391400  0.44964500  1
  C  300  1  0.76447400  0.60516000  0.46798800  1
  C  301  1  0.79843200  0.62843400  0.46144900  1
  C  302  1  0.78818600  0.64039800  0.43716100  1
  C  303  1  0.74463800  0.62748700  0.41944200  1
  C  304  1  0.71179800  0.60450900  0.42537100  1
  C  305  1  0.63820800  0.55812600  0.44790600  1
  C  306  1  0.60255800  0.53991500  0.46213800  1
  C  307  1  0.61415400  0.53725400  0.48866400  1
  C  308  1  0.66466000  0.55328900  0.50077900  1
  C  309  1  0.82882800  0.57895300  0.50008600  1
  C  310  1  0.86012000  0.59392100  0.51901900  1
  C  311  1  0.81388000  0.61220400  0.52721200  1
  C  312  1  0.75067200  0.60936900  0.51427000  1
  C  313  1  0.82422000  0.63029700  0.54656300  1
  C  314  1  0.76862000  0.64575200  0.55374900  1
  C  315  1  0.70288000  0.64349600  0.54181600  1
  C  316  1  0.69490200  0.62558000  0.52144300  1
  C  317  1  0.86373200  0.55613200  0.49267400  1
  C  318  1  0.92951800  0.54962500  0.50349300  1
  C  319  1  0.95977800  0.56627500  0.52160900  1
  C  320  1  0.92532600  0.58831700  0.52958000  1
  C  333  1  0.75982000  0.59058500  0.49279500  1
  C  334  1  0.20217400  0.93558500  0.52085000  1
  C  335  1  0.18622400  0.93354600  0.54691800  1
  C  336  1  0.22113700  0.91328700  0.55754600  1
  C  337  1  0.26395100  0.90211600  0.53922600  1
  C  338  1  0.29809500  0.87888100  0.54576900  1
  C  339  1  0.28799700  0.86692600  0.57007100  1
  C  340  1  0.24446600  0.87982400  0.58780800  1
  C  341  1  0.21132700  0.90273900  0.58185400  1
  C  342  1  0.13753500  0.94910100  0.55933300  1
  C  343  1  0.10202400  0.96737200  0.54512700  1
  C  344  1  0.11369100  0.97007100  0.51860900  1
  C  345  1  0.16410900  0.95401200  0.50647700  1
  C  346  1  0.32810100  0.92840000  0.50709900  1
  C  347  1  0.35913300  0.91360500  0.48797700  1
  C  348  1  0.31306000  0.89524100  0.47985900  1
  C  349  1  0.25002900  0.89791700  0.49294700  1
  C  350  1  0.32339900  0.87719000  0.46047500  1
  C  351  1  0.26795100  0.86160400  0.45340700  1
  C  352  1  0.20237200  0.86366400  0.46551200  1
  C  353  1  0.19441600  0.88158400  0.48587900  1
  C  354  1  0.36313400  0.95114100  0.51466300  1
  C  355  1  0.42884400  0.95771100  0.50382000  1
  C  356  1  0.45896200  0.94118300  0.48556200  1
  C  357  1  0.42433900  0.91923600  0.47743100  1
  C  370  1  0.25920800  0.91669700  0.51442900  1
  C  371  1  0.95228600  0.77112700  0.31984400  1
  C  372  1  0.94013800  0.79750000  0.32123400  1
  C  373  1  0.97773600  0.80798700  0.34091500  1
  C  374  1  0.01760500  0.78908800  0.35262200  1
  C  375  1  0.05217600  0.79544600  0.37582100  1
  C  376  1  0.04552900  0.82022000  0.38714400  1
  C  377  1  0.00547400  0.83856400  0.37358000  1
  C  378  1  0.97176800  0.83274000  0.35076800  1
  C  379  1  0.89134000  0.81029100  0.30603200  1
  C  380  1  0.85193200  0.79618700  0.28880000  1
  C  381  1  0.86018800  0.76944700  0.28662200  1
  C  382  1  0.91095800  0.75694400  0.30224500  1
  C  383  1  0.07638600  0.75557200  0.32625200  1
  C  384  1  0.10351800  0.73479100  0.33978500  1
  C  385  1  0.05732800  0.72750000  0.35841500  1
  C  386  1  0.99775400  0.74279500  0.35727900  1
  C  387  1  0.06500100  0.70727600  0.37570100  1
  C  388  1  0.01017900  0.70168300  0.39212400  1
  C  389  1  0.94779200  0.71603400  0.39165400  1
  C  390  1  0.94248400  0.73700000  0.37428600  1
  C  391  1  0.11352700  0.76387100  0.30422800  1
  C  392  1  0.17651600  0.75152300  0.29678000  1
  C  393  1  0.20174900  0.73097000  0.31160200  1
  C  394  1  0.16570400  0.72252500  0.33310100  1
  C  407  1  0.00930200  0.76416900  0.33852300  1
  C  408  1  0.45159500  0.73607000  0.68730500  1
  C  409  1  0.43855700  0.70977100  0.68563100  1
  C  410  1  0.47584500  0.69932200  0.66586100  1
  C  411  1  0.51665900  0.71811200  0.65442400  1
  C  412  1  0.55173600  0.71171400  0.63133700  1
  C  413  1  0.54479800  0.68699700  0.61990000  1
  C  414  1  0.50381400  0.66875900  0.63322700  1
  C  415  1  0.46967200  0.67460500  0.65594100  1
  C  416  1  0.38968500  0.69699500  0.70080900  1
  C  417  1  0.35084700  0.71106900  0.71823800  1
  C  418  1  0.35980400  0.73775500  0.72064100  1
  C  419  1  0.41080800  0.75022900  0.70509400  1
  C  420  1  0.57595600  0.75144700  0.68091200  1
  C  421  1  0.60314400  0.77226800  0.66745700  1
  C  422  1  0.55705900  0.77962800  0.64881800  1
  C  423  1  0.49727500  0.76444200  0.64998400  1
  C  424  1  0.56488800  0.79987700  0.63156800  1
  C  425  1  0.51011300  0.80556500  0.61515700  1
  C  426  1  0.44763200  0.79128100  0.61562200  1
  C  427  1  0.44215600  0.77026600  0.63292000  1
  C  428  1  0.61300200  0.74310800  0.70294100  1
  C  429  1  0.67619400  0.75533300  0.71036600  1
  C  430  1  0.70155600  0.77588900  0.69557100  1
  C  431  1  0.66555200  0.78440800  0.67409400  1
  C  444  1  0.50873300  0.74298200  0.66865000  1
  C  445  1  0.31201200  0.43716100  0.52125100  1
  C  446  1  0.32193200  0.43599700  0.54776200  1
  C  447  1  0.28455800  0.41603100  0.55787200  1
  C  448  1  0.24668100  0.40407300  0.53856900  1
  C  449  1  0.21476500  0.38020900  0.54431800  1
  C  450  1  0.22132400  0.36868200  0.56898900  1
  C  451  1  0.25781500  0.38275500  0.58793400  1
  C  452  1  0.28944300  0.40611100  0.58264100  1
  C  453  1  0.36937700  0.45144300  0.56094200  1
  C  454  1  0.40957300  0.46869000  0.54713200  1
  C  455  1  0.40367400  0.47059000  0.52027900  1
  C  456  1  0.35411200  0.45476000  0.50738300  1
  C  457  1  0.18892700  0.43086000  0.50516500  1
  C  458  1  0.16280200  0.41794000  0.48384000  1
  C  459  1  0.20899600  0.39934500  0.47648400  1
  C  460  1  0.26779500  0.39992500  0.49221600  1
  C  461  1  0.20155600  0.38234900  0.45601600  1
  C  462  1  0.25551200  0.36543100  0.45080700  1
  C  463  1  0.31677100  0.36502700  0.46582400  1
  C  464  1  0.32201100  0.38230100  0.48687700  1
  C  465  1  0.15137700  0.45266100  0.51382200  1
  C  466  1  0.08873100  0.46036600  0.50139200  1
  C  467  1  0.06432700  0.44605800  0.48034500  1
  C  468  1  0.10089700  0.42484200  0.47149600  1
  C  481  1  0.25571600  0.41838700  0.51382200  1
  C  482  1  0.81119200  0.07005400  0.48601800  1
  C  483  1  0.82085200  0.07110400  0.45948800  1
  C  484  1  0.78325600  0.09097400  0.44930100  1
  C  485  1  0.74614200  0.10316400  0.46866000  1
  C  486  1  0.71404600  0.12697900  0.46284600  1
  C  487  1  0.72057200  0.13843000  0.43814400  1
  C  488  1  0.75678400  0.12425700  0.41920000  1
  C  489  1  0.78812400  0.10085100  0.42451600  1
  C  490  1  0.86781500  0.05547600  0.44628900  1
  C  491  1  0.90830200  0.03834500  0.46013200  1
  C  492  1  0.90290000  0.03664600  0.48701100  1
  C  493  1  0.85344800  0.05252400  0.49990700  1
  C  494  1  0.68809800  0.07650200  0.50208800  1
  C  495  1  0.66178600  0.08959600  0.52327800  1
  C  496  1  0.70812600  0.10814200  0.53063200  1
  C  497  1  0.76705200  0.10742200  0.51497300  1
  C  498  1  0.70072200  0.12520200  0.55105000  1
  C  499  1  0.75496800  0.14196600  0.55634300  1
  C  500  1  0.81648400  0.14212900  0.54147400  1
  C  501  1  0.82165200  0.12484700  0.52042400  1
  C  502  1  0.65066200  0.05461800  0.49357700  1
  C  503  1  0.58805600  0.04695500  0.50605700  1
  C  504  1  0.56346200  0.06143000  0.52695800  1
  C  505  1  0.59988600  0.08274200  0.53565200  1
  C  518  1  0.75501400  0.08888400  0.49343400  1
  C  519  1  0.06268800  0.23604300  0.68557300  1
  C  520  1  0.07319600  0.20956300  0.68436700  1
  C  521  1  0.03609700  0.19936800  0.66439500  1
  C  522  1  0.99802800  0.21858500  0.65238900  1
  C  523  1  0.96537200  0.21264700  0.62871100  1
  C  524  1  0.97196600  0.18792500  0.61729800  1
  C  525  1  0.00895500  0.16910200  0.63135800  1
  C  526  1  0.04098500  0.17455400  0.65459800  1
  C  527  1  0.12066500  0.19646500  0.69987000  1
  C  528  1  0.16046300  0.21034700  0.71717500  1
  C  529  1  0.15407500  0.23718100  0.71907800  1
  C  530  1  0.10435400  0.24998900  0.70324700  1
  C  531  1  0.93927800  0.25181700  0.67907000  1
  C  532  1  0.91256400  0.27291100  0.66593600  1
  C  533  1  0.95881200  0.28037800  0.64740500  1
  C  534  1  0.01823300  0.26497300  0.64826800  1
  C  535  1  0.95102000  0.30075400  0.63032200  1
  C  536  1  0.00538600  0.30630300  0.61369600  1
  C  537  1  0.06747300  0.29176200  0.61373800  1
  C  538  1  0.07289500  0.27065100  0.63094000  1
  C  539  1  0.90198800  0.24323900  0.70095800  1
  C  540  1  0.83906400  0.25553600  0.70855300  1
  C  541  1  0.81407200  0.27634900  0.69404100  1
  C  542  1  0.85029400  0.28508100  0.67269900  1
  C  555  1  0.00641800  0.24335200  0.66673400  1
  C  556  1  0.56223200  0.27117400  0.32165600  1
  C  557  1  0.57217800  0.29768900  0.32273600  1
  C  558  1  0.53470200  0.30789500  0.34262000  1
  C  559  1  0.49706500  0.28861500  0.35471900  1
  C  560  1  0.46499700  0.29447800  0.37852800  1
  C  561  1  0.47151300  0.31920700  0.38992900  1
  C  562  1  0.50805800  0.33808400  0.37579200  1
  C  563  1  0.53971400  0.33268800  0.35246900  1
  C  564  1  0.61961200  0.31082500  0.30724800  1
  C  565  1  0.65992800  0.29695000  0.29010000  1
  C  566  1  0.65393000  0.27009800  0.28825400  1
  C  567  1  0.60429600  0.25725000  0.30409100  1
  C  568  1  0.43897700  0.25525100  0.32808400  1
  C  569  1  0.41244100  0.23410400  0.34118000  1
  C  570  1  0.45869300  0.22669000  0.35973000  1
  C  571  1  0.51783900  0.24223900  0.35897800  1
  C  572  1  0.45115000  0.20623200  0.37673100  1
  C  573  1  0.50554700  0.20073800  0.39335700  1
  C  574  1  0.56736400  0.21544400  0.39345600  1
  C  575  1  0.57259400  0.23657600  0.37627100  1
  C  576  1  0.40158200  0.26384400  0.30622900  1
  C  577  1  0.33866100  0.25153900  0.29864500  1
  C  578  1  0.31388900  0.23065100  0.31310000  1
  C  579  1  0.35030400  0.22186300  0.33437400  1
  C  592  1  0.50595700  0.26382000  0.34046800  1
  C  593  1  0.06797100  0.01981200  0.00083800  1
  C  595  1  0.01314200  0.97850000  0.99527800  1
  C  596  1  0.95281200  0.98723600  0.00810400  1
  C  598  1  0.00770000  0.02831300  0.01348600  1
  C  600  1  0.02147000  0.95215500  0.98564800  1
  C  604  1  0.56738400  0.48723600  0.00636900  1
  C  606  1  0.51238900  0.52855500  0.01192000  1
  C  607  1  0.45213900  0.51983200  0.99901300  1
  C  609  1  0.50716000  0.47876100  0.99369200  1
  C  611  1  0.52071800  0.55488700  0.02159100  1
  C  615  1  0.31839900  0.25642300  0.76837200  1
  C  617  1  0.26326500  0.26168800  0.72708700  1
  C  618  1  0.20319600  0.24869800  0.73587500  1
  C  620  1  0.25856800  0.24359000  0.77696400  1
  C  622  1  0.27144900  0.27122600  0.70069800  1
  C  626  1  0.81853400  0.25092200  0.23897300  1
  C  628  1  0.76327000  0.24559100  0.28029200  1
  C  629  1  0.70329400  0.25861200  0.27151200  1
  C  631  1  0.75859000  0.26376400  0.23045600  1
  C  633  1  0.77141600  0.23600300  0.30666000  1
  C  637  1  0.96462400  0.48113800  0.00776400  1
  C  639  1  0.98096200  0.52377600  0.99150100  1
  C  640  1  0.05029300  0.52409700  0.00084600  1
  C  642  1  0.03358900  0.48169100  0.01691000  1
  C  644  1  0.94910400  0.54554000  0.97785800  1
  C  648  1  0.46478100  0.02612800  0.99954400  1
  C  650  1  0.48096900  0.98344500  0.01563000  1
  C  651  1  0.55044400  0.98312500  0.00640100  1
  C  653  1  0.53377200  0.02560500  0.99042000  1
  C  655  1  0.44896500  0.96162100  0.02913100  1
  C  659  1  0.71560800  0.25745800  0.77439400  1
  C  661  1  0.73226200  0.24146600  0.73165700  1
  C  662  1  0.80169200  0.25071600  0.73141600  1
  C  664  1  0.78461600  0.26656300  0.77394000  1
  C  666  1  0.70044000  0.22804200  0.70975600  1
  C  670  1  0.21562900  0.24957600  0.23274900  1
  C  672  1  0.23173400  0.26549700  0.27552200  1
  C  673  1  0.30126600  0.25636600  0.27578200  1
  C  675  1  0.28469900  0.24054200  0.23324500  1
  C  677  1  0.19966300  0.27882300  0.29743300  1
  C  681  1  0.69610800  0.75016600  0.23732400  1
  C  683  1  0.75119300  0.74488700  0.27866400  1
  C  684  1  0.81151800  0.75766000  0.26985100  1
  C  686  1  0.75632200  0.76280200  0.22875900  1
  C  688  1  0.74287400  0.73545300  0.30508000  1
  C  692  1  0.19643600  0.75715100  0.77010700  1
  C  694  1  0.25139500  0.76244400  0.72879400  1
  C  695  1  0.31154100  0.74950800  0.73758700  1
  C  697  1  0.25635500  0.74436900  0.77868200  1
  C  699  1  0.24312800  0.77196300  0.70240300  1
  C  703  1  0.29958500  0.74929600  0.23085100  1
  C  705  1  0.28338500  0.76537900  0.27353900  1
  C  706  1  0.21392500  0.75614800  0.27387900  1
  C  708  1  0.23064300  0.74012800  0.23139900  1
  C  710  1  0.31536300  0.77888800  0.29536000  1
  C  714  1  0.79944000  0.75770400  0.77626700  1
  C  716  1  0.78295600  0.74143600  0.73362100  1
  C  717  1  0.71356800  0.75070600  0.73328500  1
  C  719  1  0.73045700  0.76685900  0.77568700  1
  C  721  1  0.81483400  0.72782800  0.71184000  1
  C  725  1  0.56853600  0.51969100  0.50080000  1
  C  727  1  0.51288400  0.47842500  0.49565600  1
  C  728  1  0.45325500  0.48729500  0.50884400  1
  C  730  1  0.50903700  0.52830000  0.51382400  1
  C  732  1  0.52071200  0.45202700  0.48610400  1
  C  736  1  0.06815800  0.98767700  0.50651300  1
  C  738  1  0.01230800  0.02894000  0.51155400  1
  C  739  1  0.95261200  0.01999700  0.49846000  1
  C  741  1  0.00848700  0.97899800  0.49361300  1
  C  743  1  0.02014200  0.05537300  0.52100600  1
  C  747  1  0.46480900  0.98105600  0.50774400  1
  C  749  1  0.48110100  0.02393100  0.49207700  1
  C  750  1  0.55057800  0.02408600  0.50127700  1
  C  752  1  0.53390200  0.98145700  0.51677100  1
  C  754  1  0.44912700  0.04592200  0.47884700  1
  C  758  1  0.96546400  0.52625200  0.49967800  1
  C  760  1  0.98157000  0.48337900  0.51536000  1
  C  761  1  0.05118600  0.48318800  0.50631100  1
  C  763  1  0.03459700  0.52580900  0.49069700  1
  C  765  1  0.94944200  0.46137200  0.52851000  1
  C  769  1  0.32431900  0.16267800  0.92772800  1
  C  771  1  0.34695600  0.18964900  0.89064100  1
  C  772  1  0.39723000  0.20361700  0.90455200  1
  C  774  1  0.37177900  0.17772000  0.94168900  1
  C  776  1  0.33279700  0.19242400  0.86300200  1
  C  780  1  0.82469200  0.34470600  0.07954400  1
  C  782  1  0.84767500  0.31779600  0.11665200  1
  C  783  1  0.89750400  0.30369400  0.10263300  1
  C  785  1  0.87170600  0.32954500  0.06550500  1
  C  787  1  0.83385000  0.31512900  0.14432900  1
  C  791  1  0.57490200  0.32902900  0.91131700  1
  C  793  1  0.59720400  0.36579000  0.93875900  1
  C  794  1  0.64640200  0.35160400  0.95298500  1
  C  796  1  0.62111800  0.31476500  0.92660000  1
  C  798  1  0.58352000  0.39344500  0.94172200  1
  C  802  1  0.07466800  0.17809800  0.09597300  1
  C  804  1  0.09714500  0.14128200  0.06862000  1
  C  805  1  0.14646400  0.15544700  0.05442800  1
  C  807  1  0.12089300  0.19235100  0.08068700  1
  C  809  1  0.08354200  0.11361900  0.06571100  1
  C  813  1  0.68741800  0.84605200  0.07836100  1
  C  815  1  0.66775200  0.81774500  0.11471100  1
  C  816  1  0.61706000  0.80400000  0.10075100  1
  C  818  1  0.64047600  0.83102600  0.06415900  1
  C  820  1  0.68313200  0.81443500  0.14220900  1
  C  824  1  0.18727200  0.66119800  0.92877600  1
  C  826  1  0.16788200  0.68956100  0.89245400  1
  C  827  1  0.11717400  0.70325400  0.90642600  1
  C  829  1  0.14026400  0.67620900  0.94297400  1
  C  831  1  0.18356100  0.69303900  0.86500400  1
  C  835  1  0.44485500  0.67884500  0.09280200  1
  C  837  1  0.42800700  0.64276900  0.06394700  1
  C  838  1  0.37282900  0.65567600  0.05158800  1
  C  840  1  0.39411100  0.69231300  0.07880300  1
  C  842  1  0.44780700  0.61584600  0.05942700  1
  C  846  1  0.94454400  0.82822200  0.91449300  1
  C  848  1  0.92795600  0.86426700  0.94342800  1
  C  849  1  0.87282800  0.85131800  0.95574500  1
  C  851  1  0.89367500  0.81477500  0.92846300  1
  C  853  1  0.94772400  0.89120000  0.94791200  1
  C  857  1  0.81998600  0.66398100  0.42901800  1
  C  859  1  0.83614800  0.69287600  0.39291400  1
  C  860  1  0.89164600  0.70517600  0.40567400  1
  C  862  1  0.87123000  0.67790600  0.44230900  1
  C  864  1  0.81582000  0.69746300  0.36605900  1
  C  868  1  0.31986300  0.84334700  0.57819500  1
  C  870  1  0.33645500  0.81454000  0.61435500  1
  C  871  1  0.39174300  0.80217700  0.60149900  1
  C  873  1  0.37093900  0.82938200  0.56485500  1
  C  875  1  0.31629300  0.81003100  0.64124600  1
  C  879  1  0.07692700  0.82820700  0.41085300  1
  C  881  1  0.09566300  0.86452700  0.43928200  1
  C  882  1  0.14696100  0.85076600  0.45291800  1
  C  884  1  0.12441800  0.81415400  0.42578700  1
  C  886  1  0.07931100  0.89191400  0.44283200  1
  C  890  1  0.57681800  0.67894400  0.59632500  1
  C  892  1  0.59619600  0.64254400  0.56804600  1
  C  893  1  0.64739800  0.65635000  0.55441000  1
  C  895  1  0.62416400  0.69303700  0.58136700  1
  C  897  1  0.58026800  0.61510700  0.56462000  1
  C  901  1  0.19256500  0.34434300  0.57634400  1
  C  903  1  0.17971800  0.31427200  0.61165800  1
  C  904  1  0.12298000  0.30241700  0.59917300  1
  C  906  1  0.14103600  0.33061200  0.56302800  1
  C  908  1  0.20205000  0.30907500  0.63819600  1
  C  912  1  0.69198800  0.16277900  0.43074800  1
  C  914  1  0.67973400  0.19292200  0.39549100  1
  C  915  1  0.62308400  0.20482100  0.40795300  1
  C  917  1  0.64051800  0.17655500  0.44405000  1
  C  919  1  0.70234800  0.19828800  0.36902400  1
  C  923  1  0.94257200  0.18035500  0.59314100  1
  C  925  1  0.93001000  0.14489500  0.56325300  1
  C  926  1  0.87203800  0.15692400  0.55175700  1
  C  928  1  0.88992400  0.19334600  0.57968800  1
  C  930  1  0.95329800  0.11850000  0.55792400  1
  C  934  1  0.44251000  0.32671400  0.41417000  1
  C  936  1  0.43031100  0.36215800  0.44411900  1
  C  937  1  0.37222600  0.35015000  0.45553500  1
  C  939  1  0.38950800  0.31382200  0.42754300  1
  C  941  1  0.45372700  0.38854500  0.44942100  1
  H  25  1  0.50556800  0.06191400  0.02988500  1
  H  26  1  0.44637000  0.09937700  0.04312500  1
  H  27  1  0.37009200  0.13190000  0.05549800  1
  H  28  1  0.27526500  0.15745800  0.06870100  1
  H  29  1  0.14745000  0.12313000  0.01229200  1
  H  30  1  0.34001000  0.04389700  0.97967200  1
  H  31  1  0.33305600  0.13567000  0.97367400  1
  H  32  1  0.23131900  0.13552900  0.90176900  1
  H  33  1  0.17210700  0.09814400  0.91297200  1
  H  34  1  0.17501600  0.05112600  0.01957400  1
  H  35  1  0.12033400  0.06195300  0.92943100  1
  H  36  1  0.06030600  0.03073100  0.95338200  1
  H  62  1  0.00519400  0.44550500  0.97719600  1
  H  63  1  0.94583000  0.40810600  0.96383100  1
  H  64  1  0.86948800  0.37559000  0.95144700  1
  H  65  1  0.77493800  0.34979900  0.93851900  1
  H  66  1  0.64749200  0.38390600  0.99517100  1
  H  67  1  0.84007200  0.46327700  0.02770700  1
  H  68  1  0.83299400  0.37160100  0.03352400  1
  H  69  1  0.73265200  0.37211600  0.10569700  1
  H  70  1  0.67336600  0.40948800  0.09448500  1
  H  71  1  0.67434200  0.45593800  0.98761400  1
  H  72  1  0.62076400  0.44544700  0.07788200  1
  H  73  1  0.56032200  0.47653400  0.05390200  1
  H  99  1  0.75558600  0.22653200  0.80982500  1
  H  100  1  0.69613400  0.21318900  0.84722400  1
  H  101  1  0.61994400  0.20109100  0.87994800  1
  H  102  1  0.52548600  0.18860000  0.90605200  1
  H  103  1  0.39893100  0.24557200  0.87203600  1
  H  104  1  0.59148600  0.27760300  0.79239000  1
  H  105  1  0.58320000  0.28311000  0.88428300  1
  H  106  1  0.48486900  0.35563700  0.88341200  1
  H  107  1  0.42641900  0.34464900  0.84576900  1
  H  108  1  0.42481500  0.23753200  0.79987700  1
  H  109  1  0.37379900  0.32807300  0.80970300  1
  H  110  1  0.31260400  0.30407600  0.77880200  1
  H  136  1  0.25585600  0.28031100  0.19720500  1
  H  137  1  0.19638400  0.29370500  0.15984900  1
  H  138  1  0.12023900  0.30589900  0.12717400  1
  H  139  1  0.02580100  0.31853500  0.10111100  1
  H  140  1  0.89873400  0.26176400  0.13522000  1
  H  141  1  0.09113800  0.22959000  0.21486500  1
  H  142  1  0.08327200  0.22397600  0.12305700  1
  H  143  1  0.98377600  0.15166200  0.12365800  1
  H  144  1  0.92492600  0.16274000  0.16119400  1
  H  145  1  0.92521200  0.26969100  0.20754100  1
  H  146  1  0.87241200  0.17933700  0.19728300  1
  H  147  1  0.81187600  0.20332700  0.22836800  1
  H  173  1  0.51887000  0.95061500  0.97148900  1
  H  174  1  0.58100000  0.91412600  0.95730300  1
  H  175  1  0.65616600  0.88098600  0.94649300  1
  H  176  1  0.74918200  0.85338700  0.93641900  1
  H  177  1  0.86618600  0.88341600  0.99822300  1
  H  178  1  0.67041400  0.96365700  0.02874300  1
  H  179  1  0.68419600  0.87229600  0.03179800  1
  H  180  1  0.76738000  0.87619300  0.10679500  1
  H  181  1  0.82511800  0.91406000  0.09637300  1
  H  182  1  0.84662400  0.95619400  0.98804900  1
  H  183  1  0.88344400  0.94870600  0.07971600  1
  H  184  1  0.95063000  0.97811200  0.05609400  1
  H  210  1  0.01841400  0.55675200  0.03559400  1
  H  211  1  0.08031100  0.59334300  0.04965800  1
  H  212  1  0.15556000  0.62644900  0.06050300  1
  H  213  1  0.24890700  0.65384800  0.07076400  1
  H  214  1  0.36625700  0.62359300  0.00914700  1
  H  215  1  0.17037800  0.54351100  0.97854400  1
  H  216  1  0.18399900  0.63496200  0.97534300  1
  H  217  1  0.26752000  0.63111400  0.90039500  1
  H  218  1  0.32507700  0.59320800  0.91080900  1
  H  219  1  0.34612600  0.55096300  0.01910800  1
  H  220  1  0.38276800  0.55837400  0.92741900  1
  H  221  1  0.44979400  0.52890900  0.95102900  1
  H  247  1  0.25863700  0.77966600  0.19510600  1
  H  248  1  0.31798700  0.79312100  0.15775700  1
  H  249  1  0.39408400  0.80549000  0.12520300  1
  H  250  1  0.48827300  0.81845300  0.09928900  1
  H  251  1  0.61641200  0.76195700  0.13334100  1
  H  252  1  0.42427100  0.72943700  0.21297600  1
  H  253  1  0.43593000  0.72459100  0.12003500  1
  H  254  1  0.53086200  0.65148400  0.12175500  1
  H  255  1  0.58713800  0.66209200  0.15996000  1
  H  256  1  0.59081600  0.76935700  0.20552000  1
  H  257  1  0.63909600  0.67855700  0.19624700  1
  H  258  1  0.70024800  0.70240500  0.22726700  1
  H  284  1  0.75874000  0.72716600  0.81190200  1
  H  285  1  0.81815000  0.71371200  0.84925100  1
  H  286  1  0.89438000  0.70134600  0.88176900  1
  H  287  1  0.98857400  0.68855900  0.90776300  1
  H  288  1  0.11605800  0.74537500  0.87392900  1
  H  289  1  0.92379400  0.77772900  0.79424000  1
  H  290  1  0.93595600  0.78244400  0.88729700  1
  H  291  1  0.02966300  0.85575000  0.88534600  1
  H  292  1  0.08554900  0.84524200  0.84704200  1
  H  293  1  0.09126700  0.73785100  0.80191700  1
  H  294  1  0.13762800  0.82882500  0.81078300  1
  H  295  1  0.19963200  0.80497700  0.77999700  1
  H  321  1  0.00574400  0.56180100  0.53039400  1
  H  322  1  0.94628800  0.59912500  0.54386800  1
  H  323  1  0.87028000  0.63172900  0.55612200  1
  H  324  1  0.77608000  0.65766900  0.56902300  1
  H  325  1  0.64827400  0.62375600  0.51234600  1
  H  326  1  0.84068400  0.54411200  0.47985900  1
  H  327  1  0.82838600  0.63705200  0.47498900  1
  H  328  1  0.73477400  0.63472200  0.40167700  1
  H  329  1  0.67877400  0.59648700  0.41238700  1
  H  330  1  0.67345000  0.55169200  0.51994900  1
  H  331  1  0.62714600  0.56013400  0.42893600  1
  H  332  1  0.56564600  0.52927100  0.45287100  1
  H  358  1  0.50496500  0.94567300  0.47680900  1
  H  359  1  0.44535400  0.90844600  0.46314000  1
  H  360  1  0.36924200  0.87592800  0.45075200  1
  H  361  1  0.27534500  0.84978700  0.43805300  1
  H  362  1  0.14787400  0.88333200  0.49505100  1
  H  363  1  0.34024100  0.96306200  0.52761100  1
  H  364  1  0.32809700  0.87029100  0.53222400  1
  H  365  1  0.23478300  0.87261800  0.60559700  1
  H  366  1  0.17848900  0.91079900  0.59488000  1
  H  367  1  0.17294200  0.95563800  0.48731300  1
  H  368  1  0.12636800  0.94704300  0.57828900  1
  H  369  1  0.06506500  0.97799200  0.55439500  1
  H  395  1  0.24560300  0.72119100  0.30636200  1
  H  396  1  0.18367200  0.70701300  0.34290000  1
  H  397  1  0.10846900  0.69610800  0.37599500  1
  H  398  1  0.01541000  0.68589200  0.40351700  1
  H  399  1  0.89814800  0.74767000  0.37357200  1
  H  400  1  0.09389700  0.77839300  0.29338700  1
  H  401  1  0.07956700  0.78146600  0.38489500  1
  H  402  1  0.99836000  0.85670700  0.38029100  1
  H  403  1  0.94102100  0.84621800  0.34234700  1
  H  404  1  0.91728800  0.73761400  0.30106900  1
  H  405  1  0.88263800  0.82945700  0.30770200  1
  H  406  1  0.81496400  0.80577700  0.27847900  1
  H  432  1  0.74543600  0.78563900  0.70083400  1
  H  433  1  0.68351000  0.79997000  0.66436900  1
  H  434  1  0.60845800  0.81099300  0.63129200  1
  H  435  1  0.51547300  0.82135600  0.60376900  1
  H  436  1  0.39775200  0.75963200  0.63359400  1
  H  437  1  0.59326600  0.72859500  0.71377200  1
  H  438  1  0.57996600  0.72560000  0.62247300  1
  H  439  1  0.49632100  0.65067700  0.62640700  1
  H  440  1  0.43828200  0.66121200  0.66417400  1
  H  441  1  0.41769900  0.76951700  0.70646700  1
  H  442  1  0.38040300  0.67788300  0.69895200  1
  H  443  1  0.31374000  0.70151000  0.72852500  1
  H  469  1  0.02072400  0.45148700  0.47051900  1
  H  470  1  0.08347400  0.41540500  0.45567800  1
  H  471  1  0.15871300  0.38247500  0.44452200  1
  H  472  1  0.25041300  0.35421400  0.43488800  1
  H  473  1  0.36544800  0.38239100  0.49805700  1
  H  474  1  0.17037700  0.46313400  0.52872300  1
  H  475  1  0.18981500  0.37075300  0.52997000  1
  H  476  1  0.26389300  0.37600400  0.60611700  1
  H  477  1  0.31838300  0.41482700  0.59647000  1
  H  478  1  0.34922900  0.45577600  0.48798800  1
  H  479  1  0.37668100  0.44988300  0.58019700  1
  H  480  1  0.44571700  0.47911200  0.55703200  1
  H  506  1  0.51989800  0.05603100  0.53682200  1
  H  507  1  0.58244200  0.09226000  0.55141900  1
  H  508  1  0.65771200  0.12521400  0.56246100  1
  H  509  1  0.74982600  0.15326700  0.57220200  1
  H  510  1  0.86522000  0.12463000  0.50931700  1
  H  511  1  0.66984400  0.04400700  0.47880500  1
  H  512  1  0.68944600  0.13654100  0.47720600  1
  H  513  1  0.76272000  0.13094400  0.40098600  1
  H  514  1  0.81682600  0.09204900  0.41067500  1
  H  515  1  0.84882000  0.05161600  0.51931500  1
  H  516  1  0.87481000  0.05690700  0.42700900  1
  H  517  1  0.94417000  0.02781400  0.45021400  1
  H  543  1  0.77028000  0.28609900  0.69940200  1
  H  544  1  0.83260600  0.30081200  0.66318300  1
  H  545  1  0.90769000  0.31200100  0.63024000  1
  H  546  1  0.00000600  0.32219200  0.60245200  1
  H  547  1  0.11686700  0.25976300  0.63128000  1
  H  548  1  0.92146600  0.22854700  0.71160700  1
  H  549  1  0.93990600  0.22688900  0.61928000  1
  H  550  1  0.01487600  0.15086700  0.62472500  1
  H  551  1  0.06995100  0.16076500  0.66336700  1
  H  552  1  0.09913800  0.26937000  0.70428300  1
  H  553  1  0.12833900  0.17723100  0.69829300  1
  H  554  1  0.19667500  0.20051700  0.72763100  1
  H  580  1  0.27011900  0.22088700  0.30773900  1
  H  581  1  0.33263100  0.20614400  0.34391200  1
  H  582  1  0.40801300  0.19488600  0.37674100  1
  H  583  1  0.50033200  0.18482000  0.40456900  1
  H  584  1  0.61647400  0.24751700  0.37594500  1
  H  585  1  0.42087400  0.27860900  0.29563500  1
  H  586  1  0.44010700  0.28017000  0.38807000  1
  H  587  1  0.51400900  0.35631100  0.38244200  1
  H  588  1  0.56859400  0.34649100  0.34368700  1
  H  589  1  0.59936200  0.23785600  0.30311600  1
  H  590  1  0.62695700  0.33008300  0.30875200  1
  H  591  1  0.69602600  0.30682100  0.27962600  1
  H  599  1  0.00251600  0.04682500  0.01936100  1
  H  601  1  0.07165300  0.94961200  0.97630700  1
  H  602  1  0.98079200  0.94795800  0.97178900  1
  H  603  1  0.01801600  0.93859900  0.00140700  1
  H  610  1  0.50200700  0.46024400  0.98783600  1
  H  612  1  0.57085000  0.55740500  0.03097500  1
  H  613  1  0.47997700  0.55907700  0.03542600  1
  H  614  1  0.51738700  0.56846600  0.00584800  1
  H  621  1  0.25360900  0.23777400  0.79550200  1
  H  623  1  0.32160400  0.28057100  0.69808700  1
  H  624  1  0.23075700  0.28506400  0.69645900  1
  H  625  1  0.26798500  0.25541300  0.68720300  1
  H  632  1  0.75353000  0.26956700  0.21191800  1
  H  634  1  0.82156800  0.22665600  0.30925800  1
  H  635  1  0.73072200  0.22215500  0.31086500  1
  H  636  1  0.76793000  0.25179200  0.32018400  1
  H  643  1  0.05508700  0.46616100  0.02568400  1
  H  645  1  0.89691200  0.54084600  0.97123500  1
  H  646  1  0.98064600  0.55053100  0.96129400  1
  H  647  1  0.94543200  0.56206000  0.99044500  1
  H  654  1  0.55532600  0.04114300  0.98167400  1
  H  656  1  0.39669000  0.96627800  0.03569100  1
  H  657  1  0.48031400  0.95656200  0.04572500  1
  H  658  1  0.44545800  0.94515200  0.01646900  1
  H  665  1  0.80606000  0.27524700  0.78952900  1
  H  667  1  0.64812000  0.22147300  0.71432900  1
  H  668  1  0.73182600  0.21145800  0.70468200  1
  H  669  1  0.69710400  0.24075800  0.69332300  1
  H  676  1  0.30631000  0.23189300  0.21766500  1
  H  678  1  0.14727900  0.28531100  0.29284300  1
  H  679  1  0.23081900  0.29544600  0.30256000  1
  H  680  1  0.19642300  0.26606400  0.31383700  1
  H  687  1  0.76139200  0.76861100  0.21022500  1
  H  689  1  0.69265200  0.72616000  0.30770400  1
  H  690  1  0.78349400  0.72160000  0.30936700  1
  H  691  1  0.74641800  0.75130800  0.31852100  1
  H  698  1  0.26130800  0.73853000  0.79721000  1
  H  700  1  0.19305200  0.78137100  0.69982200  1
  H  701  1  0.28395300  0.78573800  0.69812500  1
  H  702  1  0.24636500  0.75613300  0.68891900  1
  H  709  1  0.20909600  0.73136500  0.21586900  1
  H  711  1  0.36762900  0.78545800  0.29070300  1
  H  712  1  0.28398800  0.79547900  0.30041700  1
  H  713  1  0.31888100  0.76622900  0.31183300  1
  H  720  1  0.70896000  0.77566800  0.79119700  1
  H  722  1  0.86708800  0.72125600  0.71650500  1
  H  723  1  0.78339200  0.71123300  0.70686000  1
  H  724  1  0.81834200  0.74042400  0.69532000  1
  H  731  1  0.50437400  0.54683800  0.51966600  1
  H  733  1  0.57073100  0.44936000  0.47667700  1
  H  734  1  0.47982500  0.44783100  0.47233200  1
  H  735  1  0.51733500  0.43853900  0.50192400  1
  H  742  1  0.00384000  0.96044300  0.48781600  1
  H  744  1  0.07023200  0.05809300  0.53036500  1
  H  745  1  0.97936000  0.05959800  0.53481200  1
  H  746  1  0.01658300  0.06880600  0.50514400  1
  H  753  1  0.55547200  0.96579700  0.52528800  1
  H  755  1  0.39677700  0.04137600  0.47229400  1
  H  756  1  0.48038200  0.05113400  0.46227500  1
  H  757  1  0.44583000  0.06225500  0.49169300  1
  H  764  1  0.05623900  0.54143400  0.48214400  1
  H  766  1  0.89697700  0.46589800  0.53495400  1
  H  767  1  0.98045000  0.45615900  0.54514500  1
  H  768  1  0.94639200  0.44504600  0.51564600  1
  H  775  1  0.38437100  0.17365100  0.96015500  1
  H  777  1  0.29393900  0.17868600  0.85653700  1
  H  778  1  0.38013300  0.18925100  0.85203000  1
  H  779  1  0.31312100  0.21154000  0.85907500  1
  H  786  1  0.88407600  0.33358000  0.04701400  1
  H  788  1  0.79528400  0.32896000  0.15082800  1
  H  789  1  0.88138400  0.31824300  0.15520600  1
  H  790  1  0.81394600  0.29606500  0.14835000  1
  H  797  1  0.63350800  0.29630300  0.92244300  1
  H  799  1  0.54545200  0.40016400  0.92781000  1
  H  800  1  0.63123800  0.40430400  0.93895800  1
  H  801  1  0.56304600  0.39723900  0.96075200  1
  H  808  1  0.13340400  0.21080000  0.08485000  1
  H  810  1  0.04542100  0.10692000  0.07961600  1
  H  811  1  0.13127200  0.10278100  0.06852800  1
  H  812  1  0.06316000  0.10977400  0.04667700  1
  H  819  1  0.62641600  0.83572900  0.04599200  1
  H  821  1  0.72191600  0.82816100  0.14876000  1
  H  822  1  0.63619600  0.81721400  0.15351600  1
  H  823  1  0.70346600  0.79531300  0.14561300  1
  H  830  1  0.12619700  0.67152100  0.96114500  1
  H  832  1  0.22246200  0.67936400  0.85844000  1
  H  833  1  0.13676300  0.69030500  0.85360900  1
  H  834  1  0.20386700  0.71219100  0.86174200  1
  H  841  1  0.37709800  0.70991800  0.08425100  1
  H  843  1  0.49031700  0.60999000  0.07191600  1
  H  844  1  0.40377800  0.60326500  0.06304200  1
  H  845  1  0.46490400  0.61350600  0.03972300  1
  H  852  1  0.87683800  0.79714300  0.92302300  1
  H  854  1  0.99022400  0.89704900  0.93541500  1
  H  855  1  0.90367800  0.90376900  0.94428300  1
  H  856  1  0.96482200  0.89356900  0.96761200  1
  H  863  1  0.88832800  0.67251500  0.45992300  1
  H  865  1  0.77309700  0.68502400  0.36030600  1
  H  866  1  0.85955400  0.69382900  0.35334700  1
  H  867  1  0.79881200  0.71718800  0.36380100  1
  H  874  1  0.38787300  0.83477900  0.54722300  1
  H  876  1  0.27369900  0.82252000  0.64701800  1
  H  877  1  0.36015100  0.81365600  0.65390500  1
  H  878  1  0.29917400  0.79032700  0.64356700  1
  H  885  1  0.13912600  0.79608600  0.42096900  1
  H  887  1  0.04008300  0.89836400  0.42923000  1
  H  888  1  0.12577700  0.90347700  0.44004700  1
  H  889  1  0.05914000  0.89507100  0.46202100  1
  H  896  1  0.63877000  0.71112400  0.58615300  1
  H  898  1  0.54113000  0.60863600  0.57824700  1
  H  899  1  0.62691100  0.60365200  0.56746000  1
  H  900  1  0.56015900  0.61182000  0.54544200  1
  H  907  1  0.12217100  0.33673700  0.54589700  1
  H  909  1  0.24549300  0.32126400  0.64374800  1
  H  910  1  0.15943000  0.31257500  0.65144600  1
  H  911  1  0.21878200  0.28926000  0.63987300  1
  H  918  1  0.62154300  0.17048600  0.46118500  1
  H  920  1  0.74580400  0.18610900  0.36346200  1
  H  921  1  0.65985000  0.19488800  0.35569100  1
  H  922  1  0.71915200  0.21810600  0.36749700  1
  H  929  1  0.87016600  0.21027800  0.58597700  1
  H  931  1  0.99758200  0.11323500  0.56983100  1
  H  932  1  0.91147200  0.10499100  0.56172000  1
  H  933  1  0.96913200  0.11690100  0.53800400  1
  H  940  1  0.36986500  0.29687200  0.42124600  1
  H  942  1  0.49809600  0.39375600  0.43753500  1
  H  943  1  0.41199500  0.40208000  0.44557700  1
  H  944  1  0.46947100  0.39016200  0.46934900  1
  N  594  1  0.06593100  0.99545700  0.99163200  1
  N  597  1  0.95442400  0.01171600  0.01707100  1
  N  605  1  0.56516600  0.51160000  0.01558100  1
  N  608  1  0.45388300  0.49535000  0.99007300  1
  N  616  1  0.31611900  0.26552400  0.74398400  1
  N  619  1  0.20526600  0.23985500  0.76040700  1
  N  627  1  0.81605400  0.24178100  0.26336000  1
  N  630  1  0.70524600  0.26748300  0.24699800  1
  N  638  1  0.94272200  0.50208600  0.99470700  1
  N  641  1  0.07239300  0.50309800  0.01377000  1
  N  649  1  0.44270200  0.00513600  0.01246600  1
  N  652  1  0.57250600  0.00418400  0.99354900  1
  N  660  1  0.69387800  0.24455400  0.75332900  1
  N  663  1  0.82350400  0.26353300  0.75253900  1
  N  671  1  0.19350900  0.26239600  0.25381000  1
  N  674  1  0.32342200  0.24359800  0.25468000  1
  N  682  1  0.69834400  0.74114400  0.26175400  1
  N  685  1  0.80966600  0.76649200  0.24531600  1
  N  693  1  0.19856300  0.76623200  0.74570200  1
  N  696  1  0.30962900  0.74063200  0.76210200  1
  N  704  1  0.32163300  0.76223200  0.25184000  1
  N  707  1  0.19193100  0.74324900  0.25283100  1
  N  715  1  0.82123200  0.74465800  0.75530100  1
  N  718  1  0.69163600  0.76369400  0.75428400  1
  N  726  1  0.56579200  0.49527800  0.49171800  1
  N  729  1  0.45561300  0.51181500  0.51769100  1
  N  737  1  0.06528300  0.01211900  0.51549800  1
  N  740  1  0.95498800  0.99544000  0.48971900  1
  N  748  1  0.44280600  0.00221300  0.49504700  1
  N  751  1  0.57274400  0.00288600  0.51385800  1
  N  759  1  0.94331000  0.50510000  0.51234600  1
  N  762  1  0.07335200  0.50436700  0.49367800  1
  N  770  1  0.31516600  0.17019400  0.90303400  1
  N  773  1  0.40727900  0.19651200  0.92941000  1
  N  781  1  0.81592400  0.33727500  0.10428100  1
  N  784  1  0.90719900  0.31072800  0.07774800  1
  N  792  1  0.56603000  0.35369200  0.91897700  1
  N  795  1  0.65600600  0.32676900  0.94571700  1
  N  803  1  0.06584900  0.15341900  0.08835500  1
  N  806  1  0.15600100  0.18029600  0.06165700  1
  N  814  1  0.69806000  0.83777500  0.10272900  1
  N  817  1  0.60612200  0.81175500  0.07613100  1
  N  825  1  0.19816800  0.66952800  0.90443700  1
  N  828  1  0.10598300  0.69552200  0.93103400  1
  N  836  1  0.45886100  0.65498500  0.08374200  1
  N  839  1  0.35904200  0.67987600  0.06002700  1
  N  847  1  0.95863200  0.85206800  0.92358200  1
  N  850  1  0.85878200  0.82714200  0.94733300  1
  N  858  1  0.80545400  0.67308800  0.40521200  1
  N  861  1  0.90599800  0.69673400  0.42983000  1
  N  869  1  0.30566600  0.83430900  0.60205500  1
  N  872  1  0.40582700  0.81057500  0.57732500  1
  N  880  1  0.06548000  0.85248600  0.41925300  1
  N  883  1  0.15857000  0.82621400  0.44505400  1
  N  891  1  0.56577000  0.65461300  0.58800400  1
  N  894  1  0.65868400  0.68094500  0.56220300  1
  N  902  1  0.20915200  0.33452600  0.59968400  1
  N  905  1  0.10718600  0.31146300  0.57536200  1
  N  913  1  0.70896600  0.17262600  0.40745700  1
  N  916  1  0.60694800  0.19579300  0.43174400  1
  N  924  1  0.95989800  0.15711400  0.58326500  1
  N  927  1  0.85563200  0.18067200  0.56086900  1
  N  935  1  0.46003200  0.34992600  0.42407900  1
  N  938  1  0.35539200  0.32645000  0.44643600  1
