# generated using pymatgen
data_H17C22N2O3
_symmetry_space_group_name_H-M   'P 1'
_cell_length_a   67.31960000
_cell_length_b   67.31960000
_cell_length_c   67.31960000
_cell_angle_alpha   90.00000000
_cell_angle_beta   90.00000000
_cell_angle_gamma   90.00000000
_symmetry_Int_Tables_number   1
_chemical_formula_structural   H17C22N2O3
_chemical_formula_sum   'H816 C1056 N96 O144'
_cell_volume   305087.61682143
_cell_formula_units_Z   48
loop_
 _symmetry_equiv_pos_site_id
 _symmetry_equiv_pos_as_xyz
  1  'x, y, z'
loop_
 _atom_site_type_symbol
 _atom_site_label
 _atom_site_symmetry_multiplicity
 _atom_site_fract_x
 _atom_site_fract_y
 _atom_site_fract_z
 _atom_site_occupancy
  H  7  1  0.31069400  0.32670100  0.02627200  1
  H  8  1  0.27758000  0.37514300  0.00513700  1
  H  15  1  0.37310700  0.28039100  0.99101300  1
  H  16  1  0.32493000  0.31335900  0.96907800  1
  H  19  1  0.32258900  0.34903200  0.95670600  1
  H  20  1  0.34634000  0.32509800  0.03912600  1
  H  25  1  0.34600000  0.26928100  0.96345300  1
  H  26  1  0.29738700  0.39387500  0.97361000  1
  H  27  1  0.26637000  0.34793600  0.03204300  1
  H  28  1  0.38627100  0.30931400  0.03002700  1
  H  35  1  0.68496100  0.67266600  0.02828100  1
  H  36  1  0.71778200  0.62439300  0.00634300  1
  H  43  1  0.62292800  0.71983600  0.99271500  1
  H  44  1  0.67121000  0.68668500  0.97124000  1
  H  47  1  0.67266700  0.65094500  0.95845400  1
  H  48  1  0.64932000  0.67480900  0.04095600  1
  H  53  1  0.65028600  0.73100200  0.96556700  1
  H  54  1  0.68848100  0.61115800  0.96745500  1
  H  55  1  0.72907700  0.65150800  0.03345900  1
  H  56  1  0.60441100  0.69956100  0.02453100  1
  H  63  1  0.68625200  0.32653800  0.97059200  1
  H  64  1  0.71949600  0.37460400  0.99241200  1
  H  71  1  0.62422100  0.27964100  0.00575400  1
  H  72  1  0.67243400  0.31261200  0.02758500  1
  H  75  1  0.67439800  0.34829100  0.04040800  1
  H  76  1  0.65045200  0.32498100  0.95788800  1
  H  81  1  0.65123600  0.26829800  0.03294200  1
  H  82  1  0.69568900  0.39215300  0.02641200  1
  H  83  1  0.73069300  0.34766100  0.96525200  1
  H  84  1  0.61062400  0.30886100  0.96705400  1
  H  91  1  0.31364300  0.67277100  0.96962800  1
  H  92  1  0.28073100  0.62444200  0.99129000  1
  H  99  1  0.37502400  0.72030100  0.00562000  1
  H  100  1  0.32687500  0.68677600  0.02679200  1
  H  103  1  0.32539700  0.65105800  0.03954900  1
  H  104  1  0.34926700  0.67500400  0.95723900  1
  H  109  1  0.34767700  0.73129000  0.03261200  1
  H  110  1  0.30968500  0.61127900  0.03046200  1
  H  111  1  0.26967000  0.65185600  0.96410800  1
  H  112  1  0.39391900  0.70089800  0.97417800  1
  H  119  1  0.02626500  0.31112300  0.32713200  1
  H  120  1  0.00478700  0.27851300  0.37576900  1
  H  127  1  0.99104200  0.37293300  0.27983400  1
  H  128  1  0.96908600  0.32496800  0.31309000  1
  H  131  1  0.95637800  0.32286300  0.34868000  1
  H  132  1  0.03896000  0.34680500  0.32514300  1
  H  137  1  0.96360700  0.34587800  0.26876600  1
  H  138  1  0.97228100  0.29941200  0.39373700  1
  H  139  1  0.03188500  0.26718400  0.34840400  1
  H  140  1  0.02981700  0.38650100  0.30894000  1
  H  147  1  0.02825400  0.68493500  0.67276100  1
  H  148  1  0.00612600  0.71777300  0.62458600  1
  H  155  1  0.99294700  0.62278000  0.71996200  1
  H  156  1  0.97126900  0.67107500  0.68696000  1
  H  159  1  0.95836100  0.67259100  0.65125600  1
  H  160  1  0.04100200  0.64928800  0.67485400  1
  H  165  1  0.96577600  0.64997800  0.73128000  1
  H  166  1  0.96725100  0.68840400  0.61144600  1
  H  167  1  0.03334600  0.72906800  0.65158400  1
  H  168  1  0.02491800  0.60439100  0.69910200  1
  H  175  1  0.97096500  0.68634700  0.32687800  1
  H  176  1  0.99246200  0.71929400  0.37528400  1
  H  183  1  0.00617700  0.62457400  0.27973100  1
  H  184  1  0.02804400  0.67265200  0.31287900  1
  H  187  1  0.04081200  0.67468300  0.34847800  1
  H  188  1  0.95832500  0.65058400  0.32518600  1
  H  193  1  0.03340100  0.65162900  0.26850300  1
  H  194  1  0.02481700  0.69867600  0.39346000  1
  H  195  1  0.96541800  0.73047000  0.34788700  1
  H  196  1  0.96745300  0.61092300  0.30896800  1
  H  203  1  0.96953900  0.31353600  0.67291200  1
  H  204  1  0.99103900  0.28046800  0.62461600  1
  H  211  1  0.00562800  0.37513300  0.72004600  1
  H  212  1  0.02670500  0.32688100  0.68660800  1
  H  215  1  0.03931100  0.32536300  0.65081600  1
  H  216  1  0.95711300  0.34916700  0.67499600  1
  H  221  1  0.03263500  0.34770700  0.73102900  1
  H  222  1  0.03009000  0.30948600  0.61114900  1
  H  223  1  0.96400900  0.26941500  0.65200400  1
  H  224  1  0.97414100  0.39395000  0.70078100  1
  H  231  1  0.32717100  0.02649700  0.31171100  1
  H  232  1  0.37556400  0.00439400  0.27915300  1
  H  239  1  0.27932400  0.99133000  0.37324800  1
  H  240  1  0.31274500  0.96938900  0.32539400  1
  H  243  1  0.34829800  0.95644600  0.32369600  1
  H  244  1  0.32494100  0.03914900  0.34742000  1
  H  249  1  0.26828600  0.96397000  0.34624100  1
  H  250  1  0.39141200  0.96860000  0.30482200  1
  H  251  1  0.34846900  0.03192100  0.26772000  1
  H  252  1  0.30828500  0.02978700  0.38725000  1
  H  259  1  0.67270000  0.02835700  0.68500500  1
  H  260  1  0.62452400  0.00628600  0.71788100  1
  H  267  1  0.71983200  0.99291800  0.62283900  1
  H  268  1  0.68684000  0.97134100  0.67118500  1
  H  271  1  0.65113000  0.95847200  0.67271900  1
  H  272  1  0.67480900  0.04106400  0.64934700  1
  H  277  1  0.73112400  0.96576900  0.65012200  1
  H  278  1  0.61130600  0.96743700  0.68857800  1
  H  279  1  0.65155100  0.03348700  0.72914800  1
  H  280  1  0.69908400  0.02487900  0.60443300  1
  H  287  1  0.32643400  0.97075800  0.68683200  1
  H  288  1  0.37462000  0.99206100  0.72022100  1
  H  295  1  0.28013100  0.00593400  0.62450700  1
  H  296  1  0.31300500  0.02778700  0.67277800  1
  H  299  1  0.34867100  0.04029700  0.67488000  1
  H  300  1  0.32511600  0.95794600  0.65107500  1
  H  305  1  0.26881600  0.03323300  0.65155600  1
  H  306  1  0.39345600  0.02350000  0.70057700  1
  H  307  1  0.34746800  0.96518500  0.73135100  1
  H  308  1  0.30931400  0.96698100  0.61124400  1
  H  315  1  0.67286200  0.96967000  0.31350100  1
  H  316  1  0.62459200  0.99125900  0.28045200  1
  H  323  1  0.72004700  0.00559400  0.37514600  1
  H  324  1  0.68664700  0.02680300  0.32692500  1
  H  327  1  0.65087300  0.03946800  0.32538100  1
  H  328  1  0.67495300  0.95718000  0.34912700  1
  H  333  1  0.73107900  0.03262700  0.34778000  1
  H  334  1  0.61125600  0.03037300  0.30955900  1
  H  335  1  0.65192100  0.96419400  0.26937500  1
  H  336  1  0.70051300  0.97403200  0.39391000  1
  H  343  1  0.80858600  0.82039400  0.52749200  1
  H  344  1  0.77632900  0.87110000  0.51059700  1
  H  351  1  0.87047600  0.77691500  0.48669500  1
  H  352  1  0.81986200  0.80934000  0.46985600  1
  H  355  1  0.81909200  0.84645400  0.45925700  1
  H  356  1  0.84586800  0.81924500  0.53829600  1
  H  361  1  0.84173200  0.76572600  0.46145800  1
  H  362  1  0.79623000  0.89190000  0.48119400  1
  H  363  1  0.76487000  0.84246400  0.53582100  1
  H  364  1  0.89121700  0.79799800  0.51636600  1
  H  371  1  0.18921400  0.17738400  0.52844600  1
  H  372  1  0.22113500  0.12647400  0.51151100  1
  H  379  1  0.12687400  0.22060300  0.48717600  1
  H  380  1  0.17815500  0.18909300  0.47058900  1
  H  383  1  0.17948000  0.15198100  0.45972300  1
  H  384  1  0.15189600  0.17853200  0.53887500  1
  H  389  1  0.15600400  0.23232300  0.46185600  1
  H  390  1  0.20039200  0.10623100  0.48156200  1
  H  391  1  0.23242800  0.15528600  0.53699200  1
  H  392  1  0.10629800  0.19974400  0.51642100  1
  H  399  1  0.18791700  0.82048400  0.46971300  1
  H  400  1  0.21989000  0.87138600  0.48653700  1
  H  407  1  0.12585000  0.77701300  0.51078400  1
  H  408  1  0.17655500  0.80925400  0.52767500  1
  H  411  1  0.17796700  0.84634200  0.53827200  1
  H  412  1  0.15101700  0.81897500  0.45904700  1
  H  417  1  0.15471100  0.76587900  0.53614200  1
  H  418  1  0.19926700  0.89180700  0.51628600  1
  H  419  1  0.23125800  0.84234400  0.46094300  1
  H  420  1  0.10546900  0.79669300  0.48075300  1
  H  427  1  0.81007400  0.17714400  0.47022700  1
  H  428  1  0.77670100  0.12712600  0.48696000  1
  H  435  1  0.87260900  0.21951100  0.51108700  1
  H  436  1  0.82160400  0.18780400  0.52808800  1
  H  439  1  0.81961200  0.15078800  0.53856900  1
  H  440  1  0.84690700  0.17777400  0.45945400  1
  H  445  1  0.84356200  0.23101600  0.53665200  1
  H  446  1  0.79661800  0.10599900  0.51677800  1
  H  447  1  0.76609000  0.15604100  0.46180000  1
  H  448  1  0.89270800  0.20005600  0.48108000  1
  H  455  1  0.52748100  0.80880700  0.82039500  1
  H  456  1  0.51054800  0.77661000  0.87112600  1
  H  463  1  0.48663500  0.87036000  0.77652800  1
  H  464  1  0.46980500  0.81976700  0.80899600  1
  H  467  1  0.45901800  0.81891000  0.84604300  1
  H  468  1  0.53808800  0.84610700  0.81923400  1
  H  473  1  0.46131300  0.84165300  0.76523700  1
  H  474  1  0.48091000  0.79641600  0.89167200  1
  H  475  1  0.53601900  0.76527000  0.84225800  1
  H  476  1  0.51611200  0.89127500  0.79775700  1
  H  483  1  0.52810200  0.18940400  0.17734600  1
  H  484  1  0.51112700  0.22148100  0.12655000  1
  H  491  1  0.48705300  0.12678100  0.22031500  1
  H  492  1  0.47027400  0.17807700  0.18893900  1
  H  495  1  0.45943700  0.17955200  0.15177100  1
  H  496  1  0.53869600  0.15213400  0.17840000  1
  H  501  1  0.46181300  0.15584900  0.23206500  1
  H  502  1  0.48134800  0.20052800  0.10614600  1
  H  503  1  0.53657900  0.23274900  0.15527300  1
  H  504  1  0.51641100  0.10639300  0.19939900  1
  H  511  1  0.46944800  0.18771800  0.82053900  1
  H  512  1  0.48628200  0.21944000  0.87159000  1
  H  519  1  0.51061300  0.12603900  0.77661700  1
  H  520  1  0.52744200  0.17652200  0.80923500  1
  H  523  1  0.53803900  0.17773100  0.84627300  1
  H  524  1  0.45885000  0.15081900  0.81876900  1
  H  529  1  0.53601300  0.15477200  0.76567900  1
  H  530  1  0.51615700  0.19888600  0.89184500  1
  H  531  1  0.46078500  0.23092700  0.84257000  1
  H  532  1  0.48062500  0.10548100  0.79623300  1
  H  539  1  0.47043600  0.80976400  0.17719600  1
  H  540  1  0.48695000  0.77639300  0.12709900  1
  H  547  1  0.51150200  0.87256100  0.21912000  1
  H  548  1  0.52834500  0.82132700  0.18769300  1
  H  551  1  0.53868500  0.81927500  0.15064600  1
  H  552  1  0.45970100  0.84661600  0.17772100  1
  H  557  1  0.53702800  0.84324000  0.23068500  1
  H  558  1  0.51668900  0.79614200  0.10588400  1
  H  559  1  0.46185200  0.76580800  0.15607300  1
  H  560  1  0.48137800  0.89252400  0.19958700  1
  H  567  1  0.82029900  0.52742400  0.80847300  1
  H  568  1  0.87093900  0.51048300  0.77613300  1
  H  575  1  0.77721000  0.48669600  0.87077700  1
  H  576  1  0.80936000  0.46980900  0.82000300  1
  H  579  1  0.84649700  0.45926900  0.81916800  1
  H  580  1  0.81926000  0.53834700  0.84573700  1
  H  585  1  0.76592700  0.46142900  0.84192200  1
  H  586  1  0.89183800  0.48125000  0.79605500  1
  H  587  1  0.84234000  0.53565700  0.76466000  1
  H  588  1  0.79819100  0.51647800  0.89131400  1
  H  595  1  0.17737900  0.52814900  0.18915900  1
  H  596  1  0.12649500  0.51111500  0.22106000  1
  H  603  1  0.22089200  0.48714000  0.12696700  1
  H  604  1  0.18929000  0.47032900  0.17811700  1
  H  607  1  0.15216100  0.45932700  0.17952000  1
  H  608  1  0.17849500  0.53859900  0.15186700  1
  H  613  1  0.23267500  0.46177300  0.15579600  1
  H  614  1  0.10633100  0.48113600  0.20016700  1
  H  615  1  0.15518100  0.53671300  0.23234400  1
  H  616  1  0.19986100  0.51630700  0.10634600  1
  H  623  1  0.82054700  0.46977100  0.18803000  1
  H  624  1  0.87162500  0.48653000  0.21975300  1
  H  631  1  0.77673800  0.51096500  0.12627600  1
  H  632  1  0.80914700  0.52776700  0.17690700  1
  H  635  1  0.84621400  0.53840800  0.17820100  1
  H  636  1  0.81890100  0.45923800  0.15106900  1
  H  641  1  0.76565200  0.53629500  0.15505900  1
  H  642  1  0.89186300  0.51639800  0.19924800  1
  H  643  1  0.84254500  0.46087400  0.23118400  1
  H  644  1  0.79674200  0.48102200  0.10572600  1
  H  651  1  0.17716700  0.47010800  0.81002700  1
  H  652  1  0.12714700  0.48683600  0.77665300  1
  H  659  1  0.21942300  0.51100700  0.87266800  1
  H  660  1  0.18771000  0.52799800  0.82166700  1
  H  663  1  0.15070200  0.53840800  0.81965800  1
  H  664  1  0.17787700  0.45927800  0.84682100  1
  H  669  1  0.23083500  0.53661900  0.84347800  1
  H  670  1  0.10597800  0.51661000  0.79660900  1
  H  671  1  0.15607800  0.46171500  0.76602500  1
  H  672  1  0.20014500  0.48092100  0.89268600  1
  H  679  1  0.39435300  0.27794400  0.89098100  1
  H  680  1  0.37272800  0.29683600  0.91190600  1
  H  687  1  0.38779300  0.22506500  0.88821900  1
  H  688  1  0.40699100  0.20679100  0.86449400  1
  H  689  1  0.45747300  0.24045300  0.87894400  1
  H  690  1  0.37788500  0.25361100  0.95673000  1
  H  694  1  0.43862700  0.26081400  0.92375400  1
  H  695  1  0.43546600  0.27798300  0.90420100  1
  H  696  1  0.46926000  0.25365100  0.91163600  1
  H  698  1  0.41337900  0.22143500  0.92966200  1
  H  699  1  0.40946600  0.23161700  0.95343700  1
  H  700  1  0.39193300  0.20249500  0.94829400  1
  H  709  1  0.60462500  0.72066900  0.89121600  1
  H  710  1  0.62617500  0.70258700  0.91291500  1
  H  717  1  0.60984300  0.77282400  0.88689300  1
  H  718  1  0.59038900  0.79009800  0.86263200  1
  H  719  1  0.54019500  0.75669600  0.87865600  1
  H  720  1  0.61872600  0.74618100  0.95707100  1
  H  724  1  0.55935100  0.73800300  0.92396800  1
  H  725  1  0.56277300  0.72019100  0.90504800  1
  H  726  1  0.52862300  0.74426400  0.91162300  1
  H  728  1  0.58337500  0.77727500  0.92858900  1
  H  729  1  0.58670000  0.76739600  0.95258800  1
  H  730  1  0.60379300  0.79682600  0.94772100  1
  H  739  1  0.60422600  0.27814000  0.10636000  1
  H  740  1  0.62590800  0.29651700  0.08504200  1
  H  747  1  0.61000900  0.22552400  0.11000100  1
  H  748  1  0.59062700  0.20789300  0.13406000  1
  H  749  1  0.54042900  0.24163200  0.11880200  1
  H  750  1  0.61964200  0.25296200  0.04067300  1
  H  754  1  0.55949100  0.26094300  0.07364800  1
  H  755  1  0.56282500  0.27847700  0.09284400  1
  H  756  1  0.52878800  0.25434300  0.08589700  1
  H  758  1  0.58410000  0.22147300  0.06846600  1
  H  759  1  0.58779000  0.23142100  0.04455300  1
  H  760  1  0.60505800  0.20214000  0.04968700  1
  H  769  1  0.39306100  0.72104800  0.10701300  1
  H  770  1  0.37152600  0.70294800  0.08531200  1
  H  777  1  0.38815400  0.77358100  0.11072000  1
  H  778  1  0.40757400  0.79093100  0.13495400  1
  H  779  1  0.45744600  0.75655900  0.12003100  1
  H  780  1  0.37931600  0.74630500  0.04098200  1
  H  784  1  0.43853500  0.73757800  0.07470900  1
  H  785  1  0.43475900  0.72005600  0.09383300  1
  H  786  1  0.46921100  0.74370000  0.08726000  1
  H  788  1  0.41473200  0.77735400  0.06942600  1
  H  789  1  0.41140600  0.76739300  0.04546300  1
  H  790  1  0.39445300  0.79693100  0.05016900  1
  H  799  1  0.89091500  0.39400200  0.27776300  1
  H  800  1  0.91187400  0.37226000  0.29648300  1
  H  807  1  0.88785200  0.38770600  0.22502600  1
  H  808  1  0.86410600  0.40703600  0.20692000  1
  H  809  1  0.87904800  0.45742800  0.24050300  1
  H  810  1  0.95661500  0.37767700  0.25320300  1
  H  814  1  0.92386900  0.43835500  0.26058800  1
  H  815  1  0.90441700  0.43522400  0.27787400  1
  H  816  1  0.91182500  0.46905000  0.25358300  1
  H  818  1  0.92946600  0.41332100  0.22126400  1
  H  819  1  0.95326400  0.40938600  0.23138900  1
  H  820  1  0.94808900  0.39198800  0.20219100  1
  H  829  1  0.89129100  0.60452900  0.72060100  1
  H  830  1  0.91306800  0.62612200  0.70266400  1
  H  837  1  0.88682000  0.60952900  0.77279400  1
  H  838  1  0.86245400  0.59002600  0.78986600  1
  H  839  1  0.87850200  0.53999600  0.75623100  1
  H  840  1  0.95707700  0.61848400  0.74637500  1
  H  844  1  0.92393700  0.55917600  0.73783700  1
  H  845  1  0.90508500  0.56270100  0.71997100  1
  H  846  1  0.91153100  0.52843400  0.74391500  1
  H  848  1  0.92846000  0.58306000  0.77725900  1
  H  849  1  0.95249300  0.58639500  0.76747000  1
  H  850  1  0.94754500  0.60339600  0.79694000  1
  H  859  1  0.10653500  0.60414200  0.27792600  1
  H  860  1  0.08542000  0.62590700  0.29644000  1
  H  867  1  0.10986600  0.61002000  0.22526900  1
  H  868  1  0.13380200  0.59061100  0.20749700  1
  H  869  1  0.11864400  0.54041400  0.24128000  1
  H  870  1  0.04080100  0.61992900  0.25310200  1
  H  874  1  0.07362500  0.55954400  0.26085700  1
  H  875  1  0.09292700  0.56282500  0.27828300  1
  H  876  1  0.08577900  0.52882300  0.25415900  1
  H  878  1  0.06824300  0.58425600  0.22144700  1
  H  879  1  0.04440000  0.58808000  0.23150900  1
  H  880  1  0.04949600  0.60533500  0.20221400  1
  H  889  1  0.10696700  0.39316900  0.72094400  1
  H  890  1  0.08526600  0.37171000  0.70275300  1
  H  897  1  0.11060700  0.38806100  0.77348500  1
  H  898  1  0.13484100  0.40738800  0.79093600  1
  H  899  1  0.12003900  0.45739600  0.75670600  1
  H  900  1  0.04091800  0.37936000  0.74611700  1
  H  904  1  0.07472200  0.43860900  0.73759300  1
  H  905  1  0.09386700  0.43486400  0.72008700  1
  H  906  1  0.08730600  0.46924800  0.74383200  1
  H  908  1  0.06935700  0.41466200  0.77730200  1
  H  909  1  0.04539800  0.41137300  0.76732000  1
  H  910  1  0.05009000  0.39431900  0.79680200  1
  H  919  1  0.27761000  0.89092100  0.39384200  1
  H  920  1  0.29619700  0.91204000  0.37214000  1
  H  927  1  0.22492500  0.88766800  0.38770900  1
  H  928  1  0.20694000  0.86381000  0.40701400  1
  H  929  1  0.24053800  0.87878100  0.45739000  1
  H  930  1  0.25281900  0.95664100  0.37794200  1
  H  934  1  0.26041700  0.92371600  0.43838900  1
  H  935  1  0.27777600  0.90434100  0.43517500  1
  H  936  1  0.25352200  0.91156600  0.46906800  1
  H  938  1  0.22105400  0.92921200  0.41352000  1
  H  939  1  0.23111100  0.95305800  0.40969800  1
  H  940  1  0.20188200  0.94791400  0.39234500  1
  H  949  1  0.72065000  0.89134800  0.60457000  1
  H  950  1  0.70263800  0.91307100  0.62615300  1
  H  957  1  0.77290400  0.88706100  0.60959900  1
  H  958  1  0.79006800  0.86275600  0.59010000  1
  H  959  1  0.75634000  0.87863100  0.54007900  1
  H  960  1  0.74624600  0.95719200  0.61857700  1
  H  964  1  0.73776700  0.92400100  0.55924400  1
  H  965  1  0.71998000  0.90507800  0.56278100  1
  H  966  1  0.74388800  0.91160600  0.52850600  1
  H  968  1  0.77722500  0.92867400  0.58315500  1
  H  969  1  0.76737600  0.95268000  0.58650600  1
  H  970  1  0.79684800  0.94778900  0.60352100  1
  H  979  1  0.27829300  0.10637000  0.60417000  1
  H  980  1  0.29684100  0.08515400  0.62580900  1
  H  987  1  0.22559500  0.10972000  0.61022200  1
  H  988  1  0.20777400  0.13371800  0.59093900  1
  H  989  1  0.24149100  0.11878800  0.54063000  1
  H  990  1  0.25338800  0.04064300  0.61985600  1
  H  994  1  0.26109900  0.07368800  0.55955000  1
  H  995  1  0.27853100  0.09298300  0.56284900  1
  H  996  1  0.25431500  0.08594400  0.52888700  1
  H  998  1  0.22167200  0.06824600  0.58436100  1
  H  999  1  0.23169500  0.04437100  0.58809600  1
  H  1000  1  0.20246500  0.04949000  0.60545500  1
  H  1009  1  0.72102900  0.10696200  0.39325500  1
  H  1010  1  0.70283200  0.08527800  0.37178500  1
  H  1017  1  0.77357700  0.11057400  0.38816500  1
  H  1018  1  0.79103400  0.13479100  0.40750800  1
  H  1019  1  0.75677900  0.11998700  0.45749800  1
  H  1020  1  0.74617000  0.04090500  0.37942700  1
  H  1024  1  0.73764400  0.07469000  0.43868600  1
  H  1025  1  0.72015100  0.09384700  0.43494100  1
  H  1026  1  0.74387800  0.08725900  0.46933300  1
  H  1028  1  0.77736300  0.06931300  0.41474700  1
  H  1029  1  0.76737100  0.04536100  0.41144300  1
  H  1030  1  0.79685800  0.05004800  0.39439900  1
  H  1039  1  0.27719400  0.39377800  0.10615900  1
  H  1040  1  0.29518600  0.37225100  0.08436300  1
  H  1047  1  0.22480400  0.38833400  0.11062400  1
  H  1048  1  0.20763600  0.40764900  0.13506900  1
  H  1049  1  0.24119900  0.45784700  0.11941700  1
  H  1050  1  0.25116700  0.37934800  0.04057700  1
  H  1054  1  0.25969700  0.43896000  0.07387400  1
  H  1055  1  0.27754500  0.43544100  0.09274400  1
  H  1056  1  0.25344500  0.46961900  0.08640500  1
  H  1058  1  0.22020500  0.41470400  0.06919900  1
  H  1059  1  0.22986900  0.41129600  0.04512700  1
  H  1060  1  0.20054300  0.39413000  0.05034700  1
  H  1069  1  0.71978300  0.60391400  0.10674800  1
  H  1070  1  0.70122500  0.62567000  0.08566400  1
  H  1077  1  0.77252400  0.60979800  0.10998400  1
  H  1078  1  0.79038000  0.59033600  0.13381300  1
  H  1079  1  0.75646400  0.54020200  0.11873900  1
  H  1080  1  0.74456000  0.61981500  0.04102300  1
  H  1084  1  0.73673000  0.55941300  0.07382500  1
  H  1085  1  0.71938300  0.56268100  0.09320200  1
  H  1086  1  0.74344900  0.52866900  0.08590700  1
  H  1088  1  0.77626700  0.58414200  0.06839900  1
  H  1089  1  0.76619300  0.58800100  0.04456600  1
  H  1090  1  0.79547400  0.60527400  0.04968700  1
  H  1099  1  0.27815800  0.60347200  0.89134800  1
  H  1100  1  0.29709500  0.62511500  0.91221700  1
  H  1107  1  0.22557600  0.61018500  0.88826100  1
  H  1108  1  0.20722000  0.59087100  0.86469300  1
  H  1109  1  0.24021200  0.54020500  0.88004500  1
  H  1110  1  0.25385900  0.62014500  0.95706100  1
  H  1114  1  0.26059600  0.55939300  0.92465200  1
  H  1115  1  0.27789800  0.56224200  0.90517000  1
  H  1116  1  0.25331100  0.52868500  0.91281000  1
  H  1118  1  0.22157100  0.58470900  0.93005700  1
  H  1119  1  0.23177600  0.58861300  0.95382600  1
  H  1120  1  0.20271400  0.60623900  0.94866800  1
  H  1129  1  0.72071700  0.39362800  0.89122300  1
  H  1130  1  0.70241600  0.37214800  0.91281100  1
  H  1137  1  0.77329200  0.38809800  0.88762200  1
  H  1138  1  0.79083000  0.40731800  0.86336600  1
  H  1139  1  0.75688200  0.45751900  0.87816300  1
  H  1140  1  0.74589100  0.37922100  0.95714300  1
  H  1144  1  0.73768500  0.43883500  0.92350600  1
  H  1145  1  0.72015700  0.43522400  0.90435700  1
  H  1146  1  0.74413700  0.46944100  0.91094400  1
  H  1148  1  0.77724700  0.41453000  0.92890100  1
  H  1149  1  0.76729800  0.41111500  0.95285400  1
  H  1150  1  0.79666500  0.39391900  0.94796900  1
  H  1159  1  0.39314500  0.89097600  0.72090400  1
  H  1160  1  0.37156000  0.91265100  0.70283700  1
  H  1167  1  0.38799800  0.88705800  0.77338100  1
  H  1168  1  0.40733000  0.86264900  0.79058500  1
  H  1169  1  0.45732700  0.87778700  0.75648500  1
  H  1170  1  0.37903100  0.95684000  0.74639100  1
  H  1174  1  0.43851200  0.92328900  0.73779400  1
  H  1175  1  0.43479900  0.90428500  0.72013000  1
  H  1176  1  0.46916300  0.91068500  0.74395100  1
  H  1178  1  0.41450900  0.92842900  0.77740800  1
  H  1179  1  0.41110000  0.95241800  0.76753800  1
  H  1180  1  0.39410200  0.94751700  0.79701900  1
  H  1189  1  0.60369600  0.89141800  0.27808800  1
  H  1190  1  0.62536400  0.91232700  0.29695200  1
  H  1197  1  0.61038800  0.88844500  0.22544200  1
  H  1198  1  0.59118400  0.86480400  0.20707000  1
  H  1199  1  0.54049500  0.87975400  0.24021200  1
  H  1200  1  0.62021300  0.95713800  0.25370500  1
  H  1204  1  0.55945900  0.92444700  0.26064200  1
  H  1205  1  0.56243600  0.90494400  0.27789800  1
  H  1206  1  0.52880900  0.91245400  0.25336600  1
  H  1208  1  0.58470200  0.93007900  0.22154900  1
  H  1209  1  0.58863800  0.95386100  0.23170800  1
  H  1210  1  0.60617200  0.94866500  0.20259500  1
  H  1219  1  0.60378100  0.10665600  0.71983200  1
  H  1220  1  0.62559900  0.08562700  0.70128300  1
  H  1227  1  0.60961100  0.10990800  0.77257600  1
  H  1228  1  0.59006100  0.13366300  0.79043400  1
  H  1229  1  0.53998800  0.11842900  0.75650100  1
  H  1230  1  0.61982500  0.04096500  0.74460600  1
  H  1234  1  0.55935400  0.07359800  0.73674600  1
  H  1235  1  0.56258000  0.09298800  0.71940800  1
  H  1236  1  0.52856800  0.08558800  0.74344000  1
  H  1238  1  0.58406900  0.06824900  0.77629800  1
  H  1239  1  0.58798700  0.04442800  0.76621900  1
  H  1240  1  0.60523500  0.04958000  0.79551100  1
  H  1249  1  0.39424300  0.10622000  0.27755200  1
  H  1250  1  0.37308400  0.08439800  0.29594800  1
  H  1257  1  0.38832800  0.11039000  0.22512200  1
  H  1258  1  0.40748700  0.13471000  0.20759900  1
  H  1259  1  0.45796400  0.11936900  0.24087900  1
  H  1260  1  0.37985200  0.04041300  0.25208000  1
  H  1264  1  0.43927600  0.07394900  0.25986300  1
  H  1265  1  0.43590000  0.09294400  0.27760700  1
  H  1266  1  0.46986900  0.08645600  0.25325000  1
  H  1268  1  0.41461900  0.06906600  0.22048500  1
  H  1269  1  0.41148800  0.04503200  0.23033700  1
  H  1270  1  0.39390100  0.04997200  0.20121200  1
  H  1279  1  0.89137100  0.27808800  0.60353300  1
  H  1280  1  0.91218300  0.29694300  0.62530200  1
  H  1287  1  0.88835000  0.22546600  0.61013300  1
  H  1288  1  0.86475200  0.20717100  0.59079800  1
  H  1289  1  0.88000600  0.24034600  0.54022000  1
  H  1290  1  0.95704300  0.25372800  0.62028300  1
  H  1294  1  0.92464400  0.26067900  0.55941000  1
  H  1295  1  0.90515300  0.27795800  0.56233200  1
  H  1296  1  0.91277100  0.25347100  0.52869600  1
  H  1298  1  0.93013900  0.22158800  0.58463900  1
  H  1299  1  0.95389900  0.23176300  0.58866600  1
  H  1300  1  0.94866500  0.20263200  0.60615800  1
  H  1309  1  0.89097000  0.72081500  0.39355800  1
  H  1310  1  0.91264800  0.70244100  0.37223800  1
  H  1317  1  0.88733700  0.77340400  0.38814800  1
  H  1318  1  0.86305900  0.79085800  0.40742300  1
  H  1319  1  0.87789100  0.75677000  0.45751700  1
  H  1320  1  0.95699900  0.74587200  0.37945400  1
  H  1324  1  0.92326400  0.73768800  0.43878300  1
  H  1325  1  0.90412900  0.72015200  0.43513200  1
  H  1326  1  0.91070000  0.74405300  0.46940700  1
  H  1328  1  0.92860100  0.77735300  0.41453000  1
  H  1329  1  0.95255100  0.76733000  0.41130300  1
  H  1330  1  0.94786800  0.79668000  0.39402200  1
  H  1339  1  0.10632600  0.27734100  0.39411700  1
  H  1340  1  0.08446500  0.29560200  0.37288500  1
  H  1347  1  0.11073500  0.22495100  0.38837100  1
  H  1348  1  0.13513000  0.20763000  0.40761800  1
  H  1349  1  0.11950900  0.24096700  0.45797300  1
  H  1350  1  0.04061500  0.25161200  0.37974700  1
  H  1354  1  0.07400800  0.25963200  0.43916000  1
  H  1355  1  0.09290700  0.27747000  0.43576000  1
  H  1356  1  0.08650300  0.25317900  0.46979200  1
  H  1358  1  0.06934500  0.22021100  0.41462300  1
  H  1359  1  0.04528400  0.22999200  0.41146800  1
  H  1360  1  0.05029400  0.20082600  0.39397300  1
  H  1369  1  0.10650400  0.71972900  0.60380900  1
  H  1370  1  0.08545900  0.70116700  0.62560200  1
  H  1377  1  0.10981000  0.77239600  0.60981600  1
  H  1378  1  0.13357900  0.79033100  0.59035800  1
  H  1379  1  0.11831200  0.75667100  0.54011100  1
  H  1380  1  0.04083300  0.74453800  0.61988800  1
  H  1384  1  0.07347300  0.73684700  0.55937200  1
  H  1385  1  0.09284400  0.71947700  0.56253900  1
  H  1386  1  0.08548600  0.74365400  0.52862100  1
  H  1388  1  0.06814600  0.77625900  0.58418200  1
  H  1389  1  0.04431200  0.76621000  0.58809600  1
  H  1390  1  0.04952100  0.79546200  0.60539500  1
  H  1399  1  0.58846600  0.71622000  0.09404700  1
  H  1400  1  0.60956100  0.69808900  0.07169800  1
  H  1407  1  0.59721200  0.76584600  0.11115400  1
  H  1408  1  0.57308800  0.78336400  0.13073400  1
  H  1409  1  0.52721200  0.76115500  0.09476600  1
  H  1410  1  0.61898400  0.74991100  0.03808800  1
  H  1414  1  0.55710500  0.74366600  0.05534000  1
  H  1415  1  0.55276700  0.72390300  0.07200600  1
  H  1416  1  0.52488600  0.75279500  0.05891300  1
  H  1418  1  0.58602100  0.78246600  0.06778900  1
  H  1419  1  0.59089700  0.77631100  0.04282300  1
  H  1420  1  0.61254000  0.79989900  0.05530300  1
  H  1429  1  0.41152900  0.28065200  0.08865100  1
  H  1430  1  0.39165100  0.29808100  0.06489300  1
  H  1437  1  0.40158700  0.23175700  0.10757400  1
  H  1438  1  0.42496200  0.21513500  0.12880600  1
  H  1439  1  0.47214900  0.23577400  0.09361700  1
  H  1440  1  0.38239100  0.24498900  0.03320000  1
  H  1444  1  0.44375500  0.25147600  0.05236000  1
  H  1445  1  0.44758000  0.27193900  0.06829400  1
  H  1446  1  0.47578500  0.24242400  0.05750200  1
  H  1448  1  0.41349600  0.21324800  0.06563400  1
  H  1449  1  0.40943900  0.21813500  0.04024700  1
  H  1450  1  0.38685700  0.19581500  0.05340900  1
  H  1459  1  0.40913800  0.71647200  0.90359800  1
  H  1460  1  0.38819700  0.69819800  0.92598800  1
  H  1467  1  0.40031300  0.76617500  0.88687500  1
  H  1468  1  0.42429500  0.78379700  0.86721200  1
  H  1469  1  0.47042400  0.76141200  0.90273800  1
  H  1470  1  0.37912600  0.74977500  0.96005900  1
  H  1474  1  0.44081900  0.74369500  0.94228400  1
  H  1475  1  0.44503800  0.72403400  0.92546900  1
  H  1476  1  0.47300900  0.75285500  0.93853000  1
  H  1478  1  0.41181600  0.78254100  0.93028600  1
  H  1479  1  0.40715900  0.77622400  0.95525300  1
  H  1480  1  0.38539600  0.79988000  0.94311000  1
  H  1489  1  0.58516800  0.28009100  0.90845600  1
  H  1490  1  0.60504900  0.29764100  0.93213700  1
  H  1497  1  0.59552500  0.23095900  0.88972600  1
  H  1498  1  0.57229500  0.21377700  0.86878400  1
  H  1499  1  0.52493300  0.23451900  0.90367700  1
  H  1500  1  0.61482400  0.24457800  0.96373100  1
  H  1504  1  0.55319400  0.25111800  0.94465500  1
  H  1505  1  0.54918700  0.27132100  0.92843600  1
  H  1506  1  0.52124000  0.24172300  0.93965900  1
  H  1508  1  0.58367400  0.21267300  0.93153500  1
  H  1509  1  0.58792700  0.21759300  0.95687800  1
  H  1510  1  0.61051400  0.19538900  0.94352900  1
  H  1519  1  0.09388300  0.58802900  0.71636300  1
  H  1520  1  0.07150300  0.60913400  0.69828400  1
  H  1527  1  0.11125000  0.59694500  0.76593000  1
  H  1528  1  0.13086300  0.57285200  0.78345100  1
  H  1529  1  0.09476200  0.52695200  0.76151300  1
  H  1530  1  0.03824000  0.61888300  0.75026900  1
  H  1534  1  0.05531500  0.55684200  0.74405900  1
  H  1535  1  0.07190900  0.55242300  0.72425500  1
  H  1536  1  0.05887800  0.52464600  0.75327400  1
  H  1538  1  0.06797700  0.58590000  0.78275800  1
  H  1539  1  0.04300000  0.59085900  0.77672100  1
  H  1540  1  0.05569000  0.61252600  0.80017400  1
  H  1549  1  0.08864500  0.41159000  0.28053000  1
  H  1550  1  0.06482100  0.39171500  0.29787700  1
  H  1557  1  0.10762500  0.40160500  0.23163800  1
  H  1558  1  0.12892600  0.42491600  0.21501200  1
  H  1559  1  0.09387200  0.47221000  0.23563400  1
  H  1560  1  0.03324300  0.38256000  0.24469800  1
  H  1564  1  0.05253200  0.44394300  0.25133700  1
  H  1565  1  0.06846600  0.44771300  0.27180800  1
  H  1566  1  0.05777700  0.47596100  0.24229500  1
  H  1568  1  0.06576800  0.41369100  0.21307800  1
  H  1569  1  0.04036900  0.40963400  0.21790100  1
  H  1570  1  0.05357600  0.38707900  0.19557900  1
  H  1579  1  0.90353300  0.40912900  0.71644300  1
  H  1580  1  0.92587000  0.38816500  0.69813100  1
  H  1587  1  0.88703700  0.40039100  0.76627300  1
  H  1588  1  0.86744100  0.42439500  0.78393800  1
  H  1589  1  0.90278100  0.47051100  0.76123300  1
  H  1590  1  0.96013400  0.37922400  0.74960300  1
  H  1594  1  0.94227300  0.44090400  0.74339400  1
  H  1595  1  0.92535300  0.44506000  0.72381000  1
  H  1596  1  0.93853300  0.47311200  0.75250000  1
  H  1598  1  0.93047000  0.41197200  0.78240800  1
  H  1599  1  0.95541400  0.40729900  0.77601000  1
  H  1600  1  0.94335200  0.38558900  0.79975800  1
  H  1609  1  0.90881700  0.58552600  0.28025300  1
  H  1610  1  0.93254700  0.60539100  0.29775000  1
  H  1617  1  0.89010600  0.59584000  0.23112300  1
  H  1618  1  0.86904400  0.57265300  0.21403100  1
  H  1619  1  0.90377100  0.52520300  0.23484200  1
  H  1620  1  0.96417900  0.61492900  0.24466900  1
  H  1624  1  0.94489200  0.55333900  0.25130400  1
  H  1625  1  0.92868900  0.54944400  0.27153900  1
  H  1626  1  0.93975300  0.52138300  0.24199000  1
  H  1628  1  0.93189500  0.58378100  0.21284600  1
  H  1629  1  0.95725000  0.58799000  0.21774300  1
  H  1630  1  0.94394000  0.61055100  0.19548800  1
  H  1639  1  0.71631100  0.09393400  0.58813600  1
  H  1640  1  0.69820900  0.07156100  0.60922900  1
  H  1647  1  0.76588700  0.11122600  0.59706500  1
  H  1648  1  0.78343000  0.13085200  0.57299800  1
  H  1649  1  0.76146700  0.09482400  0.52705100  1
  H  1650  1  0.75014500  0.03820600  0.61891600  1
  H  1654  1  0.74397200  0.05535800  0.55689300  1
  H  1655  1  0.72418300  0.07197500  0.55249300  1
  H  1656  1  0.75319200  0.05895200  0.52470100  1
  H  1658  1  0.78266800  0.06793100  0.58594900  1
  H  1659  1  0.77659700  0.04295800  0.59088600  1
  H  1660  1  0.80007600  0.05559200  0.61255700  1
  H  1669  1  0.28036400  0.08911700  0.41149200  1
  H  1670  1  0.29766700  0.06525500  0.39161400  1
  H  1677  1  0.23144100  0.10827600  0.40174900  1
  H  1678  1  0.21484700  0.12934300  0.42529200  1
  H  1679  1  0.23560000  0.09386400  0.47221600  1
  H  1680  1  0.24438600  0.03389100  0.38229400  1
  H  1684  1  0.25125400  0.05279400  0.44353200  1
  H  1685  1  0.27172500  0.06869900  0.44742500  1
  H  1686  1  0.24225600  0.05772900  0.47560900  1
  H  1688  1  0.21281800  0.06647300  0.41340800  1
  H  1689  1  0.21758900  0.04106200  0.40936100  1
  H  1690  1  0.19532300  0.05431500  0.38677900  1
  H  1699  1  0.71646700  0.90370100  0.40926200  1
  H  1700  1  0.69817700  0.92604300  0.38828500  1
  H  1707  1  0.76625300  0.88706400  0.40045800  1
  H  1708  1  0.78390100  0.86745400  0.42446300  1
  H  1709  1  0.76134800  0.90291300  0.47056300  1
  H  1710  1  0.74972800  0.96014300  0.37916900  1
  H  1714  1  0.74355900  0.94240700  0.44092600  1
  H  1715  1  0.72394200  0.92553700  0.44513300  1
  H  1716  1  0.75270000  0.93868900  0.47312600  1
  H  1718  1  0.78250400  0.93047300  0.41193900  1
  H  1719  1  0.77616100  0.95542100  0.40721900  1
  H  1720  1  0.79984700  0.94325400  0.38550100  1
  H  1729  1  0.28028700  0.90865500  0.58543000  1
  H  1730  1  0.29785500  0.93230300  0.60532700  1
  H  1737  1  0.23115400  0.89006000  0.59575200  1
  H  1738  1  0.21403400  0.86901200  0.57257400  1
  H  1739  1  0.23484400  0.90373000  0.52511600  1
  H  1740  1  0.24487400  0.96410100  0.61487900  1
  H  1744  1  0.25135900  0.94483400  0.55325000  1
  H  1745  1  0.27157600  0.92861000  0.54934600  1
  H  1746  1  0.24202600  0.93970800  0.52129700  1
  H  1748  1  0.21295600  0.93194200  0.58369500  1
  H  1749  1  0.21793000  0.95727900  0.58792400  1
  H  1750  1  0.19563200  0.94402200  0.61047300  1
  H  1759  1  0.71722500  0.58545800  0.90893500  1
  H  1760  1  0.69980300  0.60533000  0.93271000  1
  H  1767  1  0.76623000  0.59574300  0.89017900  1
  H  1768  1  0.78312800  0.57263500  0.86887400  1
  H  1769  1  0.76246700  0.52504100  0.90349700  1
  H  1770  1  0.75291300  0.61456100  0.96438900  1
  H  1774  1  0.74632500  0.55299300  0.94487300  1
  H  1775  1  0.72597700  0.54923700  0.92877800  1
  H  1776  1  0.75552800  0.52104300  0.93950200  1
  H  1778  1  0.78462300  0.58340600  0.93199400  1
  H  1779  1  0.77975000  0.58753100  0.95736900  1
  H  1780  1  0.80207100  0.61007300  0.94413500  1
  H  1789  1  0.28085300  0.40967800  0.90356100  1
  H  1790  1  0.29922200  0.38863100  0.92578000  1
  H  1797  1  0.23090400  0.40074200  0.88715100  1
  H  1798  1  0.21292200  0.42469000  0.86777200  1
  H  1799  1  0.23563100  0.47085100  0.90305200  1
  H  1800  1  0.24776700  0.37933400  0.95997600  1
  H  1804  1  0.25398800  0.44126200  0.94229700  1
  H  1805  1  0.27342700  0.44554500  0.92524300  1
  H  1806  1  0.24471000  0.47343400  0.93869300  1
  H  1808  1  0.21490500  0.41226000  0.93058100  1
  H  1809  1  0.22131400  0.40736300  0.95547600  1
  H  1810  1  0.19759300  0.38573300  0.94322100  1
  H  1819  1  0.71655500  0.40996800  0.09214800  1
  H  1820  1  0.69890900  0.38915700  0.06918900  1
  H  1827  1  0.76600200  0.40072700  0.11067300  1
  H  1828  1  0.78326000  0.42481700  0.13052500  1
  H  1829  1  0.76179700  0.47072600  0.09414900  1
  H  1830  1  0.75177000  0.37874500  0.03752800  1
  H  1834  1  0.74490200  0.44083100  0.05445300  1
  H  1835  1  0.72487500  0.44532300  0.07075900  1
  H  1836  1  0.75414700  0.47300900  0.05812000  1
  H  1838  1  0.78370000  0.41140600  0.06815400  1
  H  1839  1  0.77831100  0.40646700  0.04302900  1
  H  1840  1  0.80119700  0.38459800  0.05638200  1
  H  1849  1  0.28039400  0.58562600  0.08873000  1
  H  1850  1  0.29806200  0.60540700  0.06506400  1
  H  1857  1  0.23132300  0.59612900  0.10717900  1
  H  1858  1  0.21432500  0.57308500  0.12846800  1
  H  1859  1  0.23504700  0.52540200  0.09400900  1
  H  1860  1  0.24519900  0.61488600  0.03304700  1
  H  1864  1  0.25137400  0.55327400  0.05262900  1
  H  1865  1  0.27163500  0.54947400  0.06882200  1
  H  1866  1  0.24205000  0.52135500  0.05799700  1
  H  1868  1  0.21313700  0.58389200  0.06525800  1
  H  1869  1  0.21818200  0.58799300  0.03991200  1
  H  1870  1  0.19589200  0.61064500  0.05301200  1
  H  1879  1  0.58540600  0.08857800  0.28021400  1
  H  1880  1  0.60521300  0.06491700  0.29786600  1
  H  1887  1  0.59599100  0.10687200  0.23109800  1
  H  1888  1  0.57307800  0.12827700  0.21406400  1
  H  1889  1  0.52518100  0.09416000  0.23486300  1
  H  1890  1  0.61449200  0.03278200  0.24503400  1
  H  1894  1  0.55279100  0.05264100  0.25126800  1
  H  1895  1  0.54911800  0.06889200  0.27150600  1
  H  1896  1  0.52090000  0.05820100  0.24196400  1
  H  1898  1  0.58343900  0.06494400  0.21302000  1
  H  1899  1  0.58753400  0.03960100  0.21807500  1
  H  1900  1  0.61013400  0.05269700  0.19571000  1
  H  1909  1  0.40884800  0.09390100  0.71620900  1
  H  1910  1  0.38783000  0.07152000  0.69801200  1
  H  1917  1  0.40020700  0.11076100  0.76589100  1
  H  1918  1  0.42431500  0.13032600  0.78345500  1
  H  1919  1  0.47023600  0.09454300  0.76104700  1
  H  1920  1  0.37875600  0.03757500  0.74967300  1
  H  1924  1  0.44041700  0.05512400  0.74342900  1
  H  1925  1  0.44467100  0.07188300  0.72372900  1
  H  1926  1  0.47264200  0.05874200  0.75251300  1
  H  1928  1  0.41158100  0.06733200  0.78232300  1
  H  1929  1  0.40685300  0.04236500  0.77605700  1
  H  1930  1  0.38517100  0.05459900  0.79974000  1
  H  1939  1  0.41105400  0.90547600  0.28052300  1
  H  1940  1  0.39061300  0.92861300  0.29831900  1
  H  1947  1  0.40135200  0.88696700  0.23084600  1
  H  1948  1  0.42533100  0.86736400  0.21315000  1
  H  1949  1  0.47136900  0.90351100  0.23472800  1
  H  1950  1  0.37956200  0.96000500  0.24541300  1
  H  1954  1  0.44157500  0.94296400  0.25232800  1
  H  1955  1  0.44625600  0.92643400  0.27212700  1
  H  1956  1  0.47367800  0.93944200  0.24277200  1
  H  1958  1  0.41170900  0.92915700  0.21323600  1
  H  1959  1  0.40682500  0.95430100  0.21855900  1
  H  1960  1  0.38467100  0.94081900  0.19602600  1
  H  1969  1  0.58552600  0.90894100  0.71718600  1
  H  1970  1  0.60545800  0.93269200  0.69980300  1
  H  1977  1  0.59570700  0.88993800  0.76607400  1
  H  1978  1  0.57246200  0.86869300  0.78285300  1
  H  1979  1  0.52509600  0.90374200  0.76239000  1
  H  1980  1  0.61489600  0.96417600  0.75299100  1
  H  1984  1  0.55332400  0.94502600  0.74647200  1
  H  1985  1  0.54944900  0.92905700  0.72604700  1
  H  1986  1  0.52134400  0.93982400  0.75566700  1
  H  1988  1  0.58369600  0.93177700  0.78466000  1
  H  1989  1  0.58787600  0.95715600  0.77985100  1
  H  1990  1  0.61042200  0.94380600  0.80209700  1
  H  1999  1  0.09358500  0.71636300  0.40950200  1
  H  2000  1  0.07116700  0.69814000  0.38856400  1
  H  2007  1  0.11083400  0.76600500  0.40044300  1
  H  2008  1  0.13039100  0.78361400  0.42452400  1
  H  2009  1  0.09436100  0.76159700  0.47044100  1
  H  2010  1  0.03780800  0.75002800  0.37862500  1
  H  2014  1  0.05497000  0.74397600  0.44056500  1
  H  2015  1  0.07163700  0.72424300  0.44502900  1
  H  2016  1  0.05849100  0.75326600  0.47274600  1
  H  2018  1  0.06758800  0.78273500  0.41135300  1
  H  2019  1  0.04260700  0.77662300  0.40650300  1
  H  2020  1  0.05518200  0.79999500  0.38468100  1
  H  2029  1  0.08850600  0.28030000  0.58566900  1
  H  2030  1  0.06479800  0.29791600  0.60545000  1
  H  2037  1  0.10681500  0.23116300  0.59616500  1
  H  2038  1  0.12820600  0.21416500  0.57321300  1
  H  2039  1  0.09408300  0.23507400  0.52536500  1
  H  2040  1  0.03269200  0.24505800  0.61462900  1
  H  2044  1  0.05257100  0.25142000  0.55302300  1
  H  2045  1  0.06881900  0.27166500  0.54937200  1
  H  2046  1  0.05811800  0.24216700  0.52111400  1
  H  2048  1  0.06493500  0.21308200  0.58357600  1
  H  2049  1  0.03959000  0.21813000  0.58766800  1
  H  2050  1  0.05264300  0.19573900  0.61024500  1
  H  2059  1  0.90886600  0.71709800  0.58545900  1
  H  2060  1  0.93259100  0.69970100  0.60540900  1
  H  2067  1  0.88992200  0.76600100  0.59574300  1
  H  2068  1  0.86866000  0.78286400  0.57257100  1
  H  2069  1  0.90359100  0.76244500  0.52509900  1
  H  2070  1  0.96409300  0.75287100  0.61488500  1
  H  2074  1  0.94489800  0.74640300  0.55321800  1
  H  2075  1  0.92889700  0.72600500  0.54933900  1
  H  2076  1  0.93964600  0.75565800  0.52126100  1
  H  2078  1  0.93175500  0.78456200  0.58364700  1
  H  2079  1  0.95712300  0.77974000  0.58787500  1
  H  2080  1  0.94374100  0.80198700  0.61040000  1
  H  2089  1  0.90398600  0.28096700  0.41024900  1
  H  2090  1  0.92630500  0.29929000  0.38928500  1
  H  2097  1  0.88695100  0.23110800  0.40091900  1
  H  2098  1  0.86760400  0.21313200  0.42489400  1
  H  2099  1  0.90334300  0.23533800  0.47094400  1
  H  2100  1  0.95965000  0.24746100  0.37899800  1
  H  2104  1  0.94252700  0.25357800  0.44118300  1
  H  2105  1  0.92564100  0.27310300  0.44573800  1
  H  2106  1  0.93909600  0.24409100  0.47331500  1
  H  2108  1  0.93012800  0.21463600  0.41181900  1
  H  2109  1  0.95505600  0.22079100  0.40678200  1
  H  2110  1  0.94233900  0.19745400  0.38500800  1
  C  1  1  0.32120900  0.33853100  0.99902700  1
  C  2  1  0.30866000  0.33766200  0.01589500  1
  C  3  1  0.29294600  0.35124500  0.01844900  1
  C  4  1  0.28940700  0.36562700  0.00365500  1
  C  5  1  0.30153200  0.36658800  0.98658300  1
  C  6  1  0.31745000  0.35304400  0.98420300  1
  C  9  1  0.33620700  0.32381000  0.99657400  1
  C  10  1  0.35054300  0.32014300  0.01159400  1
  C  11  1  0.36404800  0.30412200  0.00961200  1
  C  12  1  0.36341400  0.29207400  0.99244000  1
  C  13  1  0.34941800  0.29570100  0.97729700  1
  C  14  1  0.33572200  0.31134900  0.97963400  1
  C  21  1  0.34850200  0.28359000  0.96083600  1
  C  22  1  0.29602700  0.37928200  0.97161400  1
  C  23  1  0.28073500  0.34989300  0.03480400  1
  C  24  1  0.37676500  0.29925300  0.02487800  1
  C  29  1  0.67429700  0.66121700  0.00093700  1
  C  30  1  0.68690700  0.66183100  0.01775600  1
  C  31  1  0.70260600  0.64818700  0.02001400  1
  C  32  1  0.70609100  0.63408000  0.00494400  1
  C  33  1  0.69390800  0.63334100  0.98786900  1
  C  34  1  0.67785600  0.64682200  0.98595200  1
  C  37  1  0.65954300  0.67618000  0.99856200  1
  C  38  1  0.64513300  0.67993500  0.01348200  1
  C  39  1  0.63158700  0.69586400  0.01119600  1
  C  40  1  0.63246000  0.70801300  0.99413600  1
  C  41  1  0.64675600  0.70447200  0.97926700  1
  C  42  1  0.66032000  0.68872600  0.98169300  1
  C  49  1  0.64794000  0.71664700  0.96290800  1
  C  50  1  0.69864900  0.62053400  0.97263000  1
  C  51  1  0.71479600  0.64916100  0.03642900  1
  C  52  1  0.61899500  0.70133600  0.02625000  1
  C  57  1  0.67570000  0.33812400  0.99792600  1
  C  58  1  0.68827600  0.33740100  0.98107500  1
  C  59  1  0.70405600  0.35094700  0.97873400  1
  C  60  1  0.70762100  0.36512400  0.99371900  1
  C  61  1  0.69541100  0.36595000  0.01073900  1
  C  62  1  0.67941400  0.35248100  0.01290000  1
  C  65  1  0.66082400  0.32329900  0.00031600  1
  C  66  1  0.64638900  0.31972400  0.98537800  1
  C  67  1  0.63298200  0.30362200  0.98732400  1
  C  68  1  0.63384000  0.29138600  0.00435900  1
  C  69  1  0.64798300  0.29489800  0.01938900  1
  C  70  1  0.66155700  0.31065200  0.01710400  1
  C  77  1  0.64911800  0.28263800  0.03572200  1
  C  78  1  0.70082100  0.37830000  0.02599400  1
  C  79  1  0.71634500  0.34968100  0.96243500  1
  C  80  1  0.62019800  0.29881300  0.97210000  1
  C  85  1  0.32412200  0.66132900  0.99704600  1
  C  86  1  0.31164600  0.66192100  0.98012900  1
  C  87  1  0.29599700  0.64824300  0.97773400  1
  C  88  1  0.29240500  0.63413400  0.99277900  1
  C  89  1  0.30444300  0.63342400  0.00995800  1
  C  90  1  0.32045900  0.64692900  0.01200400  1
  C  93  1  0.33880000  0.67635100  0.99955300  1
  C  94  1  0.35327900  0.68021800  0.98472600  1
  C  95  1  0.36668400  0.69625800  0.98708700  1
  C  96  1  0.36561000  0.70839100  0.00414500  1
  C  97  1  0.35126300  0.70472900  0.01894000  1
  C  98  1  0.33782900  0.68888700  0.01642000  1
  C  105  1  0.34983700  0.71691900  0.03527400  1
  C  106  1  0.29956300  0.62064200  0.02517500  1
  C  107  1  0.28392300  0.64923000  0.96124000  1
  C  108  1  0.37930400  0.70187800  0.97210100  1
  C  113  1  0.99884700  0.32165100  0.33854900  1
  C  114  1  0.01578400  0.30917700  0.33800800  1
  C  115  1  0.01826500  0.29364400  0.35181000  1
  C  116  1  0.00335300  0.29021700  0.36609200  1
  C  117  1  0.98621000  0.30226400  0.36671300  1
  C  118  1  0.98389100  0.31800100  0.35295400  1
  C  121  1  0.99646600  0.33645500  0.32362200  1
  C  122  1  0.01144800  0.35082200  0.31992700  1
  C  123  1  0.00952200  0.36416400  0.30376600  1
  C  124  1  0.99243900  0.36334100  0.29160300  1
  C  125  1  0.97733500  0.34931100  0.29525100  1
  C  126  1  0.97962100  0.33577300  0.31104300  1
  C  133  1  0.96092200  0.34826100  0.28308400  1
  C  134  1  0.97108500  0.29682400  0.37922700  1
  C  135  1  0.03468600  0.28150000  0.35081600  1
  C  136  1  0.02475700  0.37692100  0.29890400  1
  C  141  1  0.00087800  0.67425900  0.66140100  1
  C  142  1  0.01768500  0.68688600  0.66196900  1
  C  143  1  0.01988300  0.70259900  0.64833100  1
  C  144  1  0.00476200  0.70608200  0.63427700  1
  C  145  1  0.98769600  0.69388400  0.63358600  1
  C  146  1  0.98583900  0.67781900  0.64705900  1
  C  149  1  0.99857800  0.65947600  0.67634800  1
  C  150  1  0.01353900  0.64508700  0.68002900  1
  C  151  1  0.01133200  0.63151400  0.69594400  1
  C  152  1  0.99431300  0.63233900  0.70815400  1
  C  153  1  0.97940500  0.64661200  0.70468600  1
  C  154  1  0.98174900  0.66020300  0.68895100  1
  C  161  1  0.96308000  0.64774100  0.71691400  1
  C  162  1  0.97243100  0.69859400  0.62079500  1
  C  163  1  0.03630400  0.71478400  0.64924300  1
  C  164  1  0.02642800  0.61893400  0.70132400  1
  C  169  1  0.99836100  0.67587400  0.33839800  1
  C  170  1  0.98143900  0.68835800  0.33775300  1
  C  171  1  0.97898200  0.70400300  0.35142800  1
  C  172  1  0.99388400  0.70751400  0.36570000  1
  C  173  1  0.01100800  0.69544500  0.36642400  1
  C  174  1  0.01331600  0.67960900  0.35277800  1
  C  177  1  0.00076800  0.66102900  0.32352800  1
  C  178  1  0.98582700  0.64660500  0.31989800  1
  C  179  1  0.98775000  0.63325800  0.30373900  1
  C  180  1  0.00478500  0.63415500  0.29150800  1
  C  181  1  0.01983000  0.64826900  0.29507900  1
  C  182  1  0.01755700  0.66178900  0.31088400  1
  C  189  1  0.03617300  0.64941700  0.28283000  1
  C  190  1  0.02612900  0.70095900  0.37890900  1
  C  191  1  0.96258400  0.71616300  0.35031700  1
  C  192  1  0.97253200  0.62046800  0.29890800  1
  C  197  1  0.99687000  0.32403200  0.66128300  1
  C  198  1  0.97998300  0.31152000  0.66201200  1
  C  199  1  0.97755600  0.29580700  0.64841300  1
  C  200  1  0.99254300  0.29219000  0.63424700  1
  C  201  1  0.00968400  0.30427200  0.63339200  1
  C  202  1  0.01176200  0.32034800  0.64682000  1
  C  205  1  0.99942800  0.33876400  0.67623800  1
  C  206  1  0.98460700  0.35324900  0.68010500  1
  C  207  1  0.98702000  0.36671200  0.69608800  1
  C  208  1  0.00412100  0.36568400  0.70816800  1
  C  209  1  0.01890700  0.35133000  0.70450500  1
  C  210  1  0.01633900  0.33784100  0.68871600  1
  C  217  1  0.03526700  0.34992900  0.71666000  1
  C  218  1  0.02485100  0.29937900  0.62055600  1
  C  219  1  0.96110400  0.28368000  0.64957100  1
  C  220  1  0.97204500  0.37933700  0.70172700  1
  C  225  1  0.33836000  0.99902600  0.32235200  1
  C  226  1  0.33797300  0.01592800  0.30982300  1
  C  227  1  0.35179800  0.01821900  0.29428100  1
  C  228  1  0.36588100  0.00312100  0.29086800  1
  C  229  1  0.36636100  0.98603200  0.30301100  1
  C  230  1  0.35267600  0.98396400  0.31883300  1
  C  233  1  0.32331600  0.99669700  0.33702200  1
  C  234  1  0.31961000  0.01165700  0.35139800  1
  C  235  1  0.30338000  0.00973100  0.36464800  1
  C  236  1  0.29115300  0.99269900  0.36372600  1
  C  237  1  0.29481100  0.97762700  0.34966800  1
  C  238  1  0.31067500  0.97990300  0.33621500  1
  C  245  1  0.28261300  0.96124600  0.34851800  1
  C  246  1  0.37859200  0.97061700  0.29776200  1
  C  247  1  0.35096000  0.03457000  0.28205300  1
  C  248  1  0.29844900  0.02497400  0.37733700  1
  C  253  1  0.66131500  0.00098200  0.67435300  1
  C  254  1  0.66189900  0.01780000  0.68696500  1
  C  255  1  0.64826900  0.02002100  0.70268200  1
  C  256  1  0.63420400  0.00491200  0.70618300  1
  C  257  1  0.63349700  0.98784000  0.69399500  1
  C  258  1  0.64696000  0.98596100  0.67792600  1
  C  261  1  0.67625600  0.99865200  0.65956700  1
  C  262  1  0.67994700  0.01359200  0.64515900  1
  C  263  1  0.69584800  0.01134700  0.63157500  1
  C  264  1  0.70803300  0.99431200  0.63240500  1
  C  265  1  0.70455400  0.97942300  0.64669700  1
  C  266  1  0.68883600  0.98180600  0.66029900  1
  C  273  1  0.71676400  0.96308500  0.64783800  1
  C  274  1  0.62071300  0.97258100  0.69873200  1
  C  275  1  0.64920100  0.03644400  0.71486400  1
  C  276  1  0.70124600  0.02642600  0.61898100  1
  C  281  1  0.33831400  0.99798100  0.67632100  1
  C  282  1  0.33737700  0.98114800  0.68890500  1
  C  283  1  0.35084400  0.97867300  0.70472900  1
  C  284  1  0.36519100  0.99349000  0.70831600  1
  C  285  1  0.36622300  0.01052000  0.69613900  1
  C  286  1  0.35278000  0.01283500  0.68012700  1
  C  289  1  0.32361600  0.00042900  0.66131700  1
  C  290  1  0.32002300  0.98545700  0.64691700  1
  C  291  1  0.30398300  0.98741800  0.63342900  1
  C  292  1  0.29183000  0.00451600  0.63417900  1
  C  293  1  0.29536100  0.01958600  0.64827600  1
  C  294  1  0.31105200  0.01728300  0.66192400  1
  C  301  1  0.28314900  0.03596100  0.64932200  1
  C  302  1  0.37884500  0.02552700  0.70169000  1
  C  303  1  0.34940200  0.96237000  0.71699100  1
  C  304  1  0.29918000  0.97218100  0.62064200  1
  C  309  1  0.66127700  0.99701100  0.32401700  1
  C  310  1  0.66198100  0.98013300  0.31149000  1
  C  311  1  0.64837700  0.97773700  0.29577700  1
  C  312  1  0.63423500  0.99274900  0.29217200  1
  C  313  1  0.63340700  0.00988800  0.30426000  1
  C  314  1  0.64684000  0.01192900  0.32033900  1
  C  317  1  0.67623200  0.99952300  0.33876000  1
  C  318  1  0.68007700  0.98467100  0.35322100  1
  C  319  1  0.69606100  0.98703600  0.36668800  1
  C  320  1  0.70816900  0.00411900  0.36569000  1
  C  321  1  0.70453000  0.01893600  0.35136100  1
  C  322  1  0.68873700  0.01641600  0.33786700  1
  C  329  1  0.71671400  0.03527900  0.34998900  1
  C  330  1  0.62056000  0.02506700  0.29940200  1
  C  331  1  0.64950700  0.96128900  0.28364400  1
  C  332  1  0.70166300  0.97203400  0.37929800  1
  C  337  1  0.81839600  0.83365400  0.50065900  1
  C  338  1  0.80643500  0.83201300  0.51788000  1
  C  339  1  0.79117900  0.84580800  0.52178800  1
  C  340  1  0.78771700  0.86129000  0.50811500  1
  C  341  1  0.79941800  0.86316600  0.49084500  1
  C  342  1  0.81471900  0.84926600  0.48698600  1
  C  345  1  0.83304100  0.81894100  0.49680800  1
  C  346  1  0.84858500  0.81513400  0.51052300  1
  C  347  1  0.86246200  0.79983800  0.50660000  1
  C  348  1  0.86062300  0.78824300  0.48925500  1
  C  349  1  0.84520500  0.79182800  0.47553700  1
  C  350  1  0.83143500  0.80709300  0.47950100  1
  C  357  1  0.84321500  0.78017700  0.45879200  1
  C  358  1  0.79443200  0.87770800  0.47746400  1
  C  359  1  0.77936100  0.84373600  0.53837800  1
  C  360  1  0.87716500  0.79495100  0.51982200  1
  C  365  1  0.17971400  0.16456400  0.50128300  1
  C  366  1  0.19143000  0.16588300  0.51870900  1
  C  367  1  0.20646700  0.15187000  0.52270900  1
  C  368  1  0.20996700  0.13650300  0.50891700  1
  C  369  1  0.19851600  0.13496100  0.49145200  1
  C  370  1  0.18342900  0.14905600  0.48750300  1
  C  373  1  0.16503200  0.17926600  0.49749200  1
  C  374  1  0.14932800  0.18277100  0.51110800  1
  C  375  1  0.13521200  0.19783200  0.50712700  1
  C  376  1  0.13693400  0.20946900  0.48979900  1
  C  377  1  0.15250100  0.20618400  0.47618700  1
  C  378  1  0.16653100  0.19117200  0.48021100  1
  C  385  1  0.15424000  0.21782800  0.45945600  1
  C  386  1  0.20333900  0.12031600  0.47815200  1
  C  387  1  0.21798100  0.15351100  0.53958400  1
  C  388  1  0.12032500  0.20240300  0.52026600  1
  C  393  1  0.17828400  0.83347500  0.49675100  1
  C  394  1  0.19009200  0.83204000  0.47939400  1
  C  395  1  0.20516700  0.84600700  0.47538100  1
  C  396  1  0.20866600  0.86141600  0.48911900  1
  C  397  1  0.19715600  0.86306200  0.50653900  1
  C  398  1  0.18199700  0.84903600  0.51047700  1
  C  401  1  0.16359700  0.81877000  0.50058400  1
  C  402  1  0.14809200  0.81495200  0.48682200  1
  C  403  1  0.13409700  0.79976100  0.49076500  1
  C  404  1  0.13575000  0.78830200  0.50821600  1
  C  405  1  0.15111300  0.79189200  0.52198700  1
  C  406  1  0.16502300  0.80702200  0.51798000  1
  C  413  1  0.15292300  0.78031300  0.53880000  1
  C  414  1  0.20201100  0.87771600  0.51983400  1
  C  415  1  0.21678100  0.84425100  0.45862700  1
  C  416  1  0.11969300  0.79459600  0.47731000  1
  C  421  1  0.81948300  0.16370900  0.49712200  1
  C  422  1  0.80764100  0.16557900  0.47983500  1
  C  423  1  0.79212400  0.15210300  0.47584000  1
  C  424  1  0.78825300  0.13671900  0.48951400  1
  C  425  1  0.79979900  0.13463500  0.50686000  1
  C  426  1  0.81537900  0.14819700  0.51079300  1
  C  429  1  0.83446400  0.17808800  0.50102000  1
  C  430  1  0.84998400  0.18173000  0.48722900  1
  C  431  1  0.86413000  0.19679500  0.49112300  1
  C  432  1  0.86262900  0.20827700  0.50857700  1
  C  433  1  0.84725500  0.20484700  0.52237100  1
  C  434  1  0.83318000  0.18986600  0.51840300  1
  C  441  1  0.84550100  0.21655500  0.53904900  1
  C  442  1  0.79442400  0.12021300  0.52020600  1
  C  443  1  0.78052300  0.15431600  0.45909200  1
  C  444  1  0.87846700  0.20188300  0.47755800  1
  C  449  1  0.50049700  0.81846900  0.83347000  1
  C  450  1  0.51780700  0.80661900  0.83195800  1
  C  451  1  0.52173600  0.79143500  0.84582000  1
  C  452  1  0.50802300  0.78793200  0.86125100  1
  C  453  1  0.49065300  0.79951000  0.86298600  1
  C  454  1  0.48676000  0.81473600  0.84901400  1
  C  457  1  0.49665500  0.83307300  0.81871400  1
  C  458  1  0.51032400  0.84866800  0.81494900  1
  C  459  1  0.50643500  0.86248800  0.79959300  1
  C  460  1  0.48917100  0.86054500  0.78789800  1
  C  461  1  0.47549300  0.84509100  0.79145400  1
  C  462  1  0.47941900  0.83137300  0.80677500  1
  C  469  1  0.45883000  0.84303600  0.77973100  1
  C  470  1  0.47723700  0.79447700  0.87748100  1
  C  471  1  0.53843100  0.77977100  0.84395900  1
  C  472  1  0.51962900  0.87723000  0.79474900  1
  C  477  1  0.50098600  0.17986700  0.16445700  1
  C  478  1  0.51836600  0.19164100  0.16584900  1
  C  479  1  0.52232800  0.20675800  0.15191000  1
  C  480  1  0.50854400  0.21027600  0.13654100  1
  C  481  1  0.49112000  0.19877300  0.13492200  1
  C  482  1  0.48720900  0.18360800  0.14894800  1
  C  485  1  0.49724100  0.16510300  0.17909600  1
  C  486  1  0.51093000  0.14945400  0.18258000  1
  C  487  1  0.50700100  0.13527600  0.19759800  1
  C  488  1  0.48964600  0.13688400  0.20921400  1
  C  489  1  0.47596800  0.15240300  0.20596400  1
  C  490  1  0.47994500  0.16648900  0.19099200  1
  C  497  1  0.45920900  0.15405600  0.21760800  1
  C  498  1  0.47787500  0.20354700  0.12020100  1
  C  499  1  0.53918400  0.21829100  0.15360200  1
  C  500  1  0.52019300  0.12042200  0.20214000  1
  C  505  1  0.49650200  0.17803900  0.83346000  1
  C  506  1  0.47912200  0.18982700  0.83211100  1
  C  507  1  0.47508700  0.20481200  0.84617400  1
  C  508  1  0.48885000  0.20825100  0.86157800  1
  C  509  1  0.50628800  0.19676300  0.86313900  1
  C  510  1  0.51023600  0.18168700  0.84902900  1
  C  513  1  0.50036500  0.16346200  0.81865300  1
  C  514  1  0.48662900  0.14796300  0.81472500  1
  C  515  1  0.49059100  0.13408600  0.79943100  1
  C  516  1  0.50803900  0.13584700  0.78798400  1
  C  517  1  0.52180500  0.15118800  0.79169800  1
  C  518  1  0.51776600  0.16498900  0.80692100  1
  C  525  1  0.53861300  0.15312600  0.78012500  1
  C  526  1  0.51963700  0.20162600  0.87773700  1
  C  527  1  0.45834300  0.21647800  0.84441800  1
  C  528  1  0.47715500  0.11970400  0.79415900  1
  C  533  1  0.49730500  0.81913000  0.16367400  1
  C  534  1  0.48000600  0.80731300  0.16560300  1
  C  535  1  0.47593800  0.79181400  0.15212700  1
  C  536  1  0.48955100  0.78793700  0.13669000  1
  C  537  1  0.50690300  0.79946400  0.13455100  1
  C  538  1  0.51090700  0.81502800  0.14810700  1
  C  541  1  0.50124900  0.83414400  0.17799600  1
  C  542  1  0.48748800  0.84970200  0.18157700  1
  C  543  1  0.49145400  0.86393800  0.19653400  1
  C  544  1  0.50894200  0.86250300  0.20796800  1
  C  545  1  0.52270000  0.84708600  0.20460000  1
  C  546  1  0.51867000  0.83291500  0.18972500  1
  C  553  1  0.53942800  0.84543400  0.21624700  1
  C  554  1  0.52020300  0.79407300  0.12009500  1
  C  555  1  0.45917100  0.78024800  0.15438000  1
  C  556  1  0.47790400  0.87829400  0.20157600  1
  C  561  1  0.83362600  0.50064400  0.81833800  1
  C  562  1  0.83192400  0.51781900  0.80631900  1
  C  563  1  0.84567000  0.52169000  0.79100800  1
  C  564  1  0.86116300  0.50802700  0.78755300  1
  C  565  1  0.86310200  0.49080800  0.79932000  1
  C  566  1  0.84925200  0.48698600  0.81467200  1
  C  569  1  0.81897100  0.49682500  0.83304800  1
  C  570  1  0.81522100  0.51057600  0.84857400  1
  C  571  1  0.80002100  0.50665200  0.86255500  1
  C  572  1  0.78846400  0.48926900  0.86084000  1
  C  573  1  0.79197700  0.47553300  0.84542500  1
  C  574  1  0.80715100  0.47948900  0.83155500  1
  C  581  1  0.78037100  0.45874600  0.84358500  1
  C  582  1  0.87765900  0.47743100  0.79435800  1
  C  583  1  0.84355500  0.53824600  0.77915000  1
  C  584  1  0.79518300  0.51990200  0.87724600  1
  C  589  1  0.16465200  0.50093400  0.17968300  1
  C  590  1  0.16591100  0.51837500  0.19138400  1
  C  591  1  0.15188000  0.52235100  0.20640900  1
  C  592  1  0.13655200  0.50851900  0.20991800  1
  C  593  1  0.13507000  0.49103100  0.19849200  1
  C  594  1  0.14918700  0.48710600  0.18341800  1
  C  597  1  0.17937100  0.49719800  0.16499800  1
  C  598  1  0.18285900  0.51084700  0.14931900  1
  C  599  1  0.19798800  0.50696400  0.13524600  1
  C  600  1  0.20970900  0.48969400  0.13699000  1
  C  601  1  0.20643200  0.47603600  0.15252000  1
  C  602  1  0.19135100  0.47997000  0.16650700  1
  C  609  1  0.21816400  0.45937000  0.15430100  1
  C  610  1  0.12038800  0.47774300  0.20326900  1
  C  611  1  0.15345300  0.53926000  0.21788100  1
  C  612  1  0.20252900  0.52013400  0.12037600  1
  C  617  1  0.83343400  0.49687100  0.17843400  1
  C  618  1  0.83210100  0.47945900  0.19017500  1
  C  619  1  0.84617400  0.47539800  0.20513900  1
  C  620  1  0.86158400  0.48914400  0.20859900  1
  C  621  1  0.86312700  0.50661700  0.19715900  1
  C  622  1  0.84899900  0.51060300  0.18210900  1
  C  625  1  0.81865600  0.50073100  0.16383200  1
  C  626  1  0.81481700  0.48702000  0.14828900  1
  C  627  1  0.79956500  0.49098000  0.13436900  1
  C  628  1  0.78806700  0.50839400  0.13612700  1
  C  629  1  0.79169900  0.52213600  0.15150900  1
  C  630  1  0.80688500  0.51810400  0.16535100  1
  C  637  1  0.78009300  0.53892500  0.15342600  1
  C  638  1  0.87776900  0.51992900  0.20200100  1
  C  639  1  0.84450400  0.45860300  0.21670500  1
  C  640  1  0.79441300  0.47758000  0.11991700  1
  C  645  1  0.16369500  0.49697200  0.81947300  1
  C  646  1  0.16559200  0.47970600  0.80760400  1
  C  647  1  0.15212500  0.47571900  0.79207500  1
  C  648  1  0.13673000  0.48938200  0.78821600  1
  C  649  1  0.13462100  0.50670800  0.79978700  1
  C  650  1  0.14816900  0.51063000  0.81538200  1
  C  653  1  0.17807000  0.50087000  0.83446100  1
  C  654  1  0.18175200  0.48705700  0.84995300  1
  C  655  1  0.19679500  0.49097000  0.86411900  1
  C  656  1  0.20821100  0.50847100  0.86266800  1
  C  657  1  0.20475300  0.52227700  0.84731300  1
  C  658  1  0.18979600  0.51829200  0.83321900  1
  C  665  1  0.21639000  0.53901100  0.84563700  1
  C  666  1  0.12019100  0.52005000  0.79441900  1
  C  667  1  0.15436100  0.45898600  0.78045300  1
  C  668  1  0.20191900  0.47739600  0.87843900  1
  C  673  1  0.37293400  0.27657500  0.93597100  1
  C  674  1  0.38118700  0.25847100  0.94270400  1
  C  675  1  0.39419000  0.24708800  0.93069900  1
  C  676  1  0.39903100  0.25428800  0.91140000  1
  C  677  1  0.39100900  0.27254200  0.90481000  1
  C  678  1  0.37829100  0.28364500  0.91704900  1
  C  681  1  0.41137300  0.24369700  0.89796200  1
  C  682  1  0.40252600  0.22847100  0.88652700  1
  C  683  1  0.41374700  0.21774500  0.87259800  1
  C  684  1  0.43386700  0.22237900  0.86939000  1
  C  685  1  0.44278900  0.23737800  0.88108500  1
  C  686  1  0.43194200  0.24808100  0.89560200  1
  C  691  1  0.40225000  0.22831100  0.93923100  1
  C  692  1  0.44185500  0.26359600  0.90806200  1
  C  703  1  0.62481200  0.72311100  0.93672200  1
  C  704  1  0.61595700  0.74109100  0.94301300  1
  C  705  1  0.60302500  0.75201800  0.93052800  1
  C  706  1  0.59887400  0.74445000  0.91121300  1
  C  707  1  0.60752300  0.72634200  0.90503800  1
  C  708  1  0.62019400  0.71571700  0.91773100  1
  C  711  1  0.58642600  0.75442300  0.89744000  1
  C  712  1  0.59512400  0.76926100  0.88540300  1
  C  713  1  0.58375700  0.77938900  0.87115600  1
  C  714  1  0.56363400  0.77455400  0.86829100  1
  C  715  1  0.55487400  0.75993000  0.88057400  1
  C  716  1  0.56588000  0.74980700  0.89537300  1
  C  721  1  0.59431000  0.77071300  0.93859200  1
  C  722  1  0.55617500  0.73461300  0.90838600  1
  C  733  1  0.62514800  0.27604600  0.06116500  1
  C  734  1  0.61657800  0.25799500  0.05469200  1
  C  735  1  0.60356100  0.24690000  0.06694400  1
  C  736  1  0.59902400  0.25435500  0.08621800  1
  C  737  1  0.60737100  0.27255100  0.09255800  1
  C  738  1  0.62012200  0.28335100  0.08008800  1
  C  741  1  0.58658700  0.24413100  0.09983600  1
  C  742  1  0.59530000  0.22908000  0.11159700  1
  C  743  1  0.58397200  0.21873700  0.12572600  1
  C  744  1  0.56388200  0.22359300  0.12879700  1
  C  745  1  0.55509400  0.23840300  0.11676400  1
  C  746  1  0.56605000  0.24872700  0.10205900  1
  C  751  1  0.59516500  0.22814600  0.05868300  1
  C  752  1  0.55629200  0.26408000  0.08928000  1
  C  763  1  0.37308000  0.72334500  0.06140800  1
  C  764  1  0.38202100  0.74126500  0.05507200  1
  C  765  1  0.39495200  0.75219700  0.06755600  1
  C  766  1  0.39899800  0.74470700  0.08692500  1
  C  767  1  0.39025000  0.72666300  0.09314800  1
  C  768  1  0.37759100  0.71602300  0.08045200  1
  C  771  1  0.41142400  0.75470400  0.10070700  1
  C  772  1  0.40280200  0.76983000  0.11243400  1
  C  773  1  0.41415100  0.78001000  0.12666100  1
  C  774  1  0.43416500  0.77491800  0.12985900  1
  C  775  1  0.44284600  0.75998900  0.11788900  1
  C  776  1  0.43187700  0.74983200  0.10308400  1
  C  781  1  0.40378300  0.77080900  0.05942900  1
  C  782  1  0.44153700  0.73436400  0.09036500  1
  C  793  1  0.93590100  0.37258700  0.27617800  1
  C  794  1  0.94259900  0.38094500  0.25811000  1
  C  795  1  0.93057000  0.39401000  0.24682500  1
  C  796  1  0.91128700  0.39881100  0.25409400  1
  C  797  1  0.90473200  0.39068200  0.27231300  1
  C  798  1  0.91699100  0.37789600  0.28331400  1
  C  801  1  0.89783600  0.41122500  0.24360800  1
  C  802  1  0.88625700  0.40244600  0.22845300  1
  C  803  1  0.87231600  0.41374300  0.21782500  1
  C  804  1  0.86924900  0.43387900  0.22248500  1
  C  805  1  0.88108800  0.44273300  0.23741400  1
  C  806  1  0.89560900  0.43180300  0.24802300  1
  C  811  1  0.93906000  0.40217100  0.22807200  1
  C  812  1  0.90820600  0.44163300  0.26347900  1
  C  823  1  0.93680800  0.62466600  0.72326000  1
  C  824  1  0.94303100  0.61574800  0.74123300  1
  C  825  1  0.93049800  0.60279000  0.75207500  1
  C  826  1  0.91120500  0.59868000  0.74442800  1
  C  827  1  0.90509700  0.60739600  0.72633000  1
  C  828  1  0.91783600  0.62009400  0.71579000  1
  C  831  1  0.89739200  0.58619600  0.75430300  1
  C  832  1  0.88531800  0.59483200  0.76914700  1
  C  833  1  0.87101000  0.58343600  0.77915600  1
  C  834  1  0.86811500  0.56334800  0.77418700  1
  C  835  1  0.88043900  0.55464800  0.75956300  1
  C  836  1  0.89530500  0.56568000  0.74956600  1
  C  841  1  0.93849400  0.59400700  0.77076600  1
  C  842  1  0.90836400  0.55603200  0.73437400  1
  C  853  1  0.06143700  0.62529600  0.27608700  1
  C  854  1  0.05482800  0.61678100  0.25806000  1
  C  855  1  0.06695500  0.60371100  0.24688900  1
  C  856  1  0.08624400  0.59906700  0.25424100  1
  C  857  1  0.09271800  0.60735800  0.27241400  1
  C  858  1  0.08036900  0.62016100  0.28329300  1
  C  861  1  0.09976300  0.58660300  0.24391500  1
  C  862  1  0.11145400  0.59530500  0.22880100  1
  C  863  1  0.12551000  0.58396300  0.21837600  1
  C  864  1  0.12858000  0.56386700  0.22321000  1
  C  865  1  0.11660900  0.55508500  0.23807300  1
  C  866  1  0.10197800  0.56605900  0.24848300  1
  C  871  1  0.05855600  0.59537600  0.22817100  1
  C  872  1  0.08926800  0.55631200  0.26390100  1
  C  883  1  0.06135300  0.37320000  0.72314600  1
  C  884  1  0.05501100  0.38208000  0.74109300  1
  C  885  1  0.06749400  0.39496800  0.75207800  1
  C  886  1  0.08686900  0.39903200  0.74461200  1
  C  887  1  0.09309800  0.39034700  0.72654000  1
  C  888  1  0.08040100  0.37773400  0.71584600  1
  C  891  1  0.10065600  0.41140600  0.75466800  1
  C  892  1  0.11234800  0.40271800  0.76978400  1
  C  893  1  0.12657500  0.41401400  0.78002200  1
  C  894  1  0.12980700  0.43403800  0.77500100  1
  C  895  1  0.11787300  0.44278600  0.76008400  1
  C  896  1  0.10307000  0.43187100  0.74986600  1
  C  901  1  0.05936100  0.40373700  0.77071600  1
  C  902  1  0.09038600  0.44159900  0.73441100  1
  C  913  1  0.27583200  0.93601200  0.37266100  1
  C  914  1  0.25777600  0.94261800  0.38111800  1
  C  915  1  0.24656400  0.93049200  0.39415200  1
  C  916  1  0.25390100  0.91120500  0.39882900  1
  C  917  1  0.27210900  0.90473900  0.39060800  1
  C  918  1  0.28303500  0.91709200  0.37784500  1
  C  921  1  0.24350100  0.89767300  0.41122200  1
  C  922  1  0.22838200  0.88605200  0.40243800  1
  C  923  1  0.21782500  0.87204600  0.41372200  1
  C  924  1  0.22252100  0.86895900  0.43384700  1
  C  925  1  0.23741800  0.88083500  0.44270300  1
  C  926  1  0.24795400  0.89542100  0.43178800  1
  C  931  1  0.22781000  0.93888800  0.40241000  1
  C  932  1  0.26337900  0.90805600  0.44162200  1
  C  943  1  0.72317500  0.93686300  0.62472900  1
  C  944  1  0.74114000  0.94313300  0.61582900  1
  C  945  1  0.75202600  0.93063300  0.60287500  1
  C  946  1  0.74443200  0.91132400  0.59875000  1
  C  947  1  0.72634200  0.90516700  0.60744700  1
  C  948  1  0.71575700  0.91787500  0.62013900  1
  C  951  1  0.75435500  0.89754100  0.58627000  1
  C  952  1  0.76925600  0.88553500  0.59490500  1
  C  953  1  0.77931800  0.87126100  0.58351200  1
  C  954  1  0.77435100  0.86833400  0.56342900  1
  C  955  1  0.75967100  0.88059000  0.55472800  1
  C  956  1  0.74961600  0.89542200  0.56575600  1
  C  961  1  0.77070200  0.93868300  0.59410800  1
  C  962  1  0.73436800  0.90841100  0.55610700  1
  C  973  1  0.27643300  0.06121700  0.62520100  1
  C  974  1  0.25836400  0.05466800  0.61672900  1
  C  975  1  0.24717300  0.06685600  0.60373300  1
  C  976  1  0.25454800  0.08614400  0.59912100  1
  C  977  1  0.27276400  0.09255500  0.60736500  1
  C  978  1  0.28366500  0.08014600  0.62009100  1
  C  981  1  0.24420500  0.09971900  0.58673200  1
  C  982  1  0.22910400  0.11137000  0.59550800  1
  C  983  1  0.21864900  0.12546400  0.58424000  1
  C  984  1  0.22344400  0.12861500  0.56414700  1
  C  985  1  0.23830500  0.11669200  0.55529400  1
  C  986  1  0.24873700  0.10201800  0.56619000  1
  C  991  1  0.22841200  0.05851700  0.59543600  1
  C  992  1  0.26413200  0.08934300  0.55636100  1
  C  1003  1  0.72321000  0.06135400  0.37327000  1
  C  1004  1  0.74115400  0.05500000  0.38215000  1
  C  1005  1  0.75214200  0.06747200  0.39504500  1
  C  1006  1  0.74468500  0.08684900  0.39911500  1
  C  1007  1  0.72661700  0.09309000  0.39043000  1
  C  1008  1  0.71592000  0.08040400  0.37780800  1
  C  1011  1  0.75474400  0.10062500  0.41150000  1
  C  1012  1  0.76987200  0.11231100  0.40282200  1
  C  1013  1  0.78011400  0.12652800  0.41412700  1
  C  1014  1  0.77508700  0.12975500  0.43415100  1
  C  1015  1  0.76016000  0.11782600  0.44288900  1
  C  1016  1  0.74993700  0.10303300  0.43196500  1
  C  1021  1  0.77077500  0.05932600  0.40381400  1
  C  1022  1  0.73447100  0.09035500  0.44168100  1
  C  1033  1  0.27444700  0.37343900  0.06073300  1
  C  1034  1  0.25637500  0.38219600  0.05457800  1
  C  1035  1  0.24550200  0.39512500  0.06712100  1
  C  1036  1  0.25321100  0.39937500  0.08636100  1
  C  1037  1  0.27141900  0.39083000  0.09239000  1
  C  1038  1  0.28199600  0.37817300  0.07963600  1
  C  1041  1  0.24326600  0.41176500  0.10022400  1
  C  1042  1  0.22841500  0.40303000  0.11221800  1
  C  1043  1  0.21834000  0.41432000  0.12656900  1
  C  1044  1  0.22326500  0.43439800  0.12961700  1
  C  1045  1  0.23789900  0.44319900  0.11737800  1
  C  1046  1  0.24794600  0.43228300  0.10245400  1
  C  1051  1  0.22670700  0.40374100  0.05918800  1
  C  1052  1  0.26311600  0.44205400  0.08946800  1
  C  1063  1  0.72157600  0.62512500  0.06167600  1
  C  1064  1  0.73961500  0.61664800  0.05505100  1
  C  1065  1  0.75080600  0.60357600  0.06715600  1
  C  1066  1  0.74346700  0.59889700  0.08644100  1
  C  1067  1  0.72528800  0.60715900  0.09293400  1
  C  1068  1  0.71438300  0.61995600  0.08060400  1
  C  1071  1  0.75380800  0.58641600  0.09993000  1
  C  1072  1  0.76897600  0.59508600  0.11157200  1
  C  1073  1  0.77944700  0.58371400  0.12556900  1
  C  1074  1  0.77462400  0.56361300  0.12861300  1
  C  1075  1  0.75968200  0.55486900  0.11671100  1
  C  1076  1  0.74922300  0.56587500  0.10213900  1
  C  1081  1  0.76952900  0.59527200  0.05873500  1
  C  1082  1  0.73374600  0.55616000  0.08947600  1
  C  1093  1  0.27683500  0.62499700  0.93628700  1
  C  1094  1  0.25871200  0.61680500  0.94304100  1
  C  1095  1  0.24729600  0.60380900  0.93106900  1
  C  1096  1  0.25449300  0.59891100  0.91178500  1
  C  1097  1  0.27276100  0.60687300  0.90516500  1
  C  1098  1  0.28388600  0.61960400  0.91736800  1
  C  1101  1  0.24389600  0.58652900  0.89841100  1
  C  1102  1  0.22883700  0.59539500  0.88677500  1
  C  1103  1  0.21806600  0.58411000  0.87293900  1
  C  1104  1  0.22248600  0.56389500  0.87004900  1
  C  1105  1  0.23731300  0.55495800  0.88195200  1
  C  1106  1  0.24807600  0.56588500  0.89635700  1
  C  1111  1  0.22849200  0.59582200  0.93961400  1
  C  1112  1  0.26344600  0.55598900  0.90900800  1
  C  1123  1  0.72285000  0.37334700  0.93670300  1
  C  1124  1  0.74086100  0.38207300  0.94307900  1
  C  1125  1  0.75191000  0.39497400  0.93066500  1
  C  1126  1  0.74444900  0.39921300  0.91132600  1
  C  1127  1  0.72630500  0.39069300  0.90507200  1
  C  1128  1  0.71554600  0.37806700  0.91770100  1
  C  1131  1  0.75460300  0.41154700  0.89757300  1
  C  1132  1  0.76967700  0.40277700  0.88588600  1
  C  1133  1  0.77996700  0.41401000  0.87164500  1
  C  1134  1  0.77503400  0.43405200  0.86839300  1
  C  1135  1  0.76018400  0.44289200  0.88034100  1
  C  1136  1  0.74991600  0.43203900  0.89515600  1
  C  1141  1  0.77061800  0.40356600  0.93882600  1
  C  1142  1  0.73452600  0.44185900  0.90784500  1
  C  1153  1  0.37293300  0.93647000  0.72334500  1
  C  1154  1  0.38181600  0.94278400  0.74130100  1
  C  1155  1  0.39477900  0.93031700  0.75221400  1
  C  1156  1  0.39893000  0.91099400  0.74466100  1
  C  1157  1  0.39026500  0.90480900  0.72656400  1
  C  1158  1  0.37757600  0.91748900  0.71594300  1
  C  1161  1  0.41133900  0.89719700  0.75466000  1
  C  1162  1  0.40266000  0.88537000  0.76967600  1
  C  1163  1  0.41395800  0.87104200  0.77977000  1
  C  1164  1  0.43397600  0.86785100  0.77469700  1
  C  1165  1  0.44272400  0.87993500  0.75990200  1
  C  1166  1  0.43180400  0.89483700  0.74983300  1
  C  1171  1  0.40353000  0.93840500  0.77088100  1
  C  1172  1  0.44152400  0.90765600  0.73448600  1
  C  1183  1  0.62516400  0.93637900  0.27667300  1
  C  1184  1  0.61690300  0.94311900  0.25857500  1
  C  1185  1  0.60388500  0.93112400  0.24720900  1
  C  1186  1  0.59903600  0.91183700  0.25442800  1
  C  1187  1  0.60705300  0.90524100  0.27268000  1
  C  1188  1  0.61980000  0.91746800  0.28376100  1
  C  1191  1  0.58670800  0.89841000  0.24383200  1
  C  1192  1  0.59561700  0.88686000  0.22873000  1
  C  1193  1  0.58439700  0.87297400  0.21795600  1
  C  1194  1  0.56420400  0.86996200  0.22239600  1
  C  1195  1  0.55522700  0.88176400  0.23728000  1
  C  1196  1  0.56608700  0.89621600  0.24805100  1
  C  1201  1  0.59583800  0.93964600  0.22841900  1
  C  1202  1  0.55614400  0.90877900  0.26346400  1
  C  1213  1  0.62509400  0.06163100  0.72162300  1
  C  1214  1  0.61662400  0.05498400  0.73965800  1
  C  1215  1  0.60351900  0.06705800  0.75084600  1
  C  1216  1  0.59880000  0.08633400  0.74351000  1
  C  1217  1  0.60705500  0.09284900  0.72533500  1
  C  1218  1  0.61988800  0.08055000  0.71443500  1
  C  1221  1  0.58627000  0.09978500  0.75384400  1
  C  1222  1  0.59489600  0.11144900  0.76902100  1
  C  1223  1  0.58347000  0.12539800  0.77949900  1
  C  1224  1  0.56336500  0.12838800  0.77465800  1
  C  1225  1  0.55466400  0.11645400  0.75971600  1
  C  1226  1  0.56572400  0.10192700  0.74925200  1
  C  1231  1  0.59522600  0.05861300  0.76956300  1
  C  1232  1  0.55605900  0.08924000  0.73376400  1
  C  1243  1  0.37415200  0.06065300  0.27533700  1
  C  1244  1  0.38268200  0.05446200  0.25716700  1
  C  1245  1  0.39539100  0.06702100  0.24605300  1
  C  1246  1  0.39963800  0.08632400  0.25360500  1
  C  1247  1  0.39128600  0.09240900  0.27188400  1
  C  1248  1  0.37884600  0.07963900  0.28269900  1
  C  1251  1  0.41191600  0.10015700  0.24347600  1
  C  1252  1  0.40304900  0.11203200  0.22860600  1
  C  1253  1  0.41424800  0.12631000  0.21832400  1
  C  1254  1  0.43436200  0.12941600  0.22306300  1
  C  1255  1  0.44329000  0.11729700  0.23772000  1
  C  1256  1  0.43247000  0.10244100  0.24796800  1
  C  1261  1  0.40380600  0.05902800  0.22719200  1
  C  1262  1  0.44238800  0.08956900  0.26314300  1
  C  1273  1  0.93625100  0.27668300  0.62517300  1
  C  1274  1  0.94303400  0.25859600  0.61692100  1
  C  1275  1  0.93109700  0.24723200  0.60384600  1
  C  1276  1  0.91182500  0.25444600  0.59892900  1
  C  1277  1  0.90518500  0.27268400  0.60694000  1
  C  1278  1  0.91735600  0.28376400  0.61974000  1
  C  1281  1  0.89845900  0.24386600  0.58652100  1
  C  1282  1  0.88684500  0.22877000  0.59535500  1
  C  1283  1  0.87299500  0.21803000  0.58405700  1
  C  1284  1  0.87007000  0.22252100  0.56386200  1
  C  1285  1  0.88194600  0.23738700  0.55495700  1
  C  1286  1  0.89636900  0.24811500  0.56589700  1
  C  1291  1  0.93966100  0.22845600  0.59581400  1
  C  1292  1  0.90899600  0.26352800  0.55603200  1
  C  1303  1  0.93655300  0.72285600  0.37350200  1
  C  1304  1  0.94290300  0.74088200  0.38222000  1
  C  1305  1  0.93043600  0.75197200  0.39503300  1
  C  1306  1  0.91106900  0.74454100  0.39918800  1
  C  1307  1  0.90483000  0.72639600  0.39066000  1
  C  1308  1  0.91751100  0.71559700  0.37812300  1
  C  1311  1  0.89731200  0.75466200  0.41154400  1
  C  1312  1  0.88560500  0.76974600  0.40281700  1
  C  1313  1  0.87134500  0.77997900  0.41407800  1
  C  1314  1  0.86810900  0.77499200  0.43411100  1
  C  1315  1  0.88007000  0.76012700  0.44290500  1
  C  1316  1  0.89490200  0.74991300  0.43202400  1
  C  1321  1  0.93858700  0.77067400  0.40365000  1
  C  1322  1  0.90760600  0.73450800  0.44180100  1
  C  1333  1  0.06079000  0.27491100  0.37398300  1
  C  1334  1  0.05464700  0.25675000  0.38256700  1
  C  1335  1  0.06722900  0.24571400  0.39531900  1
  C  1336  1  0.08650400  0.25334200  0.39955800  1
  C  1337  1  0.09253800  0.27161600  0.39115800  1
  C  1338  1  0.07974700  0.28235000  0.37867400  1
  C  1341  1  0.10035400  0.24330900  0.41189200  1
  C  1342  1  0.11233000  0.22848500  0.40308400  1
  C  1343  1  0.12665600  0.21832700  0.41433400  1
  C  1344  1  0.12970100  0.22314100  0.43443900  1
  C  1345  1  0.11747500  0.23774600  0.44330800  1
  C  1346  1  0.10257700  0.24787600  0.43243400  1
  C  1351  1  0.05928700  0.22686000  0.40379300  1
  C  1352  1  0.08960400  0.26300800  0.44228600  1
  C  1363  1  0.06147500  0.72152200  0.62511300  1
  C  1364  1  0.05484400  0.73957800  0.61667300  1
  C  1365  1  0.06692700  0.75077400  0.60358500  1
  C  1366  1  0.08619600  0.74342500  0.59885500  1
  C  1367  1  0.09269700  0.72523300  0.60708300  1
  C  1368  1  0.08038800  0.71432400  0.61989800  1
  C  1371  1  0.09967200  0.75379100  0.58638200  1
  C  1372  1  0.11134900  0.76891200  0.59508300  1
  C  1373  1  0.12530200  0.77944000  0.58371100  1
  C  1374  1  0.12828300  0.77470300  0.56358000  1
  C  1375  1  0.11634300  0.75980800  0.55480500  1
  C  1376  1  0.10181000  0.74929700  0.56581300  1
  C  1381  1  0.05850600  0.76951800  0.59533300  1
  C  1382  1  0.08911400  0.73386300  0.55607400  1
  C  1393  1  0.61599100  0.72265100  0.05312000  1
  C  1394  1  0.61284100  0.74312500  0.05026800  1
  C  1395  1  0.60031100  0.75411300  0.06303200  1
  C  1396  1  0.59124100  0.74404000  0.07928700  1
  C  1397  1  0.59522200  0.72367900  0.08263400  1
  C  1398  1  0.60750500  0.71300200  0.06960100  1
  C  1401  1  0.57640500  0.75316700  0.09103700  1
  C  1402  1  0.58249600  0.76473400  0.10745800  1
  C  1403  1  0.56843900  0.77507600  0.11886500  1
  C  1404  1  0.54819800  0.77431100  0.11376200  1
  C  1405  1  0.54207100  0.76231600  0.09768000  1
  C  1406  1  0.55591100  0.75179000  0.08590100  1
  C  1411  1  0.59679000  0.77539600  0.05795900  1
  C  1412  1  0.54904900  0.73935000  0.06877900  1
  C  1423  1  0.38557500  0.27296500  0.04682300  1
  C  1424  1  0.38829100  0.25228500  0.04520500  1
  C  1425  1  0.40007200  0.24163500  0.05895500  1
  C  1426  1  0.40879200  0.25226100  0.07504100  1
  C  1427  1  0.40511500  0.27281000  0.07729500  1
  C  1428  1  0.39363000  0.28310800  0.06328300  1
  C  1431  1  0.42313100  0.24350000  0.08766900  1
  C  1432  1  0.41643000  0.23269300  0.10437300  1
  C  1433  1  0.43004800  0.22288400  0.11675400  1
  C  1434  1  0.45046700  0.22345800  0.11238600  1
  C  1435  1  0.45719100  0.23474000  0.09603000  1
  C  1436  1  0.44380800  0.24468900  0.08326800  1
  C  1441  1  0.40317400  0.22003100  0.05513400  1
  C  1442  1  0.45133900  0.25635300  0.06588000  1
  C  1453  1  0.38196300  0.72262600  0.94480000  1
  C  1454  1  0.38517000  0.74307400  0.94778400  1
  C  1455  1  0.39758100  0.75415300  0.93497800  1
  C  1456  1  0.40651600  0.74418400  0.91858300  1
  C  1457  1  0.40248400  0.72385300  0.91512200  1
  C  1458  1  0.39030500  0.71308900  0.92818500  1
  C  1461  1  0.42126000  0.75339400  0.90678000  1
  C  1462  1  0.41505400  0.76505200  0.89046400  1
  C  1463  1  0.42902900  0.77546200  0.87901600  1
  C  1464  1  0.44930600  0.77468300  0.88397400  1
  C  1465  1  0.45554600  0.76259200  0.89994000  1
  C  1466  1  0.44179100  0.75200200  0.91176200  1
  C  1471  1  0.40113700  0.77540200  0.94016100  1
  C  1472  1  0.44877800  0.73946200  0.92876000  1
  C  1483  1  0.61139400  0.27254000  0.95013300  1
  C  1484  1  0.60880200  0.25184900  0.95177100  1
  C  1485  1  0.59701500  0.24113500  0.93808300  1
  C  1486  1  0.58815500  0.25171400  0.92204200  1
  C  1487  1  0.59169200  0.27228900  0.91977500  1
  C  1488  1  0.60318500  0.28265200  0.93373400  1
  C  1491  1  0.57387600  0.24283100  0.90944300  1
  C  1492  1  0.58067200  0.23184300  0.89289700  1
  C  1493  1  0.56714200  0.22170700  0.88069000  1
  C  1494  1  0.54672900  0.22211200  0.88510300  1
  C  1495  1  0.53990000  0.23361700  0.90125600  1
  C  1496  1  0.55319200  0.24390200  0.91384300  1
  C  1501  1  0.59405400  0.21951500  0.94193800  1
  C  1502  1  0.54556400  0.25574000  0.93107000  1
  C  1513  1  0.05308900  0.61573000  0.72292700  1
  C  1514  1  0.05035500  0.61266800  0.74342900  1
  C  1515  1  0.06313000  0.60012100  0.75438800  1
  C  1516  1  0.07929400  0.59095400  0.74425500  1
  C  1517  1  0.08253400  0.59484700  0.72386200  1
  C  1518  1  0.06947900  0.60713500  0.71321200  1
  C  1521  1  0.09106300  0.57612800  0.75338100  1
  C  1522  1  0.10753200  0.58223000  0.76487500  1
  C  1523  1  0.11896000  0.56818900  0.77521700  1
  C  1524  1  0.11383000  0.54795300  0.77453500  1
  C  1525  1  0.09769900  0.54180900  0.76261400  1
  C  1526  1  0.08590200  0.55563300  0.75208400  1
  C  1531  1  0.05815600  0.59668800  0.77570700  1
  C  1532  1  0.06872900  0.54875700  0.73972300  1
  C  1543  1  0.04680600  0.38569600  0.27270900  1
  C  1544  1  0.04523400  0.38844200  0.25203000  1
  C  1545  1  0.05902000  0.40022500  0.24143000  1
  C  1546  1  0.07509300  0.40890700  0.25210500  1
  C  1547  1  0.07729400  0.40520700  0.27265600  1
  C  1548  1  0.06324600  0.39372200  0.28290400  1
  C  1551  1  0.08778400  0.42321100  0.24337800  1
  C  1552  1  0.10447100  0.41645900  0.23257900  1
  C  1553  1  0.11689400  0.43003800  0.22276900  1
  C  1554  1  0.11257900  0.45046700  0.22333300  1
  C  1555  1  0.09624600  0.45724400  0.23461700  1
  C  1556  1  0.08344400  0.44390200  0.24456800  1
  C  1561  1  0.05525000  0.40336100  0.21982100  1
  C  1562  1  0.06607300  0.45148500  0.25622400  1
  C  1573  1  0.94477200  0.38199400  0.72250500  1
  C  1574  1  0.94783000  0.38524600  0.74293500  1
  C  1575  1  0.93505900  0.39767200  0.75403400  1
  C  1576  1  0.91862400  0.40657500  0.74410500  1
  C  1577  1  0.91508800  0.40249900  0.72379600  1
  C  1578  1  0.92811900  0.39030400  0.71300900  1
  C  1581  1  0.90684400  0.42133200  0.75332900  1
  C  1582  1  0.89059900  0.41513400  0.76508900  1
  C  1583  1  0.87919100  0.42912300  0.77552400  1
  C  1584  1  0.88411800  0.44940400  0.77466700  1
  C  1585  1  0.90000900  0.45563200  0.76247000  1
  C  1586  1  0.91179500  0.44186500  0.75185500  1
  C  1591  1  0.94031900  0.40127500  0.77525700  1
  C  1592  1  0.92872000  0.44883900  0.73921200  1
  C  1603  1  0.95057400  0.61161200  0.27264000  1
  C  1604  1  0.95220700  0.60895500  0.25195500  1
  C  1605  1  0.93848400  0.59717900  0.24127100  1
  C  1606  1  0.92241400  0.58839300  0.25186900  1
  C  1607  1  0.92016000  0.59199100  0.27243500  1
  C  1608  1  0.93414900  0.60347300  0.28276700  1
  C  1611  1  0.90975700  0.57414300  0.24301800  1
  C  1612  1  0.89321900  0.58097600  0.23203600  1
  C  1613  1  0.88093900  0.56747000  0.22195500  1
  C  1614  1  0.88526500  0.54704100  0.22240900  1
  C  1615  1  0.90141000  0.54017700  0.23390400  1
  C  1616  1  0.91406900  0.55344300  0.24413400  1
  C  1621  1  0.94232400  0.59415700  0.21965700  1
  C  1622  1  0.93128400  0.54577500  0.25596200  1
  C  1633  1  0.72282800  0.05310200  0.61579100  1
  C  1634  1  0.74332400  0.05033600  0.61271400  1
  C  1635  1  0.75429600  0.06310800  0.60017600  1
  C  1636  1  0.74418400  0.07929900  0.59103100  1
  C  1637  1  0.72379600  0.08256500  0.59493800  1
  C  1638  1  0.71313400  0.06951400  0.60721800  1
  C  1641  1  0.75332100  0.09107600  0.57622100  1
  C  1642  1  0.76482900  0.10752700  0.58234600  1
  C  1643  1  0.77518500  0.11896200  0.56832200  1
  C  1644  1  0.77450200  0.11385600  0.54807800  1
  C  1645  1  0.76256700  0.09774300  0.54191300  1
  C  1646  1  0.75202400  0.08593900  0.55572200  1
  C  1651  1  0.77560700  0.05810900  0.59673100  1
  C  1652  1  0.73964900  0.06878600  0.54882200  1
  C  1663  1  0.27243200  0.04736300  0.38551600  1
  C  1664  1  0.25174100  0.04586500  0.38818700  1
  C  1665  1  0.24117000  0.05966100  0.39997700  1
  C  1666  1  0.25189500  0.07567000  0.40871700  1
  C  1667  1  0.27245500  0.07782600  0.40504500  1
  C  1668  1  0.28267500  0.06376000  0.39356100  1
  C  1671  1  0.24323400  0.08824400  0.42315000  1
  C  1672  1  0.23242000  0.10499000  0.41657100  1
  C  1673  1  0.22262700  0.11727200  0.43028600  1
  C  1674  1  0.22323700  0.11276000  0.45067200  1
  C  1675  1  0.23454700  0.09637800  0.45727500  1
  C  1676  1  0.24447400  0.08370600  0.44379500  1
  C  1681  1  0.21955000  0.05594000  0.40308900  1
  C  1682  1  0.25614500  0.06626500  0.45119400  1
  C  1693  1  0.72259000  0.94486600  0.38202400  1
  C  1694  1  0.74303600  0.94787100  0.38523100  1
  C  1695  1  0.75412000  0.93509900  0.39767000  1
  C  1696  1  0.74416500  0.91871000  0.40662700  1
  C  1697  1  0.72383800  0.91522200  0.40259600  1
  C  1698  1  0.71306500  0.92825700  0.39039400  1
  C  1701  1  0.75338600  0.90693000  0.42138700  1
  C  1702  1  0.76509900  0.89065000  0.41519800  1
  C  1703  1  0.77552600  0.87923200  0.42918700  1
  C  1704  1  0.77470600  0.88418900  0.44946300  1
  C  1705  1  0.76255900  0.90011900  0.45568600  1
  C  1706  1  0.75195300  0.91191100  0.44191700  1
  C  1711  1  0.77536200  0.94031400  0.40122900  1
  C  1712  1  0.73935600  0.92887500  0.44888700  1
  C  1723  1  0.27280500  0.95040800  0.61156300  1
  C  1724  1  0.25212600  0.95211200  0.60889200  1
  C  1725  1  0.24139900  0.93843500  0.59710100  1
  C  1726  1  0.25194700  0.92233900  0.58830200  1
  C  1727  1  0.27250400  0.92001800  0.59190000  1
  C  1728  1  0.28287900  0.93395900  0.60340500  1
  C  1731  1  0.24305200  0.90970500  0.57405400  1
  C  1732  1  0.23205700  0.89317900  0.58089000  1
  C  1733  1  0.22195900  0.88090800  0.56738700  1
  C  1734  1  0.22240600  0.88523100  0.54695600  1
  C  1735  1  0.23390800  0.90137200  0.54009100  1
  C  1736  1  0.24415600  0.91402000  0.55335300  1
  C  1741  1  0.21979800  0.94234300  0.59407900  1
  C  1742  1  0.25600100  0.93122200  0.54568200  1
  C  1753  1  0.72492800  0.61139400  0.95077300  1
  C  1754  1  0.74560000  0.60863800  0.95240400  1
  C  1755  1  0.75624400  0.59686300  0.93864600  1
  C  1756  1  0.74561800  0.58816700  0.92254700  1
  C  1757  1  0.72506300  0.59183800  0.92031300  1
  C  1758  1  0.71477500  0.60333400  0.93432300  1
  C  1761  1  0.75443100  0.57396800  0.90980000  1
  C  1762  1  0.76532200  0.58086600  0.89323300  1
  C  1763  1  0.77528500  0.56740700  0.88080200  1
  C  1764  1  0.77479900  0.54695200  0.88501100  1
  C  1765  1  0.76342100  0.54002700  0.90121100  1
  C  1766  1  0.75330200  0.55324700  0.91400800  1
  C  1771  1  0.77785000  0.59376000  0.94246500  1
  C  1772  1  0.74156100  0.54551400  0.93125400  1
  C  1783  1  0.27486000  0.38227500  0.94464100  1
  C  1784  1  0.25441900  0.38544300  0.94770400  1
  C  1785  1  0.24330000  0.39795100  0.93503200  1
  C  1786  1  0.25319700  0.40696200  0.91863500  1
  C  1787  1  0.27352300  0.40297500  0.91508800  1
  C  1788  1  0.28434100  0.39073100  0.92804900  1
  C  1791  1  0.24390200  0.42170800  0.90689700  1
  C  1792  1  0.23204800  0.41548500  0.89073000  1
  C  1793  1  0.22142100  0.42943600  0.87945200  1
  C  1794  1  0.22219400  0.44970400  0.88444000  1
  C  1795  1  0.23449300  0.45597100  0.90023400  1
  C  1796  1  0.24530100  0.44223800  0.91188400  1
  C  1801  1  0.22207200  0.40147900  0.94032700  1
  C  1802  1  0.25803300  0.44924300  0.92873100  1
  C  1813  1  0.72400600  0.38228700  0.05147300  1
  C  1814  1  0.74463100  0.38501400  0.04944100  1
  C  1815  1  0.75534300  0.39743500  0.06254300  1
  C  1816  1  0.74482900  0.40674000  0.07838100  1
  C  1817  1  0.72431300  0.40306400  0.08102700  1
  C  1818  1  0.71391200  0.39098100  0.06759800  1
  C  1821  1  0.75373000  0.42155500  0.09032400  1
  C  1822  1  0.76498200  0.41544500  0.10695800  1
  C  1823  1  0.77517800  0.42948100  0.11851900  1
  C  1824  1  0.77457300  0.44971600  0.11337300  1
  C  1825  1  0.76285000  0.45586700  0.09710300  1
  C  1826  1  0.75249500  0.44204900  0.08515200  1
  C  1831  1  0.77682200  0.40066800  0.05815800  1
  C  1832  1  0.74039600  0.44894200  0.06779600  1
  C  1843  1  0.27308200  0.61158800  0.04683900  1
  C  1844  1  0.25240600  0.60893100  0.04507900  1
  C  1845  1  0.24161900  0.59721200  0.05877300  1
  C  1846  1  0.25210200  0.58846700  0.07493900  1
  C  1847  1  0.27265700  0.59205000  0.07730800  1
  C  1848  1  0.28309100  0.60348500  0.06335500  1
  C  1851  1  0.24315200  0.57430500  0.08763200  1
  C  1852  1  0.23220600  0.58124800  0.10414500  1
  C  1853  1  0.22217900  0.56782200  0.11656100  1
  C  1854  1  0.22264800  0.54735700  0.11240300  1
  C  1855  1  0.23407400  0.54039200  0.09624900  1
  C  1856  1  0.24425400  0.55357600  0.08346000  1
  C  1861  1  0.22002200  0.59421400  0.05482500  1
  C  1862  1  0.25605500  0.54579300  0.06627700  1
  C  1873  1  0.61129000  0.04663200  0.27290400  1
  C  1874  1  0.60855700  0.04483100  0.25224300  1
  C  1875  1  0.59682100  0.05851800  0.24146400  1
  C  1876  1  0.58813600  0.07472100  0.25193800  1
  C  1877  1  0.59176600  0.07711100  0.27248200  1
  C  1878  1  0.60322200  0.06316900  0.28290700  1
  C  1881  1  0.57404700  0.08748800  0.24297400  1
  C  1882  1  0.58109100  0.10393500  0.23198900  1
  C  1883  1  0.56774200  0.11642100  0.22194700  1
  C  1884  1  0.54725200  0.11239600  0.22244000  1
  C  1885  1  0.54018600  0.09630500  0.23389000  1
  C  1886  1  0.55329000  0.08345500  0.24409500  1
  C  1891  1  0.59376600  0.05454700  0.21987900  1
  C  1892  1  0.54540600  0.06634400  0.25593100  1
  C  1903  1  0.38158600  0.05277800  0.72249200  1
  C  1904  1  0.38479700  0.04983800  0.74294700  1
  C  1905  1  0.39727500  0.06262100  0.75397200  1
  C  1906  1  0.40622000  0.07898100  0.74395800  1
  C  1907  1  0.40217400  0.08241100  0.72362400  1
  C  1908  1  0.38994900  0.06935500  0.71290600  1
  C  1911  1  0.42103900  0.09074100  0.75310100  1
  C  1912  1  0.41492900  0.10710300  0.76474400  1
  C  1913  1  0.42897600  0.11849400  0.77512000  1
  C  1914  1  0.44922600  0.11343700  0.77430600  1
  C  1915  1  0.45537200  0.09742400  0.76223100  1
  C  1916  1  0.44154400  0.08565600  0.75167700  1
  C  1921  1  0.40086400  0.05746900  0.77522400  1
  C  1922  1  0.44842800  0.06860200  0.73915600  1
  C  1933  1  0.38347800  0.94626800  0.27323400  1
  C  1934  1  0.38586700  0.94810700  0.25254900  1
  C  1935  1  0.39808900  0.93490100  0.24174200  1
  C  1936  1  0.40749600  0.91910300  0.25222400  1
  C  1937  1  0.40407700  0.91657200  0.27279400  1
  C  1938  1  0.39222300  0.93013100  0.28328600  1
  C  1941  1  0.42225700  0.90717500  0.24321900  1
  C  1942  1  0.41607800  0.89066300  0.23182800  1
  C  1943  1  0.43004500  0.87925600  0.22136900  1
  C  1944  1  0.45027300  0.88444200  0.22186200  1
  C  1945  1  0.45650600  0.90054600  0.23376700  1
  C  1946  1  0.44275800  0.91235200  0.24437400  1
  C  1951  1  0.40105200  0.93917800  0.22020000  1
  C  1952  1  0.44973700  0.92957900  0.25660900  1
  C  1963  1  0.61163700  0.95065400  0.72497100  1
  C  1964  1  0.60892800  0.95223000  0.74565500  1
  C  1965  1  0.59712200  0.93848100  0.75627700  1
  C  1966  1  0.58834200  0.92245200  0.74561500  1
  C  1967  1  0.59198300  0.92025600  0.72505100  1
  C  1968  1  0.60350700  0.93426100  0.71478400  1
  C  1971  1  0.57406100  0.90977000  0.75439100  1
  C  1972  1  0.58085100  0.89309800  0.76519000  1
  C  1973  1  0.56730900  0.88070600  0.77508700  1
  C  1974  1  0.54688100  0.88504800  0.77463400  1
  C  1975  1  0.54006500  0.90135800  0.76334300  1
  C  1976  1  0.55337100  0.91412600  0.75329600  1
  C  1981  1  0.59406600  0.94224500  0.77789800  1
  C  1982  1  0.54575000  0.93148200  0.74164400  1
  C  1993  1  0.05270300  0.72272500  0.38188700  1
  C  1994  1  0.04995600  0.74324200  0.38483300  1
  C  1995  1  0.06275100  0.75428400  0.39728500  1
  C  1996  1  0.07895200  0.74422100  0.40646500  1
  C  1997  1  0.08221600  0.72381400  0.40266300  1
  C  1998  1  0.06913700  0.71308000  0.39047600  1
  C  2001  1  0.09068800  0.75341200  0.42127400  1
  C  2002  1  0.10711700  0.76495700  0.41516000  1
  C  2003  1  0.11850900  0.77535200  0.42919000  1
  C  2004  1  0.11337900  0.77467000  0.44942600  1
  C  2005  1  0.09728900  0.76270200  0.45558200  1
  C  2006  1  0.08552700  0.75211900  0.44176900  1
  C  2011  1  0.05774700  0.77561000  0.40063100  1
  C  2012  1  0.06839800  0.73970700  0.44866400  1
  C  2023  1  0.04652500  0.27293500  0.61147100  1
  C  2024  1  0.04475100  0.25227000  0.60873800  1
  C  2025  1  0.05845900  0.24151500  0.59700400  1
  C  2026  1  0.07466400  0.25201600  0.58835400  1
  C  2027  1  0.07704100  0.27255500  0.59200700  1
  C  2028  1  0.06306500  0.28296100  0.60343900  1
  C  2031  1  0.08742900  0.24308500  0.57424700  1
  C  2032  1  0.10387600  0.23208700  0.58126600  1
  C  2033  1  0.11634700  0.22205900  0.56789700  1
  C  2034  1  0.11231900  0.22259900  0.54740800  1
  C  2035  1  0.09623500  0.23407600  0.54036700  1
  C  2036  1  0.08338700  0.24425000  0.55349500  1
  C  2041  1  0.05449600  0.21993400  0.59391400  1
  C  2042  1  0.06627100  0.25609600  0.54563700  1
  C  2053  1  0.95056400  0.72485700  0.61160600  1
  C  2054  1  0.95215300  0.74554000  0.60889500  1
  C  2055  1  0.93841900  0.75617300  0.59708300  1
  C  2056  1  0.92239800  0.74551700  0.58827900  1
  C  2057  1  0.92019200  0.72495300  0.59190900  1
  C  2058  1  0.93418200  0.71467700  0.60344200  1
  C  2061  1  0.90969500  0.75432800  0.57403900  1
  C  2062  1  0.89305000  0.76513900  0.58088000  1
  C  2063  1  0.88065100  0.77508900  0.56738100  1
  C  2064  1  0.88495600  0.77466900  0.54694400  1
  C  2065  1  0.90123200  0.76336100  0.54007600  1
  C  2066  1  0.91400800  0.75326600  0.55333600  1
  C  2071  1  0.94219900  0.77779400  0.59403600  1
  C  2072  1  0.93133300  0.74160500  0.54566100  1
  C  2083  1  0.94475400  0.27474300  0.38242500  1
  C  2084  1  0.94752900  0.25421900  0.38528700  1
  C  2085  1  0.93481100  0.24312500  0.39777300  1
  C  2086  1  0.91863500  0.25313700  0.40705200  1
  C  2087  1  0.91533500  0.27355600  0.40333400  1
  C  2088  1  0.92836100  0.28434600  0.39114100  1
  C  2091  1  0.90692700  0.24384900  0.42182500  1
  C  2092  1  0.89063300  0.23214600  0.41564400  1
  C  2093  1  0.87937100  0.22152800  0.42961200  1
  C  2094  1  0.88450600  0.22213600  0.44984900  1
  C  2095  1  0.90042500  0.23429300  0.45607800  1
  C  2096  1  0.91206200  0.24509300  0.44232900  1
  C  2101  1  0.93987000  0.22179900  0.40103200  1
  C  2102  1  0.92904800  0.25765900  0.44929500  1
  N  701  1  0.36114100  0.28796400  0.94698400  1
  N  702  1  0.44386800  0.21159900  0.85617200  1
  N  731  1  0.63647000  0.71205400  0.94818600  1
  N  732  1  0.55351500  0.78483200  0.85478000  1
  N  761  1  0.63696100  0.28719100  0.04993400  1
  N  762  1  0.55378300  0.21313200  0.14218700  1
  N  791  1  0.36137900  0.71230900  0.04996000  1
  N  792  1  0.44427900  0.78528800  0.14330700  1
  N  821  1  0.94693200  0.36073400  0.28749000  1
  N  822  1  0.85601800  0.44395200  0.21179100  1
  N  851  1  0.94831800  0.63634500  0.71226900  1
  N  852  1  0.85452600  0.55320300  0.78434000  1
  N  881  1  0.05032500  0.63715700  0.28730300  1
  N  882  1  0.14191600  0.55375200  0.21269700  1
  N  911  1  0.04990500  0.36153900  0.71207000  1
  N  912  1  0.14325200  0.44410100  0.78542800  1
  N  941  1  0.28707500  0.94713100  0.36082900  1
  N  942  1  0.21187700  0.85567300  0.44390200  1
  N  971  1  0.71214700  0.94834300  0.63640000  1
  N  972  1  0.78455100  0.85478200  0.55328300  1
  N  1001  1  0.28765500  0.05004800  0.63700000  1
  N  1002  1  0.21288600  0.14196900  0.55410400  1
  N  1031  1  0.71213100  0.04991600  0.36160300  1
  N  1032  1  0.78551400  0.14319000  0.44422400  1
  N  1061  1  0.28543200  0.36174700  0.04922000  1
  N  1062  1  0.21304900  0.44444700  0.14324000  1
  N  1091  1  0.71031900  0.63695100  0.05057500  1
  N  1092  1  0.78518700  0.55347200  0.14189100  1
  N  1121  1  0.28826100  0.63677700  0.94726000  1
  N  1122  1  0.21163500  0.55383400  0.85695100  1
  N  1151  1  0.71174500  0.36163700  0.94807600  1
  N  1152  1  0.78545600  0.44405200  0.85490200  1
  N  1181  1  0.36119300  0.94789700  0.71233000  1
  N  1182  1  0.44402500  0.85422800  0.78490500  1
  N  1211  1  0.63699000  0.94736600  0.28804200  1
  N  1212  1  0.55421600  0.85681400  0.21153700  1
  N  1241  1  0.63696100  0.05056100  0.71037800  1
  N  1242  1  0.55316400  0.14160400  0.78523900  1
  N  1271  1  0.36271000  0.04910900  0.28654900  1
  N  1272  1  0.44433800  0.14292000  0.21262600  1
  N  1301  1  0.94718400  0.28805700  0.63704200  1
  N  1302  1  0.85691600  0.21173800  0.55379800  1
  N  1331  1  0.94800700  0.71164500  0.36198100  1
  N  1332  1  0.85458300  0.78534300  0.44414200  1
  N  1361  1  0.04922200  0.28607000  0.36251800  1
  N  1362  1  0.14326000  0.21281600  0.44446000  1
  N  1391  1  0.05041000  0.71028800  0.63699400  1
  N  1392  1  0.14150100  0.78533300  0.55343700  1
  N  1421  1  0.62618900  0.71298200  0.03952100  1
  N  1422  1  0.53515400  0.78342200  0.12526300  1
  N  1451  1  0.37566300  0.28175000  0.03235000  1
  N  1452  1  0.46316200  0.21483900  0.12465100  1
  N  1481  1  0.37186200  0.71282800  0.95837700  1
  N  1482  1  0.46228700  0.78378900  0.87238900  1
  N  1511  1  0.62132800  0.28134700  0.96456000  1
  N  1512  1  0.53411800  0.21311600  0.87304100  1
  N  1541  1  0.03945800  0.62596200  0.71333600  1
  N  1542  1  0.12534600  0.53491500  0.78364500  1
  N  1571  1  0.03232300  0.37575800  0.28144700  1
  N  1572  1  0.12485100  0.46313500  0.21469100  1
  N  1601  1  0.95832400  0.37188700  0.71267500  1
  N  1602  1  0.87256100  0.46238200  0.78381100  1
  N  1631  1  0.96501100  0.62156000  0.28142900  1
  N  1632  1  0.87313900  0.53445300  0.21346100  1
  N  1661  1  0.71321800  0.03948500  0.62602400  1
  N  1662  1  0.78362600  0.12537400  0.53505300  1
  N  1691  1  0.28115900  0.03281500  0.37569100  1
  N  1692  1  0.21458500  0.12490500  0.46344700  1
  N  1721  1  0.71279200  0.95843100  0.37190200  1
  N  1722  1  0.78382800  0.87262400  0.46245100  1
  N  1751  1  0.28162800  0.96480600  0.62154100  1
  N  1752  1  0.21345600  0.87309900  0.53437300  1
  N  1781  1  0.71618300  0.62139500  0.96520400  1
  N  1782  1  0.78362600  0.53439700  0.87275700  1
  N  1811  1  0.28466400  0.37204500  0.95812000  1
  N  1812  1  0.21280600  0.46268100  0.87308300  1
  N  1841  1  0.71485800  0.37227200  0.03738100  1
  N  1842  1  0.78355600  0.46274800  0.12498700  1
  N  1871  1  0.28197000  0.62153500  0.03245500  1
  N  1872  1  0.21384500  0.53485600  0.12473200  1
  N  1901  1  0.62131700  0.03229200  0.28177700  1
  N  1902  1  0.53481400  0.12476000  0.21359400  1
  N  1931  1  0.37144900  0.03919300  0.71274200  1
  N  1932  1  0.46227800  0.12492100  0.78343000  1
  N  1961  1  0.37373100  0.96060100  0.28230400  1
  N  1962  1  0.46324800  0.87301400  0.21257800  1
  N  1991  1  0.62162400  0.96510800  0.71624400  1
  N  1992  1  0.53426500  0.87278300  0.78335800  1
  N  2021  1  0.03902700  0.71306100  0.37178900  1
  N  2022  1  0.12487400  0.78379200  0.46247100  1
  N  2051  1  0.03215900  0.28179700  0.62146100  1
  N  2052  1  0.12467100  0.21375800  0.53496100  1
  N  2081  1  0.96500200  0.71612800  0.62161700  1
  N  2082  1  0.87269500  0.78345100  0.53436400  1
  N  2111  1  0.95839100  0.28441500  0.37227500  1
  N  2112  1  0.87314100  0.21278200  0.46284100  1
  O  17  1  0.32978000  0.35458000  0.96814800  1
  O  18  1  0.35162400  0.33249700  0.02768600  1
  O  45  1  0.66537400  0.64566900  0.96996500  1
  O  46  1  0.64371100  0.66760600  0.02955100  1
  O  73  1  0.66709800  0.35377100  0.02899800  1
  O  74  1  0.64514000  0.33222600  0.96941400  1
  O  101  1  0.33280500  0.64580600  0.02810000  1
  O  102  1  0.35491000  0.66788500  0.96867900  1
  O  129  1  0.96773900  0.33024500  0.35414500  1
  O  130  1  0.02743500  0.35210500  0.33239900  1
  O  157  1  0.96986600  0.66531600  0.64594400  1
  O  158  1  0.02957500  0.64372500  0.66765100  1
  O  185  1  0.02946200  0.66736300  0.35404500  1
  O  186  1  0.96987500  0.64529600  0.33241000  1
  O  213  1  0.02782600  0.33272200  0.64557400  1
  O  214  1  0.96851400  0.35482500  0.66782600  1
  O  241  1  0.35365600  0.96782800  0.33113200  1
  O  242  1  0.33212000  0.02760500  0.35278100  1
  O  269  1  0.64582500  0.96997700  0.66543600  1
  O  270  1  0.66759000  0.02964400  0.64378800  1
  O  297  1  0.35434800  0.02886800  0.66777000  1
  O  298  1  0.33245000  0.96942400  0.64578300  1
  O  325  1  0.64561700  0.02798300  0.33273100  1
  O  326  1  0.66777800  0.96859000  0.35476400  1
  O  353  1  0.82661800  0.85152900  0.47070200  1
  O  354  1  0.85081600  0.82691900  0.52689200  1
  O  381  1  0.17170900  0.14702600  0.47105700  1
  O  382  1  0.14712900  0.17086200  0.52739300  1
  O  409  1  0.17022100  0.85117200  0.52686900  1
  O  410  1  0.14596200  0.82667000  0.47038900  1
  O  437  1  0.82713900  0.14567900  0.52714000  1
  O  438  1  0.85191600  0.17001100  0.47077100  1
  O  465  1  0.47038400  0.82653000  0.85115400  1
  O  466  1  0.52661000  0.85100300  0.82683000  1
  O  493  1  0.47081500  0.17183100  0.14684100  1
  O  494  1  0.52724100  0.14736800  0.17068700  1
  O  521  1  0.52665800  0.16993600  0.85107700  1
  O  522  1  0.47019900  0.14572400  0.82642600  1
  O  549  1  0.52724900  0.82678300  0.14552400  1
  O  550  1  0.47099300  0.85158500  0.16989800  1
  O  577  1  0.85157800  0.47075300  0.82663100  1
  O  578  1  0.82698000  0.52697900  0.85069200  1
  O  605  1  0.14721500  0.47064300  0.17171500  1
  O  606  1  0.17088000  0.52707800  0.14710400  1
  O  633  1  0.85104100  0.52704700  0.17038900  1
  O  634  1  0.82656300  0.47061900  0.14605400  1
  O  661  1  0.14562200  0.52695300  0.82717000  1
  O  662  1  0.17008100  0.47056100  0.85185100  1
  O  693  1  0.46296500  0.26556000  0.90592300  1
  O  697  1  0.38631700  0.21455400  0.94222300  1
  O  723  1  0.53509800  0.73226500  0.90631400  1
  O  727  1  0.60985000  0.78482900  0.94196000  1
  O  753  1  0.53520300  0.26630000  0.09137300  1
  O  757  1  0.61089600  0.21418100  0.05558300  1
  O  783  1  0.46256900  0.73183000  0.09265400  1
  O  787  1  0.38832100  0.78498900  0.05596800  1
  O  813  1  0.90615800  0.46274500  0.26550900  1
  O  817  1  0.94204500  0.38630800  0.21423200  1
  O  843  1  0.90627900  0.53496900  0.73192200  1
  O  847  1  0.94182800  0.60949800  0.78494300  1
  O  873  1  0.09133400  0.53521700  0.26609000  1
  O  877  1  0.05548100  0.61113200  0.21422900  1
  O  903  1  0.09270900  0.46263600  0.73195000  1
  O  907  1  0.05589200  0.38822700  0.78484200  1
  O  933  1  0.26545900  0.90596200  0.46272500  1
  O  937  1  0.21392300  0.94193000  0.38659900  1
  O  963  1  0.73192000  0.90630800  0.53504600  1
  O  967  1  0.78486300  0.94203700  0.60961100  1
  O  993  1  0.26626400  0.09147700  0.53526700  1
  O  997  1  0.21451200  0.05543400  0.61122900  1
  O  1023  1  0.73200200  0.09267100  0.46271800  1
  O  1027  1  0.78490300  0.05585800  0.38830700  1
  O  1053  1  0.26546200  0.46312000  0.09164400  1
  O  1057  1  0.21261300  0.38813800  0.05602400  1
  O  1083  1  0.73154400  0.53506500  0.09151800  1
  O  1087  1  0.78345500  0.61104900  0.05568600  1
  O  1113  1  0.26528400  0.53484700  0.90708600  1
  O  1117  1  0.21479000  0.61180700  0.94258800  1
  O  1143  1  0.73220700  0.46291500  0.90553800  1
  O  1147  1  0.78465500  0.38794500  0.94214600  1
  O  1173  1  0.46256500  0.90537800  0.73201700  1
  O  1177  1  0.38802200  0.94174200  0.78504000  1
  O  1203  1  0.53501600  0.90674100  0.26532200  1
  O  1207  1  0.61177800  0.94260200  0.21466200  1
  O  1233  1  0.53496000  0.09122300  0.73154400  1
  O  1237  1  0.61100200  0.05559600  0.78349700  1
  O  1263  1  0.46347300  0.09177700  0.26528800  1
  O  1267  1  0.38803700  0.05568700  0.21332700  1
  O  1293  1  0.90705000  0.26542500  0.53489900  1
  O  1297  1  0.94257200  0.21468900  0.61175300  1
  O  1323  1  0.90530800  0.73213400  0.46285200  1
  O  1327  1  0.94205400  0.78467700  0.38802800  1
  O  1353  1  0.09176400  0.26522700  0.46336900  1
  O  1357  1  0.05597600  0.21293500  0.38806800  1
  O  1383  1  0.09111000  0.73172900  0.53496700  1
  O  1387  1  0.05552100  0.78342500  0.61113700  1
  O  1413  1  0.52820400  0.73964500  0.06439800  1
  O  1417  1  0.61514400  0.78606000  0.05924300  1
  O  1443  1  0.47232600  0.25581500  0.06227100  1
  O  1447  1  0.38451600  0.20991600  0.05649300  1
  O  1473  1  0.46965300  0.73973500  0.93299400  1
  O  1477  1  0.38276700  0.78606500  0.93910300  1
  O  1503  1  0.52458400  0.25507100  0.93469200  1
  O  1507  1  0.61275400  0.20950100  0.94042100  1
  O  1533  1  0.06432300  0.52791900  0.74009500  1
  O  1537  1  0.05957000  0.61507000  0.78630700  1
  O  1563  1  0.06253100  0.47248300  0.25568600  1
  O  1567  1  0.05662600  0.38471700  0.20968300  1
  O  1593  1  0.93293400  0.46972000  0.73941600  1
  O  1597  1  0.93929700  0.38292800  0.78596200  1
  O  1623  1  0.93482100  0.52477900  0.25533900  1
  O  1627  1  0.94084400  0.61283300  0.20959600  1
  O  1653  1  0.74001700  0.06440600  0.52797800  1
  O  1657  1  0.78621500  0.05948800  0.61511000  1
  O  1683  1  0.25564200  0.06251900  0.47215800  1
  O  1687  1  0.20943700  0.05733800  0.38443300  1
  O  1713  1  0.73959900  0.93311600  0.46976000  1
  O  1717  1  0.78603800  0.93922500  0.38287000  1
  O  1743  1  0.25537100  0.93476100  0.52468500  1
  O  1747  1  0.20973100  0.94088000  0.61275300  1
  O  1773  1  0.74215600  0.52449600  0.93467200  1
  O  1777  1  0.78796800  0.61241100  0.94105400  1
  O  1803  1  0.25776300  0.47011500  0.93298000  1
  O  1807  1  0.21139000  0.38312700  0.93914100  1
  O  1833  1  0.74088200  0.46977400  0.06337400  1
  O  1837  1  0.78720600  0.38219000  0.05988500  1
  O  1863  1  0.25541300  0.52477400  0.06287400  1
  O  1867  1  0.20998600  0.61291500  0.05617600  1
  O  1893  1  0.52436400  0.06308100  0.25531300  1
  O  1897  1  0.61244100  0.05588000  0.20979500  1
  O  1923  1  0.46928400  0.06427500  0.73939400  1
  O  1927  1  0.38252000  0.05858800  0.78592400  1
  O  1953  1  0.47056000  0.93403100  0.25600300  1
  O  1957  1  0.38244400  0.93738900  0.21006500  1
  O  1983  1  0.52475800  0.93504200  0.74226800  1
  O  1987  1  0.61272900  0.94075800  0.78798300  1
  O  2013  1  0.06398300  0.74010100  0.46950000  1
  O  2017  1  0.05908100  0.78612300  0.38219300  1
  O  2043  1  0.06299800  0.25551200  0.52459600  1
  O  2047  1  0.05581500  0.20982100  0.61257600  1
  O  2073  1  0.93485100  0.74226000  0.52466300  1
  O  2077  1  0.94068300  0.78787400  0.61269900  1
  O  2103  1  0.93345600  0.25720900  0.47013200  1
  O  2107  1  0.93840200  0.21132600  0.38258100  1
