# generated using pymatgen
data_H7C18(NO2)4
_symmetry_space_group_name_H-M   'P 1'
_cell_length_a   32.87490000
_cell_length_b   56.36480000
_cell_length_c   56.36480000
_cell_angle_alpha   90.00000000
_cell_angle_beta   90.00000000
_cell_angle_gamma   90.00000000
_symmetry_Int_Tables_number   1
_chemical_formula_structural   H7C18(NO2)4
_chemical_formula_sum   'H224 C576 N128 O256'
_cell_volume   104443.25087437
_cell_formula_units_Z   32
loop_
 _symmetry_equiv_pos_site_id
 _symmetry_equiv_pos_as_xyz
  1  'x, y, z'
loop_
 _atom_site_type_symbol
 _atom_site_label
 _atom_site_symmetry_multiplicity
 _atom_site_fract_x
 _atom_site_fract_y
 _atom_site_fract_z
 _atom_site_occupancy
  H  7  1  0.82367100  0.16529200  0.36977200  1
  H  8  1  0.92681400  0.13493200  0.40221100  1
  H  9  1  0.87224000  0.19559600  0.43158500  1
  H  16  1  0.86423700  0.15156000  0.33649600  1
  H  17  1  0.87732000  0.07977000  0.31846300  1
  H  18  1  0.88813400  0.10080500  0.38954700  1
  H  25  1  0.32376100  0.32983000  0.61113700  1
  H  26  1  0.42684900  0.36019000  0.57863800  1
  H  27  1  0.37221100  0.29953100  0.54928800  1
  H  34  1  0.36433300  0.34357800  0.64439000  1
  H  35  1  0.37742500  0.41537500  0.66239400  1
  H  36  1  0.38822000  0.39431400  0.59132000  1
  H  43  1  0.05823800  0.85964500  0.90453900  1
  H  44  1  0.16096100  0.83217600  0.86935500  1
  H  45  1  0.11644200  0.79868000  0.93071300  1
  H  52  1  0.10066400  0.89484300  0.89191400  1
  H  53  1  0.11174500  0.91723500  0.82115000  1
  H  54  1  0.11226500  0.84456700  0.83715300  1
  H  61  1  0.55827400  0.63549100  0.07638700  1
  H  62  1  0.66098800  0.66292800  0.11160300  1
  H  63  1  0.61652200  0.69645700  0.05024900  1
  H  70  1  0.60065000  0.60027800  0.08901200  1
  H  71  1  0.61174400  0.57785900  0.15976700  1
  H  72  1  0.61228800  0.65053200  0.14378900  1
  H  79  1  0.67068500  0.33583400  0.37404800  1
  H  80  1  0.56583600  0.36414400  0.40639800  1
  H  81  1  0.62392600  0.30494600  0.43619100  1
  H  88  1  0.62784100  0.34699200  0.34056900  1
  H  89  1  0.61329500  0.41819600  0.32075200  1
  H  90  1  0.60305300  0.39885200  0.39238200  1
  H  97  1  0.17054100  0.15933900  0.60688800  1
  H  98  1  0.06568100  0.13108500  0.57450100  1
  H  99  1  0.12389300  0.19025400  0.54472900  1
  H  106  1  0.12765200  0.14818200  0.64035800  1
  H  107  1  0.11312400  0.07696000  0.66012000  1
  H  108  1  0.10286700  0.09636100  0.58850400  1
  H  115  1  0.43351900  0.63787600  0.90221500  1
  H  116  1  0.33438900  0.66701100  0.86491300  1
  H  117  1  0.37651200  0.69996900  0.92694500  1
  H  124  1  0.39139900  0.60322800  0.88982000  1
  H  125  1  0.38239500  0.57942400  0.81944300  1
  H  126  1  0.38232800  0.65240200  0.83391300  1
  H  133  1  0.93341800  0.85731200  0.07868700  1
  H  134  1  0.83434800  0.82817500  0.11604200  1
  H  135  1  0.87642300  0.79519200  0.05401400  1
  H  142  1  0.89134900  0.89196200  0.09107800  1
  H  143  1  0.88233900  0.91580800  0.16144000  1
  H  144  1  0.88226000  0.84281900  0.14701300  1
  H  151  1  0.18749800  0.83196700  0.60192400  1
  H  152  1  0.08319500  0.86765600  0.57720600  1
  H  153  1  0.12643800  0.80736400  0.54128900  1
  H  160  1  0.14893100  0.84396400  0.63835600  1
  H  161  1  0.14021100  0.91433700  0.66217100  1
  H  162  1  0.13121600  0.89954100  0.58948200  1
  H  169  1  0.68744000  0.66321600  0.37900100  1
  H  170  1  0.58313800  0.62754100  0.40374300  1
  H  171  1  0.62648400  0.68779500  0.43968300  1
  H  178  1  0.64887800  0.65124600  0.34258100  1
  H  179  1  0.64013000  0.58089000  0.31872900  1
  H  180  1  0.63110200  0.59564900  0.39142500  1
  H  187  1  0.91938300  0.12572900  0.07176300  1
  H  188  1  0.82091800  0.16011400  0.10495900  1
  H  189  1  0.87548300  0.19019900  0.04449400  1
  H  196  1  0.86698700  0.09345700  0.08424200  1
  H  197  1  0.86547800  0.07341300  0.15607300  1
  H  198  1  0.86979500  0.14556100  0.13781100  1
  H  205  1  0.41933500  0.36946300  0.90912100  1
  H  206  1  0.32089800  0.33507800  0.87589700  1
  H  207  1  0.37543200  0.30498300  0.93636500  1
  H  214  1  0.36696400  0.40173700  0.89663300  1
  H  215  1  0.36550700  0.42179000  0.82480400  1
  H  216  1  0.36979600  0.34964000  0.84305500  1
  H  223  1  0.31216500  0.66022500  0.59969700  1
  H  224  1  0.41146000  0.62202700  0.57190900  1
  H  225  1  0.37023700  0.68341800  0.53741400  1
  H  232  1  0.35060200  0.64809300  0.63502100  1
  H  233  1  0.35684400  0.57805100  0.65992300  1
  H  234  1  0.36500200  0.59148100  0.58694700  1
  H  241  1  0.81226400  0.83490100  0.38121500  1
  H  242  1  0.91156200  0.87309400  0.40900600  1
  H  243  1  0.87029400  0.81172200  0.44351700  1
  H  250  1  0.85068300  0.84702600  0.34588800  1
  H  251  1  0.85691600  0.91706400  0.32098100  1
  H  252  1  0.86512200  0.90363700  0.39395900  1
  H  259  1  0.57759300  0.36584700  0.07531900  1
  H  260  1  0.67637600  0.33273500  0.10936300  1
  H  261  1  0.62541100  0.30206300  0.04832400  1
  H  268  1  0.62900000  0.39889600  0.08717400  1
  H  269  1  0.62746100  0.42014200  0.15863800  1
  H  270  1  0.62631100  0.34763700  0.14155900  1
  H  277  1  0.07769500  0.12928200  0.90560000  1
  H  278  1  0.17643100  0.16239200  0.87150700  1
  H  279  1  0.12551600  0.19308700  0.93254900  1
  H  286  1  0.12908000  0.09623100  0.89374100  1
  H  287  1  0.12746100  0.07496000  0.82228500  1
  H  288  1  0.12634100  0.14747100  0.83933500  1
  H  295  1  0.76457100  0.18146600  0.40613000  1
  H  302  1  0.67128100  0.29140600  0.36716000  1
  H  303  1  0.69937300  0.30103900  0.43942500  1
  H  304  1  0.86133200  0.22806100  0.39109400  1
  H  323  1  0.26461100  0.31365700  0.57476000  1
  H  330  1  0.17123500  0.20377800  0.61376700  1
  H  331  1  0.19933400  0.19410400  0.54150700  1
  H  332  1  0.36136400  0.26706800  0.58982400  1
  H  351  1  0.00357500  0.82281400  0.92121800  1
  H  358  1  0.92505600  0.86275400  0.03472200  1
  H  359  1  0.94997400  0.79007400  0.04418700  1
  H  360  1  0.10494000  0.83587500  0.96497700  1
  H  379  1  0.50364000  0.67233300  0.05970100  1
  H  386  1  0.42519400  0.63241700  0.94618700  1
  H  387  1  0.45009100  0.70510000  0.93673600  1
  H  388  1  0.60504200  0.65927900  0.01597200  1
  H  407  1  0.24045900  0.81665900  0.56430100  1
  H  414  1  0.32058800  0.70413000  0.60448100  1
  H  415  1  0.29714800  0.69352900  0.53178100  1
  H  416  1  0.14010500  0.77200700  0.57699900  1
  H  435  1  0.74045900  0.67849000  0.41665000  1
  H  442  1  0.82064800  0.79099300  0.37644800  1
  H  443  1  0.79721300  0.80162300  0.44914400  1
  H  444  1  0.64013000  0.72315900  0.40394000  1
  H  463  1  0.98091000  0.16309800  0.05825200  1
  H  470  1  0.07753200  0.12395600  0.94937700  1
  H  471  1  0.05158900  0.19638900  0.93906200  1
  H  472  1  0.88579500  0.14989100  0.01001600  1
  H  491  1  0.48085900  0.33207600  0.92264200  1
  H  498  1  0.57741900  0.37119300  0.03153700  1
  H  499  1  0.55146700  0.29875800  0.04183200  1
  H  500  1  0.38570800  0.34529000  0.97085000  1
  H  519  1  0.27244900  0.68150000  0.89829900  1
  H  526  1  0.16650000  0.78835100  0.86098700  1
  H  527  1  0.19140100  0.79625300  0.93383500  1
  H  528  1  0.36441800  0.73217400  0.88674700  1
  H  547  1  0.77238000  0.81363800  0.08266900  1
  H  554  1  0.66652700  0.70675700  0.11998800  1
  H  555  1  0.69148200  0.69887100  0.04714400  1
  H  556  1  0.86442300  0.76301600  0.09424700  1
  H  575  1  0.51156400  0.32907100  0.42282300  1
  H  582  1  0.42266000  0.36756700  0.53423300  1
  H  583  1  0.44707700  0.29470200  0.54276300  1
  H  584  1  0.60927700  0.34190900  0.46941400  1
  H  603  1  0.01146200  0.16616700  0.55802600  1
  H  610  1  0.92271700  0.12757500  0.44663400  1
  H  611  1  0.94711800  0.20043600  0.43804900  1
  H  612  1  0.10927100  0.15329100  0.51151600  1
  H  631  1  0.73459700  0.31616200  0.07591400  1
  H  638  1  0.82462000  0.20404200  0.11318300  1
  H  639  1  0.80107700  0.19771000  0.04002400  1
  H  640  1  0.63674400  0.26914900  0.08649100  1
  H  659  1  0.23467700  0.17900400  0.90494700  1
  H  666  1  0.32461300  0.29114600  0.86766500  1
  H  667  1  0.30103200  0.29746800  0.94082000  1
  H  668  1  0.13677400  0.22597600  0.89435000  1
  H  687  1  0.47407300  0.65442000  0.55594700  1
  H  694  1  0.57745600  0.61793200  0.44769800  1
  H  695  1  0.55098000  0.69072100  0.44114100  1
  H  696  1  0.38052800  0.64252900  0.50634100  1
  H  715  1  0.97415700  0.84067800  0.42501000  1
  H  722  1  0.07747200  0.87723100  0.53324500  1
  H  723  1  0.05093600  0.80445500  0.53985500  1
  H  724  1  0.88055700  0.85263700  0.47456300  1
  H  743  1  0.91709500  0.09399800  0.18362700  1
  H  750  1  0.81858200  0.09487900  0.29395900  1
  H  751  1  0.90413400  0.15034800  0.29765400  1
  H  752  1  0.81811100  0.14026600  0.17375200  1
  H  771  1  0.41713300  0.40120500  0.79725900  1
  H  778  1  0.31869900  0.40028700  0.68690100  1
  H  779  1  0.40425100  0.34482000  0.68323200  1
  H  780  1  0.31813600  0.35493800  0.80710900  1
  H  799  1  0.17697000  0.04752200  0.84375400  1
  H  806  1  0.05980200  0.94469500  0.83869800  1
  H  807  1  0.14446400  0.93101600  0.89303300  1
  H  808  1  0.07817200  0.06032000  0.88939800  1
  H  827  1  0.67693000  0.44758800  0.13717000  1
  H  834  1  0.55978900  0.55042400  0.14222600  1
  H  835  1  0.64445200  0.56409700  0.08789300  1
  H  836  1  0.57811300  0.43480200  0.09153800  1
  H  855  1  0.57577100  0.39950500  0.18600600  1
  H  862  1  0.67223400  0.40291700  0.29671400  1
  H  863  1  0.58834900  0.34668500  0.30168900  1
  H  864  1  0.67651000  0.35417300  0.17799600  1
  H  883  1  0.07574100  0.09559200  0.79492900  1
  H  890  1  0.17203900  0.09221100  0.68416200  1
  H  891  1  0.08816200  0.14844800  0.67924200  1
  H  892  1  0.17649900  0.14092000  0.80288500  1
  H  911  1  0.31632700  0.44922900  0.84605000  1
  H  918  1  0.43295700  0.55212000  0.83772000  1
  H  919  1  0.34854000  0.56721800  0.89181600  1
  H  920  1  0.41619000  0.43805000  0.89132800  1
  H  939  1  0.81631600  0.04597500  0.13482800  1
  H  946  1  0.93291900  0.94308200  0.14316200  1
  H  947  1  0.84849600  0.92798100  0.08907400  1
  H  948  1  0.91619800  0.05714300  0.08956100  1
  H  967  1  0.07254600  0.89796200  0.78825000  1
  H  974  1  0.19647000  0.89603900  0.68699100  1
  H  975  1  0.10700000  0.84366900  0.67632900  1
  H  976  1  0.16633000  0.85037500  0.80602000  1
  H  995  1  0.57259500  0.59712700  0.19269000  1
  H  1002  1  0.69645300  0.59916700  0.29397100  1
  H  1003  1  0.60694100  0.65151900  0.30457500  1
  H  1004  1  0.66635700  0.64472200  0.17489800  1
  H  1023  1  0.42325000  0.59790700  0.78671700  1
  H  1030  1  0.30168600  0.59717600  0.68450200  1
  H  1031  1  0.39167300  0.64904900  0.67288500  1
  H  1032  1  0.32905700  0.64600300  0.80224200  1
  H  1051  1  0.92315800  0.89733700  0.19419100  1
  H  1058  1  0.80170900  0.89795800  0.29645700  1
  H  1059  1  0.89174800  0.84610100  0.30799200  1
  H  1060  1  0.82898200  0.84922800  0.17866300  1
  H  1079  1  0.67737700  0.54791700  0.33908400  1
  H  1086  1  0.55800300  0.44395500  0.33600800  1
  H  1087  1  0.64094800  0.43672900  0.39250100  1
  H  1088  1  0.57714600  0.56461500  0.38243000  1
  H  1107  1  0.17747200  0.94731200  0.64179600  1
  H  1114  1  0.05790700  0.05119500  0.64486900  1
  H  1115  1  0.14081000  0.05849800  0.58837500  1
  H  1116  1  0.07724100  0.93056000  0.59846800  1
  H  1135  1  0.81733800  0.94962200  0.34087300  1
  H  1142  1  0.93300100  0.05460000  0.33422500  1
  H  1143  1  0.85062200  0.06287200  0.39086000  1
  H  1144  1  0.91857400  0.93535400  0.38429000  1
  H  1163  1  0.31726000  0.54547700  0.64002800  1
  H  1170  1  0.43304800  0.44054700  0.64664500  1
  H  1171  1  0.35069300  0.43224000  0.59001200  1
  H  1172  1  0.41849000  0.55979000  0.59661600  1
  C  1  1  0.87520300  0.14710500  0.38335700  1
  C  2  1  0.84525600  0.16512800  0.38288600  1
  C  3  1  0.84480900  0.18321000  0.40013100  1
  C  4  1  0.87363600  0.18286600  0.41860700  1
  C  5  1  0.90337300  0.16487700  0.41989500  1
  C  6  1  0.90417700  0.14742100  0.40192700  1
  C  10  1  0.87615200  0.12897700  0.36571600  1
  C  11  1  0.86937500  0.13435200  0.34151000  1
  C  12  1  0.86915300  0.11646500  0.32399900  1
  C  13  1  0.87727800  0.09288100  0.33106200  1
  C  14  1  0.88496100  0.08681200  0.35497500  1
  C  15  1  0.88365900  0.10507700  0.37208000  1
  C  19  1  0.37527100  0.34801700  0.59752200  1
  C  20  1  0.34531800  0.32999700  0.59800800  1
  C  21  1  0.34484400  0.31191300  0.58076400  1
  C  22  1  0.37363500  0.31225900  0.56226800  1
  C  23  1  0.40336600  0.33024900  0.56096000  1
  C  24  1  0.40420800  0.34770100  0.57893400  1
  C  28  1  0.37624500  0.36614900  0.61515900  1
  C  29  1  0.36947700  0.36078400  0.63936900  1
  C  30  1  0.36925100  0.37867600  0.65687300  1
  C  31  1  0.37737900  0.40225800  0.64980300  1
  C  32  1  0.38506600  0.40831700  0.62588600  1
  C  33  1  0.38375200  0.39004700  0.60878800  1
  C  37  1  0.10860100  0.84831900  0.88400100  1
  C  38  1  0.08068200  0.84711100  0.90301100  1
  C  39  1  0.08386000  0.82915500  0.92031300  1
  C  40  1  0.11482400  0.81197000  0.91832600  1
  C  41  1  0.14303000  0.81254100  0.89944000  1
  C  42  1  0.13959600  0.83094800  0.88253900  1
  C  46  1  0.10665400  0.86697100  0.86703500  1
  C  47  1  0.10302700  0.89092900  0.87422000  1
  C  48  1  0.10372800  0.90966100  0.85756300  1
  C  49  1  0.10870900  0.90383100  0.83330400  1
  C  50  1  0.11196900  0.88009100  0.82543600  1
  C  51  1  0.11054200  0.86189100  0.84258900  1
  C  55  1  0.60862600  0.64680100  0.09694100  1
  C  56  1  0.58072900  0.64801700  0.07792000  1
  C  57  1  0.58392000  0.66598200  0.06063100  1
  C  58  1  0.61488600  0.68316500  0.06263400  1
  C  59  1  0.64308400  0.68257700  0.08152300  1
  C  60  1  0.63963100  0.66416500  0.09841500  1
  C  64  1  0.60666400  0.62814100  0.11389900  1
  C  65  1  0.60302900  0.60418600  0.10670600  1
  C  66  1  0.60371300  0.58544900  0.12335700  1
  C  67  1  0.60871100  0.59126800  0.14761700  1
  C  68  1  0.61199000  0.61500500  0.15549300  1
  C  69  1  0.61055700  0.63321000  0.13834600  1
  C  73  1  0.61769300  0.35256600  0.38725600  1
  C  74  1  0.64899400  0.33532700  0.38708800  1
  C  75  1  0.65171000  0.31763800  0.40477600  1
  C  76  1  0.62302600  0.31787600  0.42340100  1
  C  77  1  0.59184400  0.33499700  0.42418500  1
  C  78  1  0.58896600  0.35196100  0.40591100  1
  C  82  1  0.61542400  0.37021400  0.36920200  1
  C  83  1  0.62214100  0.36426800  0.34512900  1
  C  84  1  0.62192200  0.38169600  0.32717600  1
  C  85  1  0.61342900  0.40539900  0.33366600  1
  C  86  1  0.60576000  0.41202700  0.35744300  1
  C  87  1  0.60736300  0.39419000  0.37500200  1
  C  91  1  0.11752600  0.14264300  0.59366500  1
  C  92  1  0.14884300  0.15987000  0.59385200  1
  C  93  1  0.15161300  0.17755200  0.57616000  1
  C  94  1  0.12295100  0.17732900  0.55752400  1
  C  95  1  0.09174100  0.16022600  0.55672700  1
  C  96  1  0.08881700  0.14326200  0.57500100  1
  C  100  1  0.11523500  0.12498300  0.61170900  1
  C  101  1  0.12194600  0.13090900  0.63578600  1
  C  102  1  0.12173100  0.11346600  0.65372600  1
  C  103  1  0.11325000  0.08976700  0.64721500  1
  C  104  1  0.10557400  0.08316100  0.62343400  1
  C  105  1  0.10717300  0.10101200  0.60588900  1
  C  109  1  0.38457900  0.64962200  0.88095700  1
  C  110  1  0.41146000  0.65060700  0.90050400  1
  C  111  1  0.40899900  0.66891100  0.91759500  1
  C  112  1  0.37956900  0.68688700  0.91442400  1
  C  113  1  0.35256700  0.68643300  0.89501100  1
  C  114  1  0.35484500  0.66761200  0.87862700  1
  C  118  1  0.38645900  0.63062500  0.86434500  1
  C  119  1  0.38957400  0.60679100  0.87203400  1
  C  120  1  0.38927000  0.58770400  0.85578100  1
  C  121  1  0.38515100  0.59305900  0.83136200  1
  C  122  1  0.38248600  0.61664200  0.82297400  1
  C  123  1  0.38351800  0.63519700  0.83975400  1
  C  127  1  0.88450500  0.84556900  0.09996900  1
  C  128  1  0.91137000  0.84457700  0.08041400  1
  C  129  1  0.90889400  0.82626800  0.06333100  1
  C  130  1  0.87947100  0.80829200  0.06651600  1
  C  131  1  0.85250500  0.80874300  0.08594600  1
  C  132  1  0.85478600  0.82757400  0.10232100  1
  C  136  1  0.88639100  0.86457900  0.11656800  1
  C  137  1  0.88950900  0.88840800  0.10886600  1
  C  138  1  0.88922300  0.90750300  0.12510800  1
  C  139  1  0.88509200  0.90216700  0.14953000  1
  C  140  1  0.88241200  0.87858600  0.15793200  1
  C  141  1  0.88344600  0.86002200  0.14116300  1
  C  145  1  0.13630800  0.85262100  0.59217300  1
  C  146  1  0.16428400  0.83373200  0.58991100  1
  C  147  1  0.16036900  0.81695000  0.57151900  1
  C  148  1  0.12853800  0.81932200  0.55494600  1
  C  149  1  0.10030400  0.83813400  0.55652500  1
  C  150  1  0.10448200  0.85450400  0.57534900  1
  C  154  1  0.13962100  0.86924700  0.61108900  1
  C  155  1  0.14614700  0.86170200  0.63475000  1
  C  156  1  0.14780700  0.87810200  0.65367600  1
  C  157  1  0.14183000  0.90240300  0.64848000  1
  C  158  1  0.13556000  0.91060500  0.62509100  1
  C  159  1  0.13492700  0.89377100  0.60659200  1
  C  163  1  0.63624600  0.64256800  0.38876200  1
  C  164  1  0.66425200  0.66144000  0.39103000  1
  C  165  1  0.66036700  0.67821500  0.40943100  1
  C  166  1  0.62855900  0.67584300  0.42601800  1
  C  167  1  0.60030600  0.65704200  0.42443900  1
  C  168  1  0.60444000  0.64068400  0.40560100  1
  C  172  1  0.63951900  0.62595300  0.36983400  1
  C  173  1  0.64606800  0.63350800  0.34617900  1
  C  174  1  0.64775300  0.61711600  0.32724500  1
  C  175  1  0.64170900  0.59281700  0.33242900  1
  C  176  1  0.63544300  0.58460300  0.35581300  1
  C  177  1  0.63481000  0.60142700  0.37432100  1
  C  181  1  0.86997400  0.14031500  0.09102400  1
  C  182  1  0.89913300  0.13953700  0.07263500  1
  C  183  1  0.90081500  0.15761900  0.05540700  1
  C  184  1  0.87339600  0.17679800  0.05673900  1
  C  185  1  0.84417900  0.17820000  0.07506300  1
  C  186  1  0.84278000  0.15972600  0.09199900  1
  C  190  1  0.86833800  0.12215200  0.10845500  1
  C  191  1  0.86748600  0.09794200  0.10186100  1
  C  192  1  0.86577900  0.07980900  0.11911800  1
  C  193  1  0.86594700  0.08638900  0.14333100  1
  C  194  1  0.86713600  0.11039800  0.15048200  1
  C  195  1  0.86793300  0.12810300  0.13281900  1
  C  199  1  0.36994500  0.35487600  0.88984500  1
  C  200  1  0.39909500  0.35565300  0.90824000  1
  C  201  1  0.40076800  0.33756700  0.92546300  1
  C  202  1  0.37336400  0.31838200  0.92411700  1
  C  203  1  0.34414700  0.31698500  0.90579100  1
  C  204  1  0.34275400  0.33546300  0.88886000  1
  C  208  1  0.36831500  0.37304300  0.87241800  1
  C  209  1  0.36745100  0.39725200  0.87901400  1
  C  210  1  0.36577200  0.41538700  0.86176000  1
  C  211  1  0.36596000  0.40881200  0.83754500  1
  C  212  1  0.36714700  0.38480400  0.83039100  1
  C  213  1  0.36792500  0.36709600  0.84805100  1
  C  217  1  0.36130900  0.63864000  0.58883300  1
  C  218  1  0.33456800  0.65822200  0.58722000  1
  C  219  1  0.33747000  0.67494000  0.56860400  1
  C  220  1  0.36699700  0.67124200  0.55080000  1
  C  221  1  0.39371100  0.65171000  0.55175100  1
  C  222  1  0.39121700  0.63582500  0.57099300  1
  C  226  1  0.35844100  0.62229800  0.60806400  1
  C  227  1  0.35274300  0.63027900  0.63166600  1
  C  228  1  0.35065100  0.61423700  0.65087500  1
  C  229  1  0.35558800  0.58978900  0.64604900  1
  C  230  1  0.36107800  0.58113300  0.62276300  1
  C  231  1  0.36206100  0.59763200  0.60396800  1
  C  235  1  0.86142000  0.85647900  0.39207700  1
  C  236  1  0.83467700  0.83689900  0.39368900  1
  C  237  1  0.83755700  0.82019000  0.41231400  1
  C  238  1  0.86707200  0.82389100  0.43012300  1
  C  239  1  0.89379200  0.84342100  0.42917100  1
  C  240  1  0.89131900  0.85929800  0.40992100  1
  C  244  1  0.85856100  0.87282000  0.37284300  1
  C  245  1  0.85284300  0.86484000  0.34924300  1
  C  246  1  0.85073100  0.88088200  0.33003600  1
  C  247  1  0.85570200  0.90532600  0.33485600  1
  C  248  1  0.86118900  0.91398400  0.35814200  1
  C  249  1  0.86218100  0.89748600  0.37693800  1
  C  253  1  0.62736300  0.35218800  0.09464100  1
  C  254  1  0.59859700  0.35242900  0.07600900  1
  C  255  1  0.59717600  0.33414900  0.05884300  1
  C  256  1  0.62515200  0.31521800  0.06088500  1
  C  257  1  0.65404000  0.31451600  0.07936900  1
  C  258  1  0.65516900  0.33313900  0.09602900  1
  C  262  1  0.62792300  0.37058400  0.11184600  1
  C  263  1  0.62808700  0.39468600  0.10485700  1
  C  264  1  0.62853800  0.41311100  0.12181700  1
  C  265  1  0.62781700  0.40694000  0.14612800  1
  C  266  1  0.62722000  0.38303900  0.15367200  1
  C  267  1  0.62771300  0.36503100  0.13630400  1
  C  271  1  0.12744200  0.14293700  0.88625600  1
  C  272  1  0.09868800  0.14270600  0.90489400  1
  C  273  1  0.09728600  0.16098900  0.92205700  1
  C  274  1  0.12526000  0.17991900  0.92000000  1
  C  275  1  0.15411900  0.18062200  0.90150100  1
  C  276  1  0.15523900  0.16199100  0.88484900  1
  C  280  1  0.12799200  0.12453500  0.86905900  1
  C  281  1  0.12817200  0.10043500  0.87605600  1
  C  282  1  0.12859100  0.08200500  0.85910200  1
  C  283  1  0.12783700  0.08816600  0.83478900  1
  C  284  1  0.12724000  0.11206500  0.82723700  1
  C  285  1  0.12775400  0.13007900  0.84459900  1
  C  289  1  0.81681500  0.20207700  0.39879500  1
  C  290  1  0.83107200  0.22524700  0.39445000  1
  C  291  1  0.80434300  0.24481400  0.39475900  1
  C  292  1  0.76272800  0.24086900  0.40011000  1
  C  293  1  0.74760400  0.21754000  0.40368100  1
  C  294  1  0.77507200  0.19827800  0.40292600  1
  C  296  1  0.73589600  0.26044600  0.40132700  1
  C  297  1  0.71466100  0.26752200  0.38060800  1
  C  298  1  0.68753700  0.28687800  0.38198700  1
  C  299  1  0.68135000  0.29932200  0.40342800  1
  C  300  1  0.70329700  0.29213600  0.42373500  1
  C  301  1  0.73038100  0.27281900  0.42310100  1
  C  317  1  0.31684700  0.29305000  0.58211600  1
  C  318  1  0.33110700  0.26988100  0.58646800  1
  C  319  1  0.30437500  0.25031400  0.58616400  1
  C  320  1  0.26276200  0.25425800  0.58080800  1
  C  321  1  0.24764100  0.27758500  0.57722600  1
  C  322  1  0.27510400  0.29684900  0.57798500  1
  C  324  1  0.23592800  0.23468000  0.57960000  1
  C  325  1  0.21467800  0.22762300  0.60031800  1
  C  326  1  0.18753900  0.20827200  0.59894700  1
  C  327  1  0.18131100  0.19583900  0.57750500  1
  C  328  1  0.20327700  0.20300500  0.55719800  1
  C  329  1  0.23038700  0.22230900  0.55782700  1
  C  345  1  0.05795500  0.82901800  0.94025800  1
  C  346  1  0.07446000  0.83257000  0.96306100  1
  C  347  1  0.04956500  0.83207300  0.98343600  1
  C  348  1  0.00745200  0.82727800  0.98072100  1
  C  349  1  0.99013600  0.82429900  0.95784000  1
  C  350  1  0.01580000  0.82528500  0.93775300  1
  C  352  1  0.98229400  0.82668700  0.00108600  1
  C  353  1  0.96338300  0.84793900  0.00880300  1
  C  354  1  0.93935500  0.84746200  0.02954400  1
  C  355  1  0.93412300  0.82643300  0.04282200  1
  C  356  1  0.95320500  0.80549100  0.03473100  1
  C  357  1  0.97714700  0.80522100  0.01403200  1
  C  373  1  0.55803400  0.66613100  0.04067700  1
  C  374  1  0.57456000  0.66258600  0.01787800  1
  C  375  1  0.54968700  0.66308800  0.99749400  1
  C  376  1  0.50757300  0.66788900  0.00019800  1
  C  377  1  0.49023700  0.67086100  0.02307400  1
  C  378  1  0.51587700  0.66986200  0.04316900  1
  C  380  1  0.48243200  0.66848000  0.97982500  1
  C  381  1  0.46353000  0.64722500  0.97210200  1
  C  382  1  0.43950900  0.64770400  0.95135900  1
  C  383  1  0.43424600  0.66873900  0.93809500  1
  C  384  1  0.45333100  0.68968300  0.94618900  1
  C  385  1  0.47727600  0.68994700  0.96688400  1
  C  401  1  0.18651700  0.79715100  0.57035800  1
  C  402  1  0.17047100  0.77417900  0.57350200  1
  C  403  1  0.19577900  0.75399400  0.57263800  1
  C  404  1  0.23782100  0.75708000  0.56784200  1
  C  405  1  0.25462200  0.78011300  0.56507500  1
  C  406  1  0.22856000  0.79999800  0.56643900  1
  C  408  1  0.26355900  0.73696400  0.56758700  1
  C  409  1  0.28221100  0.72965100  0.58906000  1
  C  410  1  0.30655600  0.70904100  0.58901500  1
  C  411  1  0.31230200  0.69547000  0.56822000  1
  C  412  1  0.29356600  0.70320200  0.54703300  1
  C  413  1  0.26934200  0.72378000  0.54632700  1
  C  429  1  0.68652700  0.69800900  0.41059000  1
  C  430  1  0.67049400  0.72098200  0.40744100  1
  C  431  1  0.69581400  0.74116400  0.40830100  1
  C  432  1  0.73785200  0.73807100  0.41310600  1
  C  433  1  0.75464000  0.71503400  0.41587300  1
  C  434  1  0.72857100  0.69515400  0.41450500  1
  C  436  1  0.76359800  0.75818300  0.41335200  1
  C  437  1  0.78225100  0.76548500  0.39187600  1
  C  438  1  0.80660400  0.78609400  0.39191200  1
  C  439  1  0.81236500  0.79966800  0.41270500  1
  C  440  1  0.79363000  0.79194400  0.43389500  1
  C  441  1  0.76939300  0.77137000  0.43460800  1
  C  457  1  0.92935400  0.15666200  0.03677400  1
  C  458  1  0.91600300  0.15293400  0.01332000  1
  C  459  1  0.94367800  0.15321600  0.99417400  1
  C  460  1  0.98531400  0.15800500  0.99880300  1
  C  461  1  0.99940200  0.16112500  0.02241200  1
  C  462  1  0.97103600  0.16035000  0.04123100  1
  C  464  1  0.01323300  0.15894300  0.97968000  1
  C  465  1  0.03419200  0.13801700  0.97292500  1
  C  466  1  0.06184200  0.13902100  0.95378200  1
  C  467  1  0.06879300  0.16026000  0.94110600  1
  C  468  1  0.04740400  0.18083300  0.94815300  1
  C  469  1  0.01993100  0.18060200  0.96730700  1
  C  485  1  0.42929100  0.33852400  0.94410600  1
  C  486  1  0.41591900  0.34224600  0.96755500  1
  C  487  1  0.44357300  0.34195700  0.98671100  1
  C  488  1  0.48521200  0.33715900  0.98209400  1
  C  489  1  0.49932000  0.33404400  0.95848900  1
  C  490  1  0.47097700  0.33483500  0.93966200  1
  C  492  1  0.51311200  0.33621700  0.00122700  1
  C  493  1  0.53407300  0.35714200  0.00798800  1
  C  494  1  0.56171100  0.35613200  0.02713700  1
  C  495  1  0.56867400  0.33488700  0.03979800  1
  C  496  1  0.54728100  0.31431700  0.03274600  1
  C  497  1  0.51981300  0.31455500  0.01359100  1
  C  513  1  0.32268100  0.70427200  0.89276700  1
  C  514  1  0.33433100  0.72805400  0.88911100  1
  C  515  1  0.30519600  0.74646100  0.88886400  1
  C  516  1  0.26375900  0.74074700  0.89299400  1
  C  517  1  0.25133900  0.71678000  0.89577100  1
  C  518  1  0.28115700  0.69873500  0.89553700  1
  C  520  1  0.23451000  0.75914500  0.89453800  1
  C  521  1  0.21274100  0.76601400  0.87393100  1
  C  522  1  0.18282800  0.78391000  0.87581200  1
  C  523  1  0.17425400  0.79510900  0.89766600  1
  C  524  1  0.19672400  0.78814100  0.91785900  1
  C  525  1  0.22651700  0.77025400  0.91673200  1
  C  541  1  0.82264300  0.79089500  0.08821600  1
  C  542  1  0.83432700  0.76711900  0.09188600  1
  C  543  1  0.80522000  0.74869800  0.09214400  1
  C  544  1  0.76377500  0.75439000  0.08801000  1
  C  545  1  0.75131800  0.77835000  0.08522200  1
  C  546  1  0.78110700  0.79641100  0.08545600  1
  C  548  1  0.73455500  0.73597600  0.08645900  1
  C  549  1  0.71277800  0.72909600  0.10706100  1
  C  550  1  0.68288900  0.71118700  0.10517400  1
  C  551  1  0.67431400  0.70000500  0.08331100  1
  C  552  1  0.69679600  0.70697700  0.06312400  1
  C  553  1  0.72657600  0.72487300  0.06425900  1
  C  569  1  0.56434600  0.33519000  0.44338500  1
  C  570  1  0.57895900  0.33872100  0.46662800  1
  C  571  1  0.55240300  0.33822000  0.48627400  1
  C  572  1  0.51056300  0.33348500  0.48233300  1
  C  573  1  0.49511000  0.33062300  0.45899400  1
  C  574  1  0.52241700  0.33157600  0.43967700  1
  C  576  1  0.48380400  0.33246800  0.50193800  1
  C  577  1  0.46394700  0.35350100  0.50944400  1
  C  578  1  0.43767500  0.35245400  0.52921200  1
  C  579  1  0.43106800  0.33104700  0.54163600  1
  C  580  1  0.45128700  0.31036200  0.53385100  1
  C  581  1  0.47751000  0.31067300  0.51413300  1
  C  597  1  0.06428500  0.16003200  0.53750800  1
  C  598  1  0.07894800  0.15648300  0.51427700  1
  C  599  1  0.05243300  0.15696600  0.49461200  1
  C  600  1  0.01058700  0.16170600  0.49851900  1
  C  601  1  0.99508500  0.16458700  0.52184600  1
  C  602  1  0.02234800  0.16364200  0.54118200  1
  C  604  1  0.98386300  0.16269900  0.47889700  1
  C  605  1  0.96401900  0.14165900  0.47140100  1
  C  606  1  0.93775500  0.14268700  0.45162800  1
  C  607  1  0.93112100  0.16408800  0.43920000  1
  C  608  1  0.95134000  0.18477900  0.44696700  1
  C  609  1  0.97756400  0.18448800  0.46668500  1
  C  625  1  0.68169100  0.29539900  0.08086100  1
  C  626  1  0.66723900  0.27208100  0.08413400  1
  C  627  1  0.69412600  0.25255100  0.08422300  1
  C  628  1  0.73619100  0.25664800  0.08032800  1
  C  629  1  0.75144300  0.28008300  0.07790900  1
  C  630  1  0.72381400  0.29927400  0.07829600  1
  C  632  1  0.76319400  0.23711600  0.07891900  1
  C  633  1  0.78307800  0.22906700  0.09974500  1
  C  634  1  0.80978500  0.20950000  0.09816600  1
  C  635  1  0.81691500  0.19777600  0.07641200  1
  C  636  1  0.79672100  0.20613800  0.05593800  1
  C  637  1  0.77009800  0.22566800  0.05677400  1
  C  653  1  0.18175300  0.19974500  0.89998800  1
  C  654  1  0.16727400  0.22305600  0.89670400  1
  C  655  1  0.19413900  0.24259500  0.89660500  1
  C  656  1  0.23620900  0.23851600  0.90050200  1
  C  657  1  0.25148600  0.21508700  0.90293000  1
  C  658  1  0.22388000  0.19588500  0.90254300  1
  C  660  1  0.26318900  0.25805800  0.90191600  1
  C  661  1  0.28307400  0.26611700  0.88109300  1
  C  662  1  0.30975600  0.28569300  0.88267600  1
  C  663  1  0.31688600  0.29740900  0.90443400  1
  C  664  1  0.29668900  0.28904200  0.92490600  1
  C  665  1  0.27008000  0.26950700  0.92406300  1
  C  681  1  0.42313800  0.64874200  0.53375600  1
  C  682  1  0.41076300  0.64479500  0.51014000  1
  C  683  1  0.43929000  0.64439700  0.49142400  1
  C  684  1  0.48088100  0.64860200  0.49666000  1
  C  685  1  0.49408200  0.65147600  0.52047600  1
  C  686  1  0.46484100  0.65142700  0.53884600  1
  C  688  1  0.50937100  0.65054100  0.47790100  1
  C  689  1  0.53133900  0.63018500  0.47052300  1
  C  690  1  0.56081400  0.63254600  0.45243500  1
  C  691  1  0.56879300  0.65465400  0.44159700  1
  C  692  1  0.54598500  0.67456500  0.44896900  1
  C  693  1  0.51658000  0.67294900  0.46703100  1
  C  709  1  0.92320300  0.84639400  0.44717300  1
  C  710  1  0.91079600  0.85036500  0.47078000  1
  C  711  1  0.93929500  0.85077100  0.48951000  1
  C  712  1  0.98088900  0.84655200  0.48429600  1
  C  713  1  0.99412400  0.84365300  0.46048800  1
  C  714  1  0.96491300  0.84370600  0.44210300  1
  C  716  1  0.00935500  0.84462000  0.50306800  1
  C  717  1  0.03133400  0.86497900  0.51043600  1
  C  718  1  0.06078600  0.86262600  0.52854000  1
  C  719  1  0.06876700  0.84052000  0.53938000  1
  C  720  1  0.04594500  0.82060900  0.53202200  1
  C  721  1  0.01655100  0.82221800  0.51395200  1
  C  737  1  0.86777500  0.11643900  0.17496700  1
  C  738  1  0.83920900  0.13246200  0.18461000  1
  C  739  1  0.83714400  0.13674200  0.20931200  1
  C  740  1  0.86495800  0.12501600  0.22457700  1
  C  741  1  0.89487200  0.10939900  0.21503000  1
  C  742  1  0.89587800  0.10549200  0.19038800  1
  C  744  1  0.85995400  0.12642500  0.24954600  1
  C  745  1  0.83434200  0.10967500  0.26095400  1
  C  746  1  0.83587200  0.10767000  0.28589300  1
  C  747  1  0.86246100  0.12178200  0.29961100  1
  C  748  1  0.88475400  0.13983400  0.28807500  1
  C  749  1  0.88382100  0.14239900  0.26311800  1
  C  765  1  0.36780400  0.37876700  0.80590400  1
  C  766  1  0.33924700  0.36274100  0.79625600  1
  C  767  1  0.33720000  0.35845600  0.77155500  1
  C  768  1  0.36503200  0.37018200  0.75630100  1
  C  769  1  0.39494300  0.38579600  0.76585100  1
  C  770  1  0.39593100  0.38970500  0.79049200  1
  C  772  1  0.36004100  0.36875200  0.73133100  1
  C  773  1  0.33443500  0.38549600  0.71991100  1
  C  774  1  0.33593100  0.38747100  0.69496600  1
  C  775  1  0.36255600  0.37337000  0.68126300  1
  C  776  1  0.38483500  0.35531600  0.69280500  1
  C  777  1  0.38391000  0.35277400  0.71776400  1
  C  793  1  0.12824000  0.05769700  0.86597900  1
  C  794  1  0.09855500  0.04887600  0.88178900  1
  C  795  1  0.09364800  0.02422100  0.88559400  1
  C  796  1  0.11967000  0.00807800  0.87362000  1
  C  797  1  0.15109600  0.01678600  0.85852600  1
  C  798  1  0.15508400  0.04141400  0.85518900  1
  C  800  1  0.11004500  0.98349100  0.87318200  1
  C  801  1  0.08232100  0.97515000  0.85576500  1
  C  802  1  0.07875200  0.95049300  0.85190800  1
  C  803  1  0.10239500  0.93395600  0.86473400  1
  C  804  1  0.12704800  0.94258200  0.88339400  1
  C  805  1  0.13115000  0.96718100  0.88786300  1
  C  821  1  0.62819400  0.43742100  0.11494900  1
  C  822  1  0.59849900  0.44624500  0.09914400  1
  C  823  1  0.59359600  0.47090100  0.09533900  1
  C  824  1  0.61963100  0.48703500  0.10731300  1
  C  825  1  0.65106800  0.47832900  0.12239700  1
  C  826  1  0.65505900  0.45370000  0.12572800  1
  C  828  1  0.60999100  0.51162100  0.10772600  1
  C  829  1  0.58227700  0.51996900  0.12514700  1
  C  830  1  0.57867900  0.54462800  0.12898700  1
  C  831  1  0.60236600  0.56115600  0.11617900  1
  C  832  1  0.62700100  0.55253100  0.09750900  1
  C  833  1  0.63110500  0.52793100  0.09305000  1
  C  849  1  0.62601900  0.37743400  0.17825700  1
  C  850  1  0.65487400  0.36196600  0.18849500  1
  C  851  1  0.65653200  0.35831600  0.21331100  1
  C  852  1  0.62802300  0.37010900  0.22807900  1
  C  853  1  0.59778800  0.38512400  0.21793400  1
  C  854  1  0.59718200  0.38840100  0.19319700  1
  C  856  1  0.63268100  0.36950900  0.25310300  1
  C  857  1  0.65754800  0.38689600  0.26411500  1
  C  858  1  0.65544600  0.38971000  0.28896300  1
  C  859  1  0.62901500  0.37578100  0.30296400  1
  C  860  1  0.60754300  0.35711000  0.29189000  1
  C  861  1  0.60905500  0.35373200  0.26704100  1
  C  877  1  0.12600800  0.11765900  0.80265100  1
  C  878  1  0.15484600  0.13312800  0.79239600  1
  C  879  1  0.15646900  0.13677700  0.76758100  1
  C  880  1  0.12793400  0.12498400  0.75283000  1
  C  881  1  0.09770400  0.10997500  0.76298900  1
  C  882  1  0.09713500  0.10670000  0.78772600  1
  C  884  1  0.13255500  0.12560500  0.72780400  1
  C  885  1  0.15740200  0.10822100  0.71677100  1
  C  886  1  0.15531600  0.10544000  0.69191800  1
  C  887  1  0.12884400  0.11936500  0.67794000  1
  C  888  1  0.10739600  0.13803700  0.68903000  1
  C  889  1  0.10891800  0.14138900  0.71388100  1
  C  905  1  0.36563200  0.43983000  0.86819000  1
  C  906  1  0.39544200  0.44918900  0.88360500  1
  C  907  1  0.40002900  0.47395200  0.88678600  1
  C  908  1  0.37358300  0.48966900  0.87456600  1
  C  909  1  0.34200900  0.48044000  0.85989600  1
  C  910  1  0.33830400  0.45571600  0.85721100  1
  C  912  1  0.38299800  0.51425800  0.87335400  1
  C  913  1  0.41052900  0.52213800  0.85562300  1
  C  914  1  0.41402100  0.54668200  0.85108900  1
  C  915  1  0.39041400  0.56355800  0.86349400  1
  C  916  1  0.36590500  0.55541400  0.88243800  1
  C  917  1  0.36194800  0.53095100  0.88762200  1
  C  933  1  0.86562400  0.05536700  0.11269100  1
  C  934  1  0.89544300  0.04600500  0.09727900  1
  C  935  1  0.90003000  0.02124100  0.09409800  1
  C  936  1  0.87356700  0.00553100  0.10631700  1
  C  937  1  0.84198300  0.01476000  0.12097700  1
  C  938  1  0.83827500  0.03948400  0.12365600  1
  C  940  1  0.88299900  0.98094300  0.10750600  1
  C  941  1  0.91052200  0.97305800  0.12524200  1
  C  942  1  0.91403800  0.94851500  0.12976600  1
  C  943  1  0.89038800  0.93164400  0.11738100  1
  C  944  1  0.86589500  0.93978400  0.09842700  1
  C  945  1  0.86193800  0.96425000  0.09324600  1
  C  961  1  0.11810900  0.87475200  0.80095800  1
  C  962  1  0.14847600  0.85859200  0.79360400  1
  C  963  1  0.15662600  0.85441000  0.76932100  1
  C  964  1  0.13345400  0.86658400  0.75193800  1
  C  965  1  0.10232000  0.88271700  0.75899700  1
  C  966  1  0.09496700  0.88631800  0.78332600  1
  C  968  1  0.14419500  0.86490800  0.72758600  1
  C  969  1  0.17351200  0.88090300  0.71835300  1
  C  970  1  0.17695300  0.88346300  0.69352600  1
  C  971  1  0.15146700  0.87080300  0.67780700  1
  C  972  1  0.12576300  0.85311500  0.68732800  1
  C  973  1  0.12186300  0.84991600  0.71212400  1
  C  989  1  0.61815000  0.62033600  0.17997200  1
  C  990  1  0.64850700  0.63650800  0.18731700  1
  C  991  1  0.65665300  0.64070700  0.21159700  1
  C  992  1  0.63347700  0.62854000  0.22898500  1
  C  993  1  0.60235300  0.61239900  0.22193700  1
  C  994  1  0.59500700  0.60877900  0.19760800  1
  C  996  1  0.64420300  0.63026400  0.25333600  1
  C  997  1  0.67352900  0.61428600  0.26259500  1
  C  998  1  0.67701500  0.61177800  0.28742600  1
  C  999  1  0.65145500  0.62441900  0.30312000  1
  C  1000  1  0.62575700  0.64210300  0.29358200  1
  C  1001  1  0.62185800  0.64526500  0.26878300  1
  C  1017  1  0.37735200  0.62147200  0.79831800  1
  C  1018  1  0.34731100  0.63748300  0.79023700  1
  C  1019  1  0.33994900  0.64104600  0.76577100  1
  C  1020  1  0.36363000  0.62840500  0.74896300  1
  C  1021  1  0.39450800  0.61244800  0.75676200  1
  C  1022  1  0.40106600  0.60946400  0.78124900  1
  C  1024  1  0.35347700  0.62933500  0.72449400  1
  C  1025  1  0.32427500  0.61310700  0.71554800  1
  C  1026  1  0.32126700  0.60984400  0.69078800  1
  C  1027  1  0.34709200  0.62200800  0.67486500  1
  C  1028  1  0.37272800  0.63991400  0.68403700  1
  C  1029  1  0.37618100  0.64383100  0.70875000  1
  C  1045  1  0.87726500  0.87377100  0.18258800  1
  C  1046  1  0.84723300  0.85774900  0.19067100  1
  C  1047  1  0.83988700  0.85417400  0.21513400  1
  C  1048  1  0.86357700  0.86681100  0.23194100  1
  C  1049  1  0.89444600  0.88277700  0.22414500  1
  C  1050  1  0.90098600  0.88577500  0.19965700  1
  C  1052  1  0.85345400  0.86583700  0.25641200  1
  C  1053  1  0.82424900  0.88204800  0.26538900  1
  C  1054  1  0.82121000  0.88525700  0.29015700  1
  C  1055  1  0.84712100  0.87311300  0.30604900  1
  C  1056  1  0.87274200  0.85521000  0.29685400  1
  C  1057  1  0.87617900  0.85133000  0.27213500  1
  C  1073  1  0.62864700  0.56005900  0.36034600  1
  C  1074  1  0.59609300  0.55237700  0.37480300  1
  C  1075  1  0.58761600  0.52800200  0.37812300  1
  C  1076  1  0.61260100  0.51093800  0.36674900  1
  C  1077  1  0.64578800  0.51832900  0.35225600  1
  C  1078  1  0.65340500  0.54272200  0.34949700  1
  C  1080  1  0.60313200  0.48644200  0.36837600  1
  C  1081  1  0.57685400  0.47618100  0.35126000  1
  C  1082  1  0.57552700  0.45123400  0.34915100  1
  C  1083  1  0.60023000  0.43642500  0.36335700  1
  C  1084  1  0.62279800  0.44699700  0.38189800  1
  C  1085  1  0.62443100  0.47189600  0.38471200  1
  C  1101  1  0.12874400  0.93514500  0.62054700  1
  C  1102  1  0.09618100  0.94280900  0.60608800  1
  C  1103  1  0.08766800  0.96717700  0.60276100  1
  C  1104  1  0.11263600  0.98425500  0.61413000  1
  C  1105  1  0.14584800  0.97688400  0.62861400  1
  C  1106  1  0.15349500  0.95249400  0.63138000  1
  C  1108  1  0.10312700  0.00874600  0.61249300  1
  C  1109  1  0.07682300  0.01898900  0.62960600  1
  C  1110  1  0.07537500  0.04393700  0.63169100  1
  C  1111  1  0.10006700  0.05876500  0.61749800  1
  C  1112  1  0.12265300  0.04821100  0.59895200  1
  C  1113  1  0.12436700  0.02331300  0.59615100  1
  C  1129  1  0.86672800  0.93869300  0.36227300  1
  C  1130  1  0.89904200  0.94715000  0.37646600  1
  C  1131  1  0.90659200  0.97170800  0.37913400  1
  C  1132  1  0.88084300  0.98814100  0.36741200  1
  C  1133  1  0.84778100  0.97995500  0.35325100  1
  C  1134  1  0.84112500  0.95540600  0.35111800  1
  C  1136  1  0.88957300  0.01276800  0.36819600  1
  C  1137  1  0.91528800  0.02271500  0.35061300  1
  C  1138  1  0.91580200  0.04758300  0.34765500  1
  C  1139  1  0.89085900  0.06260100  0.36149000  1
  C  1140  1  0.86886700  0.05243100  0.38048400  1
  C  1141  1  0.86803000  0.02762800  0.38413500  1
  C  1157  1  0.36664800  0.55642800  0.61863500  1
  C  1158  1  0.39897000  0.54798400  0.60443600  1
  C  1159  1  0.40654400  0.52343000  0.60176400  1
  C  1160  1  0.38081000  0.50698700  0.61348400  1
  C  1161  1  0.34773000  0.51515900  0.62763900  1
  C  1162  1  0.34105100  0.53970400  0.62977700  1
  C  1164  1  0.38956500  0.48236500  0.61268100  1
  C  1165  1  0.41529900  0.47242300  0.63025900  1
  C  1166  1  0.41590700  0.44755100  0.63318500  1
  C  1167  1  0.39095800  0.43252600  0.61936000  1
  C  1168  1  0.36895300  0.44269200  0.60036600  1
  C  1169  1  0.36806200  0.46749400  0.59673500  1
  N  305  1  0.74935900  0.26714000  0.44495200  1
  N  306  1  0.72043700  0.25500000  0.35904700  1
  N  307  1  0.81849400  0.26807000  0.38982300  1
  N  308  1  0.70557800  0.21392800  0.40805800  1
  N  333  1  0.24939300  0.22796500  0.53597900  1
  N  334  1  0.22046000  0.24015200  0.62187600  1
  N  335  1  0.31852300  0.22706000  0.59111100  1
  N  336  1  0.20561700  0.28119500  0.57283700  1
  N  361  1  0.99387100  0.78291100  0.00778300  1
  N  362  1  0.96870000  0.86920600  0.99571100  1
  N  363  1  0.06596000  0.83655100  0.00628500  1
  N  364  1  0.94768700  0.82053800  0.95546600  1
  N  389  1  0.49400600  0.71225700  0.97313300  1
  N  390  1  0.46884700  0.62595900  0.98519200  1
  N  391  1  0.56610400  0.65861700  0.97465000  1
  N  392  1  0.44778600  0.67462700  0.02543400  1
  N  417  1  0.25293400  0.72966900  0.52384000  1
  N  418  1  0.27623300  0.74295900  0.61013500  1
  N  419  1  0.17990300  0.73098200  0.57692300  1
  N  420  1  0.29700200  0.78284600  0.56129400  1
  N  445  1  0.75297300  0.76549600  0.45709600  1
  N  446  1  0.77626700  0.75217200  0.37080600  1
  N  447  1  0.67994800  0.76417800  0.40401300  1
  N  448  1  0.79701900  0.71229600  0.41965800  1
  N  473  1  0.00154600  0.20268300  0.97274600  1
  N  474  1  0.02730200  0.11654900  0.98541700  1
  N  475  1  0.93047300  0.14868800  0.97064700  1
  N  476  1  0.04136200  0.16501400  0.02675500  1
  N  501  1  0.50141000  0.29247700  0.00815100  1
  N  502  1  0.52719300  0.37861200  0.99550000  1
  N  503  1  0.43035000  0.34648100  0.01023400  1
  N  504  1  0.54128200  0.33014600  0.95416000  1
  N  529  1  0.24562700  0.76465500  0.93856700  1
  N  530  1  0.22093600  0.75475900  0.85194700  1
  N  531  1  0.31675900  0.77033200  0.88464300  1
  N  532  1  0.20959400  0.71132200  0.89901200  1
  N  557  1  0.74571200  0.73047100  0.04243300  1
  N  558  1  0.72094500  0.74035500  0.12904700  1
  N  559  1  0.81681800  0.72483600  0.09637700  1
  N  560  1  0.70956600  0.78378400  0.08197200  1
  N  585  1  0.49514700  0.28856000  0.50802500  1
  N  586  1  0.47046900  0.37507800  0.49707000  1
  N  587  1  0.56687600  0.34254400  0.50958800  1
  N  588  1  0.45289000  0.32693100  0.45539800  1
  N  613  1  0.99520300  0.20660400  0.47277200  1
  N  614  1  0.97053100  0.12009300  0.48379900  1
  N  615  1  0.06695600  0.15262400  0.47131200  1
  N  616  1  0.95285500  0.16828400  0.52540800  1
  N  641  1  0.75262300  0.23231500  0.03477200  1
  N  642  1  0.77603900  0.24070000  0.12167100  1
  N  643  1  0.67973800  0.22915400  0.08815000  1
  N  644  1  0.79378800  0.28389200  0.07500900  1
  N  669  1  0.25259100  0.26285800  0.94606100  1
  N  670  1  0.27605600  0.25448000  0.85916600  1
  N  671  1  0.17972700  0.26598700  0.89267000  1
  N  672  1  0.29383500  0.21129500  0.90583700  1
  N  697  1  0.49715800  0.69457100  0.47308500  1
  N  698  1  0.52390800  0.60799700  0.48155300  1
  N  699  1  0.42694900  0.64009200  0.46770000  1
  N  700  1  0.53600200  0.65475300  0.52544500  1
  N  725  1  0.99710200  0.80060000  0.50791800  1
  N  726  1  0.02393300  0.88715700  0.49938500  1
  N  727  1  0.92692600  0.85510200  0.51322300  1
  N  728  1  0.03604500  0.84035500  0.45554200  1
  N  753  1  0.90685900  0.16018900  0.25147500  1
  N  754  1  0.80906100  0.09455700  0.24724800  1
  N  755  1  0.80715100  0.15193800  0.21907800  1
  N  756  1  0.92394200  0.09634700  0.22825800  1
  N  781  1  0.40696100  0.33499700  0.72942000  1
  N  782  1  0.30917200  0.40063500  0.73360400  1
  N  783  1  0.30722200  0.34325400  0.76178500  1
  N  784  1  0.42402300  0.39884500  0.75262500  1
  N  809  1  0.15630600  0.97580500  0.90638400  1
  N  810  1  0.06006500  0.99155200  0.84175100  1
  N  811  1  0.06212400  0.01537800  0.90029700  1
  N  812  1  0.17844200  0.00274500  0.84506700  1
  N  837  1  0.65627300  0.51930300  0.07453700  1
  N  838  1  0.56003800  0.50357000  0.13917500  1
  N  839  1  0.56207300  0.47974100  0.08063200  1
  N  840  1  0.67840200  0.49237200  0.13586100  1
  N  865  1  0.58685200  0.33530200  0.25585000  1
  N  866  1  0.68265500  0.40181100  0.25008400  1
  N  867  1  0.68682200  0.34372500  0.22367000  1
  N  868  1  0.56805400  0.39820100  0.23062800  1
  N  893  1  0.08671500  0.15980600  0.72509300  1
  N  894  1  0.18250300  0.09328500  0.73078500  1
  N  895  1  0.18673800  0.15137400  0.75720900  1
  N  896  1  0.06795300  0.09689900  0.75030800  1
  N  921  1  0.33705400  0.52283200  0.90649000  1
  N  922  1  0.43271300  0.50538000  0.84199400  1
  N  923  1  0.43169100  0.48330900  0.90106700  1
  N  924  1  0.31431600  0.49401300  0.84619900  1
  N  949  1  0.83703400  0.97236800  0.07438600  1
  N  950  1  0.93269100  0.98981700  0.13888100  1
  N  951  1  0.93169000  0.01188800  0.07981400  1
  N  952  1  0.81430200  0.00118500  0.13468100  1
  N  977  1  0.09522300  0.83263700  0.72176300  1
  N  978  1  0.19711900  0.89501500  0.73400300  1
  N  979  1  0.18807500  0.83878100  0.76212700  1
  N  980  1  0.07796200  0.89663300  0.74358900  1
  N  1005  1  0.59519000  0.66251300  0.25911900  1
  N  1006  1  0.69712800  0.60014300  0.24696600  1
  N  1007  1  0.68808500  0.65635300  0.21878200  1
  N  1008  1  0.57800400  0.59848900  0.23735400  1
  N  1033  1  0.40264800  0.66138300  0.71805000  1
  N  1034  1  0.30029500  0.59949200  0.73144600  1
  N  1035  1  0.30874000  0.65647900  0.75783700  1
  N  1036  1  0.41927400  0.59810800  0.74197600  1
  N  1061  1  0.90267100  0.83380700  0.26280400  1
  N  1062  1  0.80026700  0.89569100  0.24951600  1
  N  1063  1  0.80869900  0.83872500  0.22306500  1
  N  1064  1  0.91920900  0.89711400  0.23893500  1
  N  1089  1  0.64792300  0.48252300  0.40294900  1
  N  1090  1  0.55404000  0.49097700  0.33585200  1
  N  1091  1  0.55428300  0.52041000  0.39214900  1
  N  1092  1  0.67220600  0.50324000  0.33929900  1
  N  1117  1  0.14789700  0.01270400  0.57792300  1
  N  1118  1  0.05408200  0.00417700  0.64504000  1
  N  1119  1  0.05432200  0.97474900  0.58873500  1
  N  1120  1  0.17225100  0.99199100  0.64156200  1
  N  1145  1  0.84516200  0.01737700  0.40284800  1
  N  1146  1  0.93839100  0.00765100  0.33561200  1
  N  1147  1  0.93980600  0.98009500  0.39279700  1
  N  1148  1  0.82066300  0.99435500  0.34000500  1
  N  1173  1  0.34516000  0.47774200  0.57803500  1
  N  1174  1  0.43834700  0.48749300  0.64528400  1
  N  1175  1  0.43976400  0.51505800  0.58809600  1
  N  1176  1  0.32062800  0.50074200  0.64088100  1
  O  309  1  0.78734300  0.26904400  0.44410700  1
  O  310  1  0.69951000  0.20412900  0.42776700  1
  O  311  1  0.84609600  0.27436300  0.40390500  1
  O  312  1  0.68789000  0.24579400  0.35184600  1
  O  313  1  0.74020900  0.24675000  0.45213200  1
  O  314  1  0.68961800  0.20141300  0.39213700  1
  O  315  1  0.83193900  0.26955700  0.36901300  1
  O  316  1  0.73423800  0.26829500  0.34306900  1
  O  337  1  0.28737400  0.22603500  0.53683400  1
  O  338  1  0.19956200  0.29098700  0.55312400  1
  O  339  1  0.34613000  0.22076200  0.57703400  1
  O  340  1  0.18791900  0.24937400  0.62906700  1
  O  341  1  0.24029100  0.24835700  0.52878600  1
  O  342  1  0.18964300  0.29371400  0.58875100  1
  O  343  1  0.33196200  0.22558200  0.61192300  1
  O  344  1  0.23424200  0.22686000  0.63786100  1
  O  365  1  0.03202700  0.78291800  0.00793200  1
  O  366  1  0.94002800  0.80112700  0.94545800  1
  O  367  1  0.09370300  0.82213600  0.01151500  1
  O  368  1  0.93540400  0.87704600  0.98807100  1
  O  369  1  0.98154300  0.77582200  0.98793500  1
  O  370  1  0.93121800  0.83692400  0.94379900  1
  O  371  1  0.08005000  0.85722500  0.00767200  1
  O  372  1  0.98549400  0.88501800  0.00799800  1
  O  393  1  0.53216300  0.71224500  0.97298000  1
  O  394  1  0.44012300  0.69403500  0.03544800  1
  O  395  1  0.59385500  0.67303200  0.96943600  1
  O  396  1  0.43555100  0.61811500  0.99282800  1
  O  397  1  0.48168700  0.71934500  0.99298400  1
  O  398  1  0.43129600  0.65823900  0.03708900  1
  O  399  1  0.58019100  0.63794100  0.97326100  1
  O  400  1  0.48564700  0.61015100  0.97290400  1
  O  421  1  0.21478300  0.72929100  0.52361800  1
  O  422  1  0.30434200  0.79314100  0.54199300  1
  O  423  1  0.15216600  0.72571400  0.56251600  1
  O  424  1  0.30923000  0.75087500  0.61812700  1
  O  425  1  0.26502900  0.74952700  0.51663800  1
  O  426  1  0.31330000  0.79443600  0.57779400  1
  O  427  1  0.16600500  0.72926400  0.59761600  1
  O  428  1  0.25929200  0.73076900  0.62596900  1
  O  449  1  0.71482200  0.76588600  0.45731600  1
  O  450  1  0.80435000  0.70200100  0.43896000  1
  O  451  1  0.65220900  0.76945100  0.41841600  1
  O  452  1  0.80925900  0.74424700  0.36281500  1
  O  453  1  0.76504900  0.74563600  0.46430600  1
  O  454  1  0.81331700  0.70070200  0.40316000  1
  O  455  1  0.66605600  0.76589500  0.38331800  1
  O  456  1  0.75933000  0.76435900  0.35496800  1
  O  477  1  0.96361700  0.20232500  0.97037800  1
  O  478  1  0.04752200  0.18453900  0.03689400  1
  O  479  1  0.90355600  0.16309800  0.96409400  1
  O  480  1  0.05932000  0.10898300  0.99495300  1
  O  481  1  0.01023200  0.20973400  0.99325000  1
  O  482  1  0.05625100  0.14877900  0.03931900  1
  O  483  1  0.91653500  0.12802600  0.96869800  1
  O  484  1  0.01333100  0.10071000  0.97201500  1
  O  505  1  0.46348100  0.29284400  0.01052200  1
  O  506  1  0.54743900  0.31062100  0.94401700  1
  O  507  1  0.40342000  0.33207300  0.01677500  1
  O  508  1  0.55921400  0.38617900  0.98596900  1
  O  509  1  0.51008800  0.28542700  0.98764400  1
  O  510  1  0.55620000  0.34638100  0.94160600  1
  O  511  1  0.41641800  0.36714400  0.01218300  1
  O  512  1  0.51321500  0.39445000  0.00890300  1
  O  533  1  0.28318600  0.76853900  0.93829200  1
  O  534  1  0.20330500  0.70097200  0.91841300  1
  O  535  1  0.34246200  0.77753200  0.89949100  1
  O  536  1  0.19006600  0.74428100  0.84401200  1
  O  537  1  0.23935700  0.74361700  0.94486900  1
  O  538  1  0.19645300  0.69842900  0.88252500  1
  O  539  1  0.33150800  0.77272200  0.86422100  1
  O  540  1  0.23312700  0.76936700  0.83668200  1
  O  561  1  0.78327000  0.72658900  0.04272200  1
  O  562  1  0.70326900  0.79412400  0.06256700  1
  O  563  1  0.84253400  0.71764200  0.08153300  1
  O  564  1  0.69005900  0.75082200  0.13697400  1
  O  565  1  0.73944600  0.75150900  0.03612700  1
  O  566  1  0.69639800  0.79667500  0.09845200  1
  O  567  1  0.83157100  0.72246200  0.11680000  1
  O  568  1  0.73314000  0.72575100  0.14431400  1
  O  589  1  0.53320900  0.28870500  0.50956000  1
  O  590  1  0.44597000  0.30757700  0.44509900  1
  O  591  1  0.59405200  0.32803800  0.51553100  1
  O  592  1  0.43799700  0.38300400  0.48838100  1
  O  593  1  0.48503300  0.28181600  0.48764200  1
  O  594  1  0.43750100  0.34339400  0.44334300  1
  O  595  1  0.58096900  0.36317600  0.51147900  1
  O  596  1  0.48570200  0.39064500  0.51032200  1
  O  617  1  0.03326800  0.20645500  0.47124000  1
  O  618  1  0.94592000  0.18764600  0.53568600  1
  O  619  1  0.09414700  0.16712400  0.46537800  1
  O  620  1  0.93805600  0.11217600  0.49248700  1
  O  621  1  0.98508900  0.21336700  0.49315000  1
  O  622  1  0.93743600  0.15183200  0.53746400  1
  O  623  1  0.08105100  0.13199000  0.46944900  1
  O  624  1  0.98577400  0.10451500  0.47056200  1
  O  645  1  0.71460900  0.23043700  0.03463900  1
  O  646  1  0.80163900  0.29427400  0.05582000  1
  O  647  1  0.65346800  0.22313400  0.07311700  1
  O  648  1  0.80823100  0.24936900  0.12999200  1
  O  649  1  0.76233000  0.25296700  0.02867100  1
  O  650  1  0.80808200  0.29597800  0.09178100  1
  O  651  1  0.66449800  0.22712400  0.10849000  1
  O  652  1  0.76094000  0.22684400  0.13674900  1
  O  673  1  0.21457700  0.26473100  0.94618500  1
  O  674  1  0.30169000  0.20092200  0.92503000  1
  O  675  1  0.15345000  0.27200200  0.90770000  1
  O  676  1  0.30826300  0.24582200  0.85085100  1
  O  677  1  0.26230000  0.24220800  0.95216600  1
  O  678  1  0.30815000  0.19921300  0.88907000  1
  O  679  1  0.16448500  0.26800300  0.87232900  1
  O  680  1  0.26095100  0.26833100  0.84408600  1
  O  701  1  0.45950900  0.69407400  0.46953800  1
  O  702  1  0.54265400  0.67420900  0.53561500  1
  O  703  1  0.40104500  0.65492300  0.46071500  1
  O  704  1  0.55520200  0.60016600  0.49167600  1
  O  705  1  0.50386800  0.70069000  0.49412800  1
  O  706  1  0.54955000  0.63833500  0.53828100  1
  O  707  1  0.41208400  0.61967100  0.46556200  1
  O  708  1  0.51172200  0.59283300  0.46684000  1
  O  729  1  0.95945300  0.80111600  0.51146900  1
  O  730  1  0.04269000  0.82088900  0.44539000  1
  O  731  1  0.90100100  0.84028400  0.52020800  1
  O  732  1  0.05524400  0.89496900  0.48926300  1
  O  733  1  0.00380100  0.79445700  0.48688100  1
  O  734  1  0.04963500  0.85675700  0.44270000  1
  O  735  1  0.91207300  0.87552900  0.51533400  1
  O  736  1  0.01174400  0.90233700  0.51407800  1
  O  757  1  0.89485000  0.18050800  0.25737700  1
  O  758  1  0.90818900  0.08171200  0.24229100  1
  O  759  1  0.77184100  0.14459900  0.21470900  1
  O  760  1  0.81760600  0.07303600  0.25025200  1
  O  761  1  0.94416800  0.15868800  0.25607500  1
  O  762  1  0.94811300  0.10944300  0.23941900  1
  O  763  1  0.81057600  0.17271200  0.21125300  1
  O  764  1  0.77216700  0.09763000  0.25217500  1
  O  785  1  0.39496400  0.31467000  0.72353600  1
  O  786  1  0.40827200  0.41347500  0.73858600  1
  O  787  1  0.27190600  0.35059000  0.76614200  1
  O  788  1  0.31772300  0.42215200  0.73057400  1
  O  789  1  0.44426900  0.33650100  0.72481500  1
  O  790  1  0.44819600  0.38574600  0.74147200  1
  O  791  1  0.31064700  0.32248200  0.76961700  1
  O  792  1  0.27227100  0.39756200  0.72869300  1
  O  813  1  0.14302100  0.96931900  0.92624900  1
  O  814  1  0.16107400  0.98997700  0.82989800  1
  O  815  1  0.02761300  0.02137000  0.89281000  1
  O  816  1  0.06834900  0.98966800  0.82007100  1
  O  817  1  0.19240500  0.96873100  0.90448200  1
  O  818  1  0.20094600  0.99011700  0.85782500  1
  O  819  1  0.06596100  0.02258600  0.92126900  1
  O  820  1  0.02239600  0.98892500  0.84443200  1
  O  841  1  0.64300500  0.52578400  0.05466800  1
  O  842  1  0.66102400  0.50513500  0.15102800  1
  O  843  1  0.52756100  0.47375200  0.08811800  1
  O  844  1  0.56832700  0.50547000  0.16085400  1
  O  845  1  0.69237000  0.52637500  0.07644500  1
  O  846  1  0.70090000  0.50500500  0.12310500  1
  O  847  1  0.56591500  0.47253100  0.05966000  1
  O  848  1  0.52236500  0.50618700  0.13649900  1
  O  869  1  0.59944200  0.31533500  0.26249600  1
  O  870  1  0.58305900  0.41338400  0.24435500  1
  O  871  1  0.72197100  0.35134900  0.21935000  1
  O  872  1  0.67341400  0.42332800  0.25231200  1
  O  873  1  0.54941600  0.33650800  0.26017300  1
  O  874  1  0.54409600  0.38514500  0.24199000  1
  O  875  1  0.68424300  0.32272300  0.21635900  1
  O  876  1  0.71953400  0.39928100  0.25534900  1
  O  897  1  0.09929100  0.17978100  0.71846300  1
  O  898  1  0.08294500  0.08171700  0.73657400  1
  O  899  1  0.22189600  0.14375400  0.76151000  1
  O  900  1  0.17325100  0.07177200  0.72853000  1
  O  901  1  0.04927600  0.15859800  0.72077500  1
  O  902  1  0.04398800  0.10995800  0.73895600  1
  O  903  1  0.18416200  0.17237500  0.76452400  1
  O  904  1  0.21938300  0.09581600  0.72552400  1
  O  925  1  0.35058400  0.52989300  0.92610200  1
  O  926  1  0.33132900  0.50643400  0.83061000  1
  O  927  1  0.46615500  0.47728400  0.89352800  1
  O  928  1  0.42419000  0.50665200  0.82030000  1
  O  929  1  0.30091500  0.52982600  0.90455300  1
  O  930  1  0.29185100  0.50689700  0.85872100  1
  O  931  1  0.42831500  0.47661900  0.92223600  1
  O  932  1  0.47040200  0.50812300  0.84446200  1
  O  953  1  0.85054900  0.96530900  0.05477000  1
  O  954  1  0.83133100  0.98876900  0.15026900  1
  O  955  1  0.96615400  0.01790900  0.08735100  1
  O  956  1  0.92416100  0.98853300  0.16057400  1
  O  957  1  0.80089400  0.96537800  0.07632900  1
  O  958  1  0.79184200  0.98829300  0.12216200  1
  O  959  1  0.92830700  0.01858200  0.05864600  1
  O  960  1  0.97038200  0.98708300  0.13641700  1
  O  981  1  0.10662600  0.81210300  0.71621700  1
  O  982  1  0.09824500  0.91094500  0.73130800  1
  O  983  1  0.22220500  0.84554600  0.76954800  1
  O  984  1  0.19094200  0.91680900  0.73098700  1
  O  985  1  0.05919700  0.83527200  0.71480300  1
  O  986  1  0.05582000  0.88436100  0.73028400  1
  O  987  1  0.18179100  0.81804300  0.76943100  1
  O  988  1  0.23444700  0.89098100  0.73146600  1
  O  1009  1  0.60656000  0.68306300  0.26463300  1
  O  1010  1  0.59829900  0.58419500  0.24964900  1
  O  1011  1  0.72222300  0.64959400  0.21136800  1
  O  1012  1  0.69096200  0.57835400  0.25002900  1
  O  1013  1  0.55916800  0.65987000  0.26608300  1
  O  1014  1  0.55585300  0.61076800  0.25065000  1
  O  1015  1  0.68177900  0.67708400  0.21146000  1
  O  1016  1  0.73445700  0.60419000  0.24948000  1
  O  1037  1  0.39135600  0.68174700  0.71183500  1
  O  1038  1  0.39931700  0.58348700  0.72987800  1
  O  1039  1  0.27437900  0.64991900  0.76507900  1
  O  1040  1  0.30644100  0.57761300  0.72910800  1
  O  1041  1  0.43879700  0.65854600  0.71139100  1
  O  1042  1  0.44183000  0.61001100  0.72857100  1
  O  1043  1  0.31483000  0.67740200  0.76465200  1
  O  1044  1  0.26303400  0.60349800  0.72854800  1
  O  1065  1  0.89141600  0.81342900  0.26899300  1
  O  1066  1  0.89924300  0.91171900  0.25104900  1
  O  1067  1  0.77433000  0.84527600  0.21583300  1
  O  1068  1  0.80640000  0.91756800  0.25189900  1
  O  1069  1  0.93882000  0.83665200  0.26945900  1
  O  1070  1  0.94177700  0.88520700  0.25233000  1
  O  1071  1  0.81480700  0.81780700  0.21623600  1
  O  1072  1  0.76300500  0.89167200  0.25240100  1
  O  1093  1  0.63427100  0.47702300  0.42302300  1
  O  1094  1  0.65408000  0.49111500  0.32391200  1
  O  1095  1  0.52107300  0.52783000  0.38397400  1
  O  1096  1  0.56307100  0.48765600  0.31444500  1
  O  1097  1  0.68470200  0.47653200  0.40205300  1
  O  1098  1  0.69284200  0.48982400  0.35232300  1
  O  1099  1  0.55767800  0.52735800  0.41323700  1
  O  1100  1  0.51651600  0.48761100  0.33838000  1
  O  1121  1  0.13422900  0.01817600  0.55784300  1
  O  1122  1  0.15411300  0.00411100  0.65694800  1
  O  1123  1  0.02112300  0.96731900  0.59691600  1
  O  1124  1  0.06311700  0.00753300  0.66644000  1
  O  1125  1  0.18465600  0.01873900  0.57881600  1
  O  1126  1  0.19285300  0.00541600  0.62852900  1
  O  1127  1  0.05772500  0.96779800  0.56764900  1
  O  1128  1  0.01654000  0.00748400  0.64251700  1
  O  1149  1  0.85896300  0.02368700  0.42264900  1
  O  1150  1  0.83814400  0.00628300  0.32421100  1
  O  1151  1  0.97318700  0.97289300  0.38466600  1
  O  1152  1  0.92899800  0.01014300  0.31414500  1
  O  1153  1  0.80819400  0.02296200  0.40196400  1
  O  1154  1  0.79969900  0.00786100  0.35275600  1
  O  1155  1  0.93694000  0.97366300  0.41407400  1
  O  1156  1  0.97583300  0.01149700  0.33785800  1
  O  1177  1  0.35896700  0.47146000  0.55822700  1
  O  1178  1  0.33812100  0.48882000  0.65666900  1
  O  1179  1  0.47314200  0.52227100  0.59622900  1
  O  1180  1  0.42895400  0.48496300  0.66674600  1
  O  1181  1  0.30820500  0.47212700  0.57892000  1
  O  1182  1  0.29968700  0.48723200  0.62812300  1
  O  1183  1  0.43688700  0.52149400  0.56682200  1
  O  1184  1  0.47580400  0.48369200  0.64303700  1
