# generated using pymatgen
data_H10C18N3O2
_symmetry_space_group_name_H-M   'P 1'
_cell_length_a   56.44110000
_cell_length_b   62.50660000
_cell_length_c   62.81090000
_cell_angle_alpha   90.00000000
_cell_angle_beta   90.00000000
_cell_angle_gamma   90.00000000
_symmetry_Int_Tables_number   1
_chemical_formula_structural   H10C18N3O2
_chemical_formula_sum   'H1280 C2304 N384 O256'
_cell_volume   221593.16576688
_cell_formula_units_Z   128
loop_
 _symmetry_equiv_pos_site_id
 _symmetry_equiv_pos_as_xyz
  1  'x, y, z'
loop_
 _atom_site_type_symbol
 _atom_site_label
 _atom_site_symmetry_multiplicity
 _atom_site_fract_x
 _atom_site_fract_y
 _atom_site_fract_z
 _atom_site_occupancy
  H  7  1  0.94976800  0.36472300  0.86517900  1
  H  8  1  0.93815700  0.35731100  0.93051000  1
  H  15  1  0.01329700  0.40596200  0.81557500  1
  H  16  1  0.99428200  0.40659100  0.87984800  1
  H  19  1  0.02450700  0.37256900  0.89748400  1
  H  20  1  0.01989600  0.36948100  0.92323400  1
  H  21  1  0.99390800  0.33480100  0.83219300  1
  H  22  1  0.98724200  0.33476900  0.85776200  1
  H  29  1  0.44977500  0.11460200  0.13597500  1
  H  30  1  0.43816300  0.12199800  0.07064000  1
  H  37  1  0.51327500  0.07333100  0.18555200  1
  H  38  1  0.49427300  0.07272700  0.12125900  1
  H  41  1  0.52451500  0.10674500  0.10366800  1
  H  42  1  0.51990700  0.10982800  0.07791700  1
  H  43  1  0.49393300  0.14450700  0.16894400  1
  H  44  1  0.48725300  0.14454400  0.14337800  1
  H  51  1  0.20039100  0.37563700  0.12470500  1
  H  52  1  0.18815600  0.31019300  0.11628500  1
  H  59  1  0.26473600  0.42424600  0.16622100  1
  H  60  1  0.24421200  0.36000800  0.16643800  1
  H  63  1  0.27477000  0.34246100  0.13235000  1
  H  64  1  0.26995800  0.31668200  0.12885000  1
  H  65  1  0.24624800  0.40799800  0.09507000  1
  H  66  1  0.23882600  0.38248300  0.09494100  1
  H  73  1  0.70041700  0.10369700  0.87642900  1
  H  74  1  0.68816400  0.16913400  0.88488900  1
  H  81  1  0.76485100  0.05511000  0.83498400  1
  H  82  1  0.74420300  0.11930000  0.83469900  1
  H  85  1  0.77478000  0.13691900  0.86872000  1
  H  86  1  0.76994700  0.16268800  0.87226200  1
  H  87  1  0.74626000  0.07137000  0.90610700  1
  H  88  1  0.73874600  0.09686100  0.90622100  1
  H  95  1  0.50745500  0.11518000  0.86457900  1
  H  96  1  0.52045400  0.12100900  0.92990800  1
  H  103  1  0.44330300  0.07298500  0.81564600  1
  H  104  1  0.46334900  0.07203000  0.87964600  1
  H  107  1  0.43375000  0.10459600  0.89825800  1
  H  108  1  0.43919100  0.10650400  0.92400500  1
  H  109  1  0.46290100  0.14407000  0.83234700  1
  H  110  1  0.46989700  0.14401300  0.85784100  1
  H  117  1  0.00744500  0.36416600  0.13657200  1
  H  118  1  0.02043300  0.35830600  0.07123700  1
  H  125  1  0.94329600  0.40634400  0.18548000  1
  H  126  1  0.96333100  0.40728800  0.12146300  1
  H  129  1  0.93372500  0.37469600  0.10289700  1
  H  130  1  0.93915500  0.37277500  0.07714900  1
  H  131  1  0.96288200  0.33525300  0.16878300  1
  H  132  1  0.96989500  0.33531200  0.14329300  1
  H  139  1  0.25678800  0.10290800  0.12433200  1
  H  140  1  0.27053900  0.16834100  0.11744300  1
  H  147  1  0.19180000  0.05505300  0.16671800  1
  H  148  1  0.21335900  0.11899400  0.16730500  1
  H  151  1  0.18355300  0.13764100  0.13475400  1
  H  152  1  0.18926500  0.16342000  0.13241900  1
  H  153  1  0.21056800  0.07143200  0.09566600  1
  H  154  1  0.21832300  0.09686500  0.09564800  1
  H  161  1  0.75677000  0.37641600  0.87678500  1
  H  162  1  0.77052900  0.31099300  0.88374600  1
  H  169  1  0.69168800  0.42425100  0.83448200  1
  H  170  1  0.71337300  0.36035900  0.83382000  1
  H  173  1  0.68355200  0.34164600  0.86631100  1
  H  174  1  0.68927800  0.31587500  0.86869900  1
  H  175  1  0.71056400  0.40785500  0.90550200  1
  H  176  1  0.71841000  0.38244800  0.90550600  1
  H  183  1  0.00599400  0.61244600  0.13585300  1
  H  184  1  0.01750400  0.61992600  0.07051600  1
  H  191  1  0.94240600  0.57107200  0.18548700  1
  H  192  1  0.96147200  0.57040700  0.12122500  1
  H  195  1  0.93126200  0.60429300  0.10360000  1
  H  196  1  0.93583600  0.60738900  0.07784800  1
  H  197  1  0.96185100  0.64221400  0.16885800  1
  H  198  1  0.96853600  0.64223800  0.14329500  1
  H  205  1  0.50598100  0.86688100  0.86527500  1
  H  206  1  0.51748500  0.85942100  0.93061800  1
  H  213  1  0.44239800  0.90823800  0.81564500  1
  H  214  1  0.46147600  0.90892300  0.87992000  1
  H  217  1  0.43124500  0.87504400  0.89752100  1
  H  218  1  0.43581200  0.87195300  0.92327400  1
  H  219  1  0.46181800  0.83709400  0.83230400  1
  H  220  1  0.46851900  0.83708300  0.85786300  1
  H  227  1  0.75504100  0.60370300  0.87652600  1
  H  228  1  0.76747500  0.66911000  0.88497800  1
  H  235  1  0.69080000  0.55519600  0.83507600  1
  H  236  1  0.71112600  0.61948000  0.83497900  1
  H  239  1  0.68070300  0.63699000  0.86926600  1
  H  240  1  0.68556100  0.66275600  0.87281000  1
  H  241  1  0.70931000  0.57133600  0.90624800  1
  H  242  1  0.71666400  0.59687000  0.90642000  1
  H  249  1  0.25503800  0.87561600  0.12467000  1
  H  250  1  0.26747700  0.81021700  0.11615300  1
  H  257  1  0.19071800  0.92411400  0.16604600  1
  H  258  1  0.21114900  0.85986400  0.16620700  1
  H  261  1  0.18070700  0.84229200  0.13197800  1
  H  262  1  0.18558300  0.81653800  0.12838100  1
  H  263  1  0.20932800  0.90795700  0.09490100  1
  H  264  1  0.21678900  0.88245400  0.09474100  1
  H  271  1  0.44789200  0.86594100  0.13664500  1
  H  272  1  0.43494600  0.85996400  0.07132000  1
  H  279  1  0.51170000  0.90870200  0.18556500  1
  H  280  1  0.49170900  0.90950900  0.12154700  1
  H  283  1  0.52145400  0.87725500  0.10294500  1
  H  284  1  0.51602700  0.87529000  0.07720300  1
  H  285  1  0.49260400  0.83750000  0.16889600  1
  H  286  1  0.48564300  0.83749700  0.14339700  1
  H  293  1  0.94787600  0.61334200  0.86448800  1
  H  294  1  0.93496100  0.61934700  0.92982100  1
  H  301  1  0.01169200  0.57062000  0.81556200  1
  H  302  1  0.99169500  0.56978900  0.87959700  1
  H  305  1  0.02145800  0.60205600  0.89816500  1
  H  306  1  0.01604900  0.60403400  0.92390900  1
  H  307  1  0.99260400  0.64182200  0.83226800  1
  H  308  1  0.98564400  0.64181200  0.85776800  1
  H  315  1  0.69897700  0.87663900  0.87685700  1
  H  316  1  0.68471800  0.81129700  0.88377900  1
  H  323  1  0.76398100  0.92412800  0.83437200  1
  H  324  1  0.74232700  0.86021600  0.83394100  1
  H  327  1  0.77196300  0.84146500  0.86656600  1
  H  328  1  0.76606500  0.81572200  0.86891400  1
  H  329  1  0.74532800  0.90790400  0.90548900  1
  H  330  1  0.73750900  0.88248800  0.90555700  1
  H  337  1  0.19900900  0.60269800  0.12427500  1
  H  338  1  0.18473300  0.66802700  0.11728300  1
  H  345  1  0.26408600  0.55523700  0.16669200  1
  H  346  1  0.24234100  0.61910700  0.16716800  1
  H  349  1  0.27197900  0.63791300  0.13458900  1
  H  350  1  0.26606300  0.66364700  0.13219000  1
  H  351  1  0.24533000  0.57145200  0.09559800  1
  H  352  1  0.23741100  0.59683900  0.09553200  1
  H  359  1  0.44970500  0.86704800  0.36514300  1
  H  360  1  0.43755900  0.85966300  0.43039600  1
  H  367  1  0.51367400  0.90792300  0.31581300  1
  H  368  1  0.49449800  0.90869600  0.38004200  1
  H  371  1  0.52425000  0.87443400  0.39782400  1
  H  372  1  0.51948500  0.87131300  0.42354300  1
  H  373  1  0.49365300  0.83690400  0.33239900  1
  H  374  1  0.48692000  0.83692100  0.35795200  1
  H  381  1  0.94970900  0.61228600  0.63600900  1
  H  382  1  0.93758900  0.61965600  0.57074600  1
  H  389  1  0.01364400  0.57137500  0.68533100  1
  H  390  1  0.99447500  0.57062500  0.62108000  1
  H  393  1  0.02426800  0.60488200  0.60335200  1
  H  394  1  0.01951800  0.60800000  0.57763000  1
  H  395  1  0.99368400  0.64241700  0.66874200  1
  H  396  1  0.98695900  0.64240400  0.64318700  1
  H  403  1  0.70010400  0.87555100  0.62903700  1
  H  404  1  0.68777200  0.81015800  0.62035200  1
  H  411  1  0.76431600  0.92404200  0.67098700  1
  H  412  1  0.74382900  0.85979100  0.67110800  1
  H  415  1  0.77430300  0.84222100  0.63724600  1
  H  416  1  0.76948100  0.81646300  0.63364900  1
  H  417  1  0.74596800  0.90787500  0.59979700  1
  H  418  1  0.73858300  0.88235300  0.59961500  1
  H  425  1  0.20010300  0.60376300  0.37203400  1
  H  426  1  0.18776900  0.66914800  0.38078400  1
  H  433  1  0.26435200  0.55530500  0.33010000  1
  H  434  1  0.24381200  0.61952300  0.32997300  1
  H  437  1  0.27429500  0.63712600  0.36377600  1
  H  438  1  0.26945600  0.66287400  0.36742200  1
  H  439  1  0.24590600  0.57142300  0.40127400  1
  H  440  1  0.23844900  0.59692600  0.40146700  1
  H  447  1  0.00730400  0.61316100  0.36417700  1
  H  448  1  0.02115100  0.61889000  0.42937900  1
  H  455  1  0.94301600  0.57073300  0.31577000  1
  H  456  1  0.96335900  0.56985000  0.37968900  1
  H  459  1  0.93408600  0.60232400  0.39857200  1
  H  460  1  0.93983700  0.60416700  0.42426500  1
  H  461  1  0.96257600  0.64185200  0.33233700  1
  H  462  1  0.96969100  0.64182300  0.35780100  1
  H  469  1  0.50732000  0.86618200  0.63697800  1
  H  470  1  0.52113700  0.86042900  0.57176700  1
  H  477  1  0.44302100  0.90858200  0.68538200  1
  H  478  1  0.46337200  0.90947800  0.62144900  1
  H  481  1  0.43408100  0.87699200  0.60260500  1
  H  482  1  0.43981600  0.87513600  0.57690900  1
  H  483  1  0.46257500  0.83745600  0.66879000  1
  H  484  1  0.46968800  0.83749400  0.64332400  1
  H  491  1  0.75690800  0.60259200  0.62839500  1
  H  492  1  0.77103600  0.66791000  0.62104300  1
  H  499  1  0.69236800  0.55517000  0.67183700  1
  H  500  1  0.71402600  0.61908500  0.67201400  1
  H  503  1  0.68418100  0.63781700  0.63992400  1
  H  504  1  0.69004000  0.66354700  0.63741100  1
  H  505  1  0.71031600  0.57127900  0.60055900  1
  H  506  1  0.71809800  0.59670200  0.60037300  1
  H  513  1  0.25688600  0.87670900  0.37270300  1
  H  514  1  0.27102800  0.81140100  0.38011100  1
  H  521  1  0.19225000  0.92411700  0.32936000  1
  H  522  1  0.21403400  0.86024800  0.32909600  1
  H  525  1  0.18417800  0.84144200  0.36112700  1
  H  526  1  0.19005300  0.81571900  0.36368500  1
  H  527  1  0.21030600  0.90797300  0.40060400  1
  H  528  1  0.21817800  0.88257700  0.40077100  1
  H  535  1  0.50577000  0.11406200  0.63607400  1
  H  536  1  0.51792400  0.12133100  0.57080700  1
  H  543  1  0.44181700  0.07333100  0.68542500  1
  H  544  1  0.46095900  0.07255800  0.62119000  1
  H  547  1  0.43117900  0.10693200  0.60342200  1
  H  548  1  0.43594700  0.11001800  0.57769900  1
  H  549  1  0.46182200  0.14435100  0.66882100  1
  H  550  1  0.46854900  0.14432500  0.64326700  1
  H  557  1  0.00577700  0.36524900  0.36505100  1
  H  558  1  0.01791900  0.35800100  0.43032500  1
  H  565  1  0.94185300  0.40600000  0.31570100  1
  H  566  1  0.96098800  0.40676800  0.37996100  1
  H  569  1  0.93118000  0.37240400  0.39769200  1
  H  570  1  0.93593900  0.36932300  0.42341800  1
  H  571  1  0.96179600  0.33495700  0.33233400  1
  H  572  1  0.96851300  0.33498500  0.35789000  1
  H  579  1  0.25531900  0.10369600  0.37228600  1
  H  580  1  0.26756900  0.16910200  0.38096600  1
  H  587  1  0.19103600  0.05520300  0.33022900  1
  H  588  1  0.21170900  0.11940200  0.33007200  1
  H  591  1  0.18113100  0.13700900  0.36378700  1
  H  592  1  0.18594600  0.16277300  0.36736000  1
  H  593  1  0.20933900  0.07138100  0.40141900  1
  H  594  1  0.21678700  0.09688800  0.40159300  1
  H  601  1  0.75530700  0.37559900  0.62891800  1
  H  602  1  0.76757600  0.31020100  0.62019100  1
  H  609  1  0.69093700  0.42407700  0.67089100  1
  H  610  1  0.71171800  0.35992000  0.67112200  1
  H  613  1  0.68113400  0.34223900  0.63747000  1
  H  614  1  0.68596900  0.31648500  0.63385600  1
  H  615  1  0.70935100  0.40788000  0.59973300  1
  H  616  1  0.71690700  0.38240100  0.59957600  1
  H  623  1  0.94821800  0.36472800  0.63685100  1
  H  624  1  0.93439400  0.35920400  0.57162500  1
  H  631  1  0.01285900  0.40654900  0.68533900  1
  H  632  1  0.99249000  0.40764000  0.62143500  1
  H  635  1  0.02161100  0.37488200  0.60254600  1
  H  636  1  0.01587300  0.37312500  0.57684200  1
  H  637  1  0.99277200  0.33556600  0.66867200  1
  H  638  1  0.98562500  0.33568500  0.64321400  1
  H  645  1  0.44821100  0.11456800  0.36428100  1
  H  646  1  0.43442000  0.12011800  0.42951400  1
  H  653  1  0.51285200  0.07276600  0.31578900  1
  H  654  1  0.49247700  0.07166600  0.37971400  1
  H  657  1  0.52162400  0.10443600  0.39856300  1
  H  658  1  0.51590300  0.10620600  0.42427000  1
  H  659  1  0.49279400  0.14376200  0.33249000  1
  H  660  1  0.48564800  0.14363400  0.35794900  1
  H  667  1  0.19858900  0.37654400  0.37295600  1
  H  668  1  0.18482800  0.31116100  0.38026800  1
  H  675  1  0.26315600  0.42423700  0.32962600  1
  H  676  1  0.24151700  0.36031200  0.32930700  1
  H  679  1  0.27150100  0.34163400  0.36134800  1
  H  680  1  0.26577500  0.31587900  0.36384700  1
  H  681  1  0.24508800  0.40800600  0.40084100  1
  H  682  1  0.23733100  0.38257700  0.40098600  1
  H  689  1  0.69859300  0.10276400  0.62822700  1
  H  690  1  0.68483700  0.16813700  0.62082700  1
  H  697  1  0.76320000  0.05509900  0.67153100  1
  H  698  1  0.74148100  0.11898700  0.67187200  1
  H  701  1  0.77148800  0.13770200  0.63989200  1
  H  702  1  0.76575500  0.16345000  0.63733500  1
  H  703  1  0.74505000  0.07130200  0.60033200  1
  H  704  1  0.73723500  0.09671300  0.60017900  1
  H  711  1  0.96586200  0.36697700  0.69711300  1
  H  716  1  0.04023500  0.36937200  0.69959300  1
  H  721  1  0.96656200  0.36644400  0.80418600  1
  H  722  1  0.04089400  0.36887500  0.80094200  1
  H  724  1  0.93337900  0.37702900  0.77414600  1
  H  726  1  0.93309200  0.37730700  0.72761500  1
  H  733  1  0.46586300  0.11238000  0.30404900  1
  H  738  1  0.54022200  0.10988900  0.30155700  1
  H  743  1  0.46654500  0.11292100  0.19696600  1
  H  744  1  0.54086900  0.11040100  0.20020400  1
  H  746  1  0.43335500  0.10234200  0.22702600  1
  H  748  1  0.43306400  0.10211000  0.27355700  1
  H  755  1  0.21776300  0.54330300  0.12601100  1
  H  760  1  0.29203200  0.54070300  0.13064400  1
  H  765  1  0.21841400  0.43580000  0.12558900  1
  H  766  1  0.29265000  0.43907800  0.13019100  1
  H  768  1  0.18484400  0.46599600  0.13497200  1
  H  770  1  0.18457100  0.51271200  0.13517000  1
  H  777  1  0.71766700  0.93613000  0.87506900  1
  H  782  1  0.79195400  0.93859000  0.87048400  1
  H  787  1  0.71855000  0.04361900  0.87555500  1
  H  788  1  0.79277900  0.04020500  0.87098900  1
  H  790  1  0.68492500  0.01348700  0.86612800  1
  H  792  1  0.68455000  0.96677300  0.86591500  1
  H  799  1  0.48893100  0.11269900  0.69673100  1
  H  804  1  0.41459900  0.11053200  0.70019000  1
  H  809  1  0.49001400  0.11246300  0.80380600  1
  H  810  1  0.41562800  0.11025700  0.80154200  1
  H  812  1  0.52264400  0.10197400  0.77325200  1
  H  814  1  0.52217100  0.10204400  0.72672400  1
  H  821  1  0.98894100  0.36658700  0.30442200  1
  H  826  1  0.91462300  0.36884900  0.30096200  1
  H  831  1  0.99002200  0.36680400  0.19733700  1
  H  832  1  0.91564700  0.36910700  0.19960700  1
  H  834  1  0.02266700  0.37728800  0.22790300  1
  H  836  1  0.02220400  0.37718300  0.27443300  1
  H  843  1  0.23710800  0.93559700  0.12558900  1
  H  848  1  0.16286800  0.93911500  0.12996200  1
  H  853  1  0.23816200  0.04310100  0.12613100  1
  H  854  1  0.16386400  0.04073600  0.13049900  1
  H  856  1  0.27120200  0.01239400  0.13537500  1
  H  858  1  0.27074800  0.96568000  0.13513400  1
  H  865  1  0.73718900  0.54363700  0.87553900  1
  H  870  1  0.66292900  0.54024700  0.87121800  1
  H  875  1  0.73803200  0.43614300  0.87501000  1
  H  876  1  0.66373800  0.43863200  0.87068100  1
  H  878  1  0.77112100  0.46679500  0.86573500  1
  H  880  1  0.77076000  0.51350900  0.86598300  1
  H  887  1  0.98980100  0.61046000  0.30396800  1
  H  892  1  0.91544200  0.60779300  0.30143300  1
  H  897  1  0.98920700  0.61073100  0.19688900  1
  H  898  1  0.91486900  0.60811500  0.20008000  1
  H  900  1  0.02240300  0.60032200  0.22699100  1
  H  902  1  0.02264400  0.60016700  0.27352100  1
  H  909  1  0.48980800  0.86884600  0.69716400  1
  H  914  1  0.41546000  0.87155400  0.69969000  1
  H  919  1  0.48919400  0.86855000  0.80425200  1
  H  920  1  0.41486600  0.87122300  0.80104200  1
  H  922  1  0.52240000  0.87897600  0.77414400  1
  H  924  1  0.52265700  0.87910200  0.72761400  1
  H  931  1  0.46646200  0.86846000  0.30454400  1
  H  936  1  0.54077100  0.87092600  0.30099400  1
  H  941  1  0.46523600  0.86898200  0.19745800  1
  H  942  1  0.53959500  0.87152200  0.19964800  1
  H  944  1  0.43258900  0.87927300  0.22809100  1
  H  946  1  0.43311400  0.87902700  0.27462100  1
  H  953  1  0.96645200  0.61086700  0.69661100  1
  H  958  1  0.04076700  0.60838900  0.70015000  1
  H  963  1  0.96522100  0.61035300  0.80368700  1
  H  964  1  0.03958300  0.60777400  0.80148800  1
  H  966  1  0.93257300  0.60007700  0.77305000  1
  H  968  1  0.93310300  0.60032400  0.72652300  1
  H  975  1  0.71714800  0.04309200  0.63078200  1
  H  980  1  0.79142200  0.04061300  0.63544700  1
  H  985  1  0.71798300  0.93560000  0.63037800  1
  H  986  1  0.79221900  0.93898700  0.63501400  1
  H  988  1  0.68436500  0.96573500  0.63977100  1
  H  990  1  0.68401600  0.01245200  0.63999700  1
  H  997  1  0.21708100  0.43623900  0.37040000  1
  H  1002  1  0.29135200  0.43867200  0.36568200  1
  H  1007  1  0.21800400  0.54374400  0.37074300  1
  H  1008  1  0.29223200  0.54030100  0.36607300  1
  H  1010  1  0.18435700  0.51360800  0.36135400  1
  H  1012  1  0.18396000  0.46689000  0.36121400  1
  H  1019  1  0.73726800  0.43556500  0.63015300  1
  H  1024  1  0.66307400  0.43908000  0.63509300  1
  H  1029  1  0.73834900  0.54306600  0.63085400  1
  H  1030  1  0.66410200  0.54070100  0.63588500  1
  H  1032  1  0.77147400  0.51233800  0.63979300  1
  H  1034  1  0.77101500  0.46562000  0.63946000  1
  H  1041  1  0.23735600  0.04363700  0.37098000  1
  H  1046  1  0.16313800  0.04025600  0.36608600  1
  H  1051  1  0.23821300  0.93614700  0.37028900  1
  H  1052  1  0.16397100  0.93864200  0.36529300  1
  H  1054  1  0.27139300  0.96681800  0.36132200  1
  H  1056  1  0.27103000  0.01353500  0.36166300  1
  H  1063  1  0.98149100  0.43434300  0.82210400  1
  H  1068  1  0.02846400  0.43717600  0.87413300  1
  H  1073  1  0.98011300  0.54165800  0.82199400  1
  H  1074  1  0.02701300  0.53988500  0.87411900  1
  H  1076  1  0.97247600  0.51193000  0.78994100  1
  H  1078  1  0.97311600  0.46379100  0.78999600  1
  H  1085  1  0.48144700  0.04495900  0.17900500  1
  H  1090  1  0.52845700  0.04214000  0.12700400  1
  H  1095  1  0.48010600  0.93764300  0.17911500  1
  H  1096  1  0.52704200  0.93943000  0.12701500  1
  H  1098  1  0.47242200  0.96736700  0.21115800  1
  H  1100  1  0.47305600  0.01550600  0.21110700  1
  H  1107  1  0.23241100  0.41797500  0.19425100  1
  H  1112  1  0.27864500  0.36516100  0.19708200  1
  H  1117  1  0.23097900  0.41805700  0.30106700  1
  H  1118  1  0.27714000  0.36514700  0.29929000  1
  H  1120  1  0.22363200  0.45027100  0.27145800  1
  H  1122  1  0.22430800  0.45023600  0.22361100  1
  H  1129  1  0.73259100  0.06124100  0.80693000  1
  H  1134  1  0.77859500  0.11421700  0.80407500  1
  H  1139  1  0.73111300  0.06115800  0.70010700  1
  H  1140  1  0.77705800  0.11422200  0.70188300  1
  H  1142  1  0.72394300  0.02890100  0.72971500  1
  H  1144  1  0.72464800  0.02893200  0.77757200  1
  H  1151  1  0.47486400  0.04405600  0.82197800  1
  H  1156  1  0.42811400  0.04210100  0.87420800  1
  H  1161  1  0.47404000  0.93674600  0.82210200  1
  H  1162  1  0.42720100  0.93938400  0.87423600  1
  H  1164  1  0.48213000  0.96622800  0.78994700  1
  H  1166  1  0.48251800  0.01438400  0.78989300  1
  H  1173  1  0.97487700  0.43526600  0.17913400  1
  H  1178  1  0.92809000  0.43721800  0.12693300  1
  H  1183  1  0.97405000  0.54257600  0.17900700  1
  H  1184  1  0.92717100  0.53993700  0.12690200  1
  H  1186  1  0.98217900  0.51310100  0.21115300  1
  H  1188  1  0.98255400  0.46494300  0.21121500  1
  H  1195  1  0.22388100  0.06113300  0.19531800  1
  H  1200  1  0.17785600  0.11413300  0.19727300  1
  H  1205  1  0.22326100  0.06142100  0.30213200  1
  H  1206  1  0.17712900  0.11431700  0.29949100  1
  H  1208  1  0.23104300  0.02907600  0.27279500  1
  H  1210  1  0.23131400  0.02893200  0.22493100  1
  H  1217  1  0.72366600  0.41833000  0.80584100  1
  H  1222  1  0.67792800  0.36512800  0.80388200  1
  H  1227  1  0.72305200  0.41802100  0.69902000  1
  H  1228  1  0.67719100  0.36493300  0.70168000  1
  H  1230  1  0.73062200  0.45042800  0.72834600  1
  H  1232  1  0.73088500  0.45058400  0.77622300  1
  H  1239  1  0.72337100  0.56176900  0.80714800  1
  H  1244  1  0.67652200  0.61413500  0.80427100  1
  H  1249  1  0.72485400  0.56163200  0.70032200  1
  H  1250  1  0.67808600  0.61410600  0.70205000  1
  H  1252  1  0.73266900  0.52955700  0.72998400  1
  H  1254  1  0.73197400  0.52962100  0.77779800  1
  H  1261  1  0.22318500  0.91769300  0.19400600  1
  H  1266  1  0.17659800  0.86513700  0.19687700  1
  H  1271  1  0.22463800  0.91782500  0.30083900  1
  H  1272  1  0.17814900  0.86514900  0.29908300  1
  H  1274  1  0.23226500  0.94995900  0.27118800  1
  H  1276  1  0.23157400  0.94990000  0.22335800  1
  H  1283  1  0.73152800  0.91781800  0.80591700  1
  H  1288  1  0.77807700  0.86519700  0.80387900  1
  H  1293  1  0.73195700  0.91757000  0.69909200  1
  H  1294  1  0.77862500  0.86505700  0.70165000  1
  H  1296  1  0.72379900  0.94980000  0.72847500  1
  H  1298  1  0.72361300  0.94991900  0.77631400  1
  H  1305  1  0.23168900  0.56143300  0.19515600  1
  H  1310  1  0.27805300  0.61419000  0.19722000  1
  H  1315  1  0.23207600  0.56168000  0.30198900  1
  H  1316  1  0.27857600  0.61431600  0.29943700  1
  H  1318  1  0.22406900  0.52941100  0.27260500  1
  H  1320  1  0.22391000  0.52929000  0.22475700  1
  H  1327  1  0.48212800  0.93646100  0.32221900  1
  H  1332  1  0.52887700  0.93911000  0.37441600  1
  H  1337  1  0.48130600  0.04375900  0.32202700  1
  H  1338  1  0.52793100  0.04185200  0.37434200  1
  H  1340  1  0.47375100  0.01406800  0.28992900  1
  H  1342  1  0.47411900  0.96590000  0.29002600  1
  H  1349  1  0.98207900  0.54283900  0.67891000  1
  H  1354  1  0.02885700  0.54021000  0.62673300  1
  H  1359  1  0.98130300  0.43554000  0.67909500  1
  H  1360  1  0.02795400  0.43746900  0.62679700  1
  H  1362  1  0.97370400  0.46522300  0.71118700  1
  H  1364  1  0.97406400  0.51339200  0.71109800  1
  H  1371  1  0.97466600  0.54181200  0.32211400  1
  H  1376  1  0.92788100  0.53994800  0.37431700  1
  H  1381  1  0.97351800  0.43450600  0.32216800  1
  H  1382  1  0.92665000  0.43721100  0.37427600  1
  H  1384  1  0.98173400  0.46398300  0.29004700  1
  H  1386  1  0.98228100  0.51213500  0.29002800  1
  H  1393  1  0.47465100  0.93752800  0.67904700  1
  H  1398  1  0.42790100  0.93937000  0.62681800  1
  H  1403  1  0.47346900  0.04483200  0.67897300  1
  H  1404  1  0.42662400  0.04210400  0.62684900  1
  H  1406  1  0.48167400  0.01536500  0.71110400  1
  H  1408  1  0.48222700  0.96721500  0.71113700  1
  H  1415  1  0.79468700  0.37191900  0.86005300  1
  H  1420  1  0.79786200  0.32631800  0.90949900  1
  H  1425  1  0.91273100  0.38269900  0.87101700  1
  H  1426  1  0.90938200  0.33240500  0.91571600  1
  H  1428  1  0.87805100  0.41129300  0.85741600  1
  H  1430  1  0.82481100  0.40691200  0.85323000  1
  H  1437  1  0.29469700  0.10740300  0.14109200  1
  H  1442  1  0.29787000  0.15303100  0.09167100  1
  H  1447  1  0.41273700  0.09662000  0.13012400  1
  H  1448  1  0.40939500  0.14692300  0.08543400  1
  H  1450  1  0.37806000  0.06801200  0.14370300  1
  H  1452  1  0.32481300  0.07239500  0.14788900  1
  H  1459  1  0.04516900  0.38121100  0.13206100  1
  H  1464  1  0.04809000  0.33234400  0.08579700  1
  H  1469  1  0.16319700  0.36972900  0.14237900  1
  H  1470  1  0.15963000  0.32569200  0.09157500  1
  H  1472  1  0.12859800  0.38301900  0.17107400  1
  H  1474  1  0.07540800  0.38741200  0.16687700  1
  H  1481  1  0.54518100  0.09814000  0.86907200  1
  H  1486  1  0.54810600  0.14699100  0.91535500  1
  H  1491  1  0.66321200  0.10961400  0.85876800  1
  H  1492  1  0.65964200  0.15362400  0.90959300  1
  H  1494  1  0.62861300  0.09634400  0.83006100  1
  H  1496  1  0.57542000  0.09196100  0.83425000  1
  H  1503  1  0.16114100  0.60689700  0.14105200  1
  H  1508  1  0.15739800  0.65250400  0.09164300  1
  H  1513  1  0.04326400  0.59481700  0.13001000  1
  H  1514  1  0.04596500  0.64514100  0.08531100  1
  H  1516  1  0.07834000  0.56660400  0.14361600  1
  H  1518  1  0.13149900  0.57158800  0.14784100  1
  H  1525  1  0.66111400  0.87243700  0.86005900  1
  H  1530  1  0.65738800  0.82680500  0.90944400  1
  H  1535  1  0.54324600  0.88452400  0.87113000  1
  H  1536  1  0.54595000  0.83419300  0.91582100  1
  H  1538  1  0.57831700  0.91275200  0.85754200  1
  H  1540  1  0.63148000  0.90776200  0.85330200  1
  H  1547  1  0.90991600  0.59679800  0.86894000  1
  H  1552  1  0.90766500  0.64562000  0.91528200  1
  H  1557  1  0.79207100  0.60952800  0.85865600  1
  H  1558  1  0.79618100  0.65348300  0.90949500  1
  H  1560  1  0.82646700  0.59601100  0.82988100  1
  H  1562  1  0.87964200  0.59103000  0.83407500  1
  H  1569  1  0.40993200  0.88248100  0.13221900  1
  H  1574  1  0.40765700  0.83367800  0.08585900  1
  H  1579  1  0.29208300  0.86977800  0.14251400  1
  H  1580  1  0.29617600  0.82585500  0.09164700  1
  H  1582  1  0.32649100  0.88326800  0.17129300  1
  H  1584  1  0.37966700  0.88822900  0.16710000  1
  H  1591  1  0.29521200  0.87258900  0.35686900  1
  H  1596  1  0.29762700  0.82699100  0.40634600  1
  H  1601  1  0.41265500  0.88496400  0.37060700  1
  H  1602  1  0.40887800  0.83472600  0.41533400  1
  H  1604  1  0.37791800  0.91317100  0.35630700  1
  H  1606  1  0.32486100  0.90802200  0.35081300  1
  H  1613  1  0.79522600  0.60671300  0.64424900  1
  H  1618  1  0.79763600  0.65233300  0.59479300  1
  H  1623  1  0.91266900  0.59435300  0.63052100  1
  H  1624  1  0.90889500  0.64459700  0.58580200  1
  H  1626  1  0.87794100  0.56612700  0.64479700  1
  H  1628  1  0.82487300  0.57126900  0.65028500  1
  H  1635  1  0.54513700  0.88292900  0.63310000  1
  H  1640  1  0.54852100  0.83433100  0.58658900  1
  H  1645  1  0.66257100  0.86975800  0.64613900  1
  H  1646  1  0.65979800  0.82591300  0.59514000  1
  H  1648  1  0.62736200  0.88330800  0.67409100  1
  H  1650  1  0.57440600  0.88851400  0.66862100  1
  H  1657  1  0.04512000  0.59641700  0.36802700  1
  H  1662  1  0.04853200  0.64499700  0.41455500  1
  H  1667  1  0.16255400  0.60956800  0.35496400  1
  H  1668  1  0.15980500  0.65338200  0.40599000  1
  H  1670  1  0.12733300  0.59604100  0.32701200  1
  H  1672  1  0.07437400  0.59085100  0.33249100  1
  H  1679  1  0.66024500  0.10712700  0.64406000  1
  H  1684  1  0.65821400  0.15268900  0.59453300  1
  H  1689  1  0.54262600  0.09584500  0.63057700  1
  H  1690  1  0.54687000  0.14602900  0.58582200  1
  H  1692  1  0.57706200  0.06731600  0.64482700  1
  H  1694  1  0.63020600  0.07195800  0.65019400  1
  H  1701  1  0.16024900  0.37219100  0.35708900  1
  H  1706  1  0.15821100  0.32659700  0.40658400  1
  H  1711  1  0.04263100  0.38347900  0.37056900  1
  H  1712  1  0.04686400  0.33328500  0.41531000  1
  H  1714  1  0.07706800  0.41202200  0.35634400  1
  H  1716  1  0.13021900  0.40737500  0.35097900  1
  H  1723  1  0.41058900  0.09737100  0.36825000  1
  H  1728  1  0.40672300  0.14598300  0.41471800  1
  H  1733  1  0.29297600  0.10953000  0.35533100  1
  H  1734  1  0.29539000  0.15342100  0.40631000  1
  H  1736  1  0.32830000  0.09615800  0.32741300  1
  H  1738  1  0.38127400  0.09142800  0.33281300  1
  H  1745  1  0.91059200  0.38192100  0.63290600  1
  H  1750  1  0.90670900  0.33333333  0.58642300  1
  H  1755  1  0.79298100  0.36976300  0.64584800  1
  H  1756  1  0.79538200  0.32589500  0.59484900  1
  H  1758  1  0.82831500  0.38312100  0.67376500  1
  H  1760  1  0.88128900  0.38784500  0.66835700  1
  H  1767  1  0.98718400  0.39846200  0.05374000  1
  H  1772  1  0.97346300  0.33235800  0.05236800  1
  H  1777  1  0.98579300  0.39628000  0.94609500  1
  H  1778  1  0.97271600  0.33017800  0.95057300  1
  H  1780  1  0.00956700  0.42288300  0.97523600  1
  H  1782  1  0.00879700  0.42436600  0.02333200  1
  H  1789  1  0.48726600  0.08083300  0.94739400  1
  H  1794  1  0.47344100  0.14692300  0.94876500  1
  H  1799  1  0.48586100  0.08301500  0.05504400  1
  H  1800  1  0.47268800  0.14909700  0.05056400  1
  H  1802  1  0.50963300  0.05642500  0.02590700  1
  H  1804  1  0.50888100  0.05494500  0.97781100  1
  H  1811  1  0.23722100  0.18624100  0.15769800  1
  H  1816  1  0.22393300  0.18761500  0.09181400  1
  H  1821  1  0.23557000  0.29434800  0.15542400  1
  H  1822  1  0.22274700  0.28971500  0.08959200  1
  H  1824  1  0.25926200  0.26521200  0.18206400  1
  H  1826  1  0.25865400  0.21683600  0.18357500  1
  H  1833  1  0.73716000  0.29310200  0.84347900  1
  H  1838  1  0.72394800  0.29170800  0.90938900  1
  H  1843  1  0.73551200  0.18498200  0.84573700  1
  H  1844  1  0.72278400  0.18961700  0.91159600  1
  H  1846  1  0.75916500  0.21413300  0.81907700  1
  H  1848  1  0.75855100  0.26250700  0.81757400  1
  H  1855  1  0.96818500  0.57873700  0.94726800  1
  H  1860  1  0.98181500  0.64485800  0.94873500  1
  H  1865  1  0.96993000  0.58074200  0.05492600  1
  H  1866  1  0.98283600  0.64687900  0.05050400  1
  H  1868  1  0.94610000  0.55414600  0.02579900  1
  H  1870  1  0.94669900  0.55275000  0.97769800  1
  H  1877  1  0.46811800  0.90059000  0.05388300  1
  H  1882  1  0.48183400  0.83448100  0.05240000  1
  H  1887  1  0.46985800  0.89861100  0.94622100  1
  H  1888  1  0.48285800  0.83249300  0.95062600  1
  H  1890  1  0.44603200  0.92518900  0.97535100  1
  H  1892  1  0.44662500  0.92657100  0.02345400  1
  H  1899  1  0.71753100  0.79307800  0.84368900  1
  H  1904  1  0.73176200  0.79185600  0.90941700  1
  H  1909  1  0.71953300  0.68498800  0.84609600  1
  H  1910  1  0.73329200  0.68973200  0.91176800  1
  H  1912  1  0.69535900  0.71401300  0.81970800  1
  H  1914  1  0.69576700  0.76240400  0.81813300  1
  H  1921  1  0.21760900  0.68622500  0.15738600  1
  H  1926  1  0.23173900  0.68749500  0.09162700  1
  H  1931  1  0.21960600  0.79432700  0.15504000  1
  H  1932  1  0.23325200  0.78961300  0.08933500  1
  H  1934  1  0.19547500  0.76527900  0.18144500  1
  H  1936  1  0.19589300  0.71688700  0.18298900  1
  H  1943  1  0.48900200  0.90053000  0.55377300  1
  H  1948  1  0.47310900  0.83481600  0.55263600  1
  H  1953  1  0.48634100  0.89827300  0.44615000  1
  H  1954  1  0.47123500  0.83253400  0.45082300  1
  H  1956  1  0.51127300  0.92426700  0.47502900  1
  H  1958  1  0.51117900  0.92578400  0.52313300  1
  H  1965  1  0.98907300  0.57878000  0.44737100  1
  H  1970  1  0.97308800  0.64448100  0.44851000  1
  H  1975  1  0.98642200  0.58103500  0.55499900  1
  H  1976  1  0.97121500  0.64674900  0.55032600  1
  H  1978  1  0.01135500  0.55505500  0.52612000  1
  H  1980  1  0.01126000  0.55354000  0.47801200  1
  H  1987  1  0.73796600  0.68607300  0.66199000  1
  H  1992  1  0.72449700  0.68747300  0.59613200  1
  H  1997  1  0.73525900  0.79418200  0.65991700  1
  H  1998  1  0.72232000  0.78956300  0.59409700  1
  H  2000  1  0.75931400  0.76519400  0.68645200  1
  H  2002  1  0.75924700  0.71679600  0.68785200  1
  H  2009  1  0.23790700  0.79324400  0.33915600  1
  H  2014  1  0.22451600  0.79182000  0.40504100  1
  H  2019  1  0.23519400  0.68512800  0.34120300  1
  H  2020  1  0.22234900  0.68973800  0.40704900  1
  H  2022  1  0.25921700  0.71412600  0.31465100  1
  H  2024  1  0.25914600  0.76252300  0.31326400  1
  H  2031  1  0.46659500  0.08044200  0.44751800  1
  H  2036  1  0.48258800  0.14613800  0.44853700  1
  H  2041  1  0.46907700  0.08290100  0.55512900  1
  H  2042  1  0.48433200  0.14860300  0.55036000  1
  H  2044  1  0.44416200  0.05688500  0.52626700  1
  H  2046  1  0.44435200  0.05526900  0.47817000  1
  H  2053  1  0.96652000  0.39888900  0.55362500  1
  H  2058  1  0.98260000  0.33321000  0.55260100  1
  H  2063  1  0.96901600  0.39644100  0.44600800  1
  H  2064  1  0.98435100  0.33075900  0.45077300  1
  H  2066  1  0.94410500  0.42244500  0.47487000  1
  H  2068  1  0.94427500  0.42405300  0.52296600  1
  H  2075  1  0.21824400  0.29322800  0.33922300  1
  H  2080  1  0.23103900  0.29170500  0.40518600  1
  H  2085  1  0.22049400  0.18510400  0.34121100  1
  H  2086  1  0.23276300  0.18962600  0.40713900  1
  H  2088  1  0.19684100  0.21420800  0.31449900  1
  H  2090  1  0.19714900  0.26259500  0.31313700  1
  H  2097  1  0.71831000  0.18605100  0.66189900  1
  H  2102  1  0.73101600  0.18760900  0.59590900  1
  H  2107  1  0.72056800  0.29418700  0.65995400  1
  H  2108  1  0.73273400  0.28968100  0.59399900  1
  H  2110  1  0.69695400  0.26506300  0.68668100  1
  H  2112  1  0.69726400  0.21667800  0.68802400  1
  H  2119  1  0.35727200  0.39672000  0.88110000  1
  H  2120  1  0.34566100  0.38930800  0.94643100  1
  H  2127  1  0.42080100  0.43795900  0.83149600  1
  H  2128  1  0.40178600  0.43858800  0.89576900  1
  H  2131  1  0.43201100  0.40456600  0.91340500  1
  H  2132  1  0.42740000  0.40147800  0.93915500  1
  H  2133  1  0.40141200  0.36679800  0.84811400  1
  H  2134  1  0.39474600  0.36676600  0.87368300  1
  H  2141  1  0.85727900  0.14659900  0.15189600  1
  H  2142  1  0.84566700  0.15399500  0.08656080  1
  H  2149  1  0.92077900  0.10532800  0.20147300  1
  H  2150  1  0.90177700  0.10472400  0.13718000  1
  H  2153  1  0.93201900  0.13874200  0.11958900  1
  H  2154  1  0.92741100  0.14182500  0.09383780  1
  H  2155  1  0.90143700  0.17650400  0.18486500  1
  H  2156  1  0.89475700  0.17654100  0.15929900  1
  H  2163  1  0.60789500  0.40763400  0.14062600  1
  H  2164  1  0.59566000  0.34219000  0.13220600  1
  H  2171  1  0.67224000  0.45624300  0.18214200  1
  H  2172  1  0.65171600  0.39200500  0.18235900  1
  H  2175  1  0.68227400  0.37445800  0.14827100  1
  H  2176  1  0.67746200  0.34867900  0.14477100  1
  H  2177  1  0.65375200  0.43999500  0.11099100  1
  H  2178  1  0.64633000  0.41448000  0.11086200  1
  H  2185  1  0.10792100  0.13569400  0.89235000  1
  H  2186  1  0.09566850  0.20113100  0.90081000  1
  H  2193  1  0.17235500  0.08710660  0.85090500  1
  H  2194  1  0.15170700  0.15129700  0.85062000  1
  H  2197  1  0.18228400  0.16891600  0.88464100  1
  H  2198  1  0.17745100  0.19468500  0.88818300  1
  H  2199  1  0.15376400  0.10336700  0.92202800  1
  H  2200  1  0.14625000  0.12885800  0.92214200  1
  H  2207  1  0.91495900  0.14717700  0.88050000  1
  H  2208  1  0.92795800  0.15300600  0.94582900  1
  H  2215  1  0.85080700  0.10498200  0.83156700  1
  H  2216  1  0.87085300  0.10402700  0.89556700  1
  H  2219  1  0.84125400  0.13659300  0.91417900  1
  H  2220  1  0.84669500  0.13850100  0.93992600  1
  H  2221  1  0.87040500  0.17606700  0.84826800  1
  H  2222  1  0.87740100  0.17601000  0.87376200  1
  H  2229  1  0.41494900  0.39616300  0.15249300  1
  H  2230  1  0.42793700  0.39030300  0.08715780  1
  H  2237  1  0.35080000  0.43834100  0.20140100  1
  H  2238  1  0.37083500  0.43928500  0.13738400  1
  H  2241  1  0.34122900  0.40669300  0.11881800  1
  H  2242  1  0.34665900  0.40477200  0.09306980  1
  H  2243  1  0.37038600  0.36725000  0.18470400  1
  H  2244  1  0.37739900  0.36730900  0.15921400  1
  H  2251  1  0.66429200  0.13490500  0.14025300  1
  H  2252  1  0.67804300  0.20033800  0.13336400  1
  H  2259  1  0.59930400  0.08704960  0.18263900  1
  H  2260  1  0.62086300  0.15099100  0.18322600  1
  H  2263  1  0.59105700  0.16963800  0.15067500  1
  H  2264  1  0.59676900  0.19541700  0.14834000  1
  H  2265  1  0.61807200  0.10342900  0.11158700  1
  H  2266  1  0.62582700  0.12886200  0.11156900  1
  H  2273  1  0.16427400  0.40841300  0.89270600  1
  H  2274  1  0.17803300  0.34299000  0.89966700  1
  H  2281  1  0.09919250  0.45624800  0.85040300  1
  H  2282  1  0.12087700  0.39235600  0.84974100  1
  H  2285  1  0.09105650  0.37364300  0.88223200  1
  H  2286  1  0.09678250  0.34787200  0.88462000  1
  H  2287  1  0.11806800  0.43985200  0.92142300  1
  H  2288  1  0.12591400  0.41444500  0.92142700  1
  H  2295  1  0.41349800  0.64444300  0.15177400  1
  H  2296  1  0.42500800  0.65192300  0.08643680  1
  H  2303  1  0.34991000  0.60306900  0.20140800  1
  H  2304  1  0.36897600  0.60240400  0.13714600  1
  H  2307  1  0.33876600  0.63629000  0.11952100  1
  H  2308  1  0.34334000  0.63938600  0.09376880  1
  H  2309  1  0.36935500  0.67421100  0.18477900  1
  H  2310  1  0.37604000  0.67423500  0.15921600  1
  H  2317  1  0.91348500  0.89887800  0.88119600  1
  H  2318  1  0.92498900  0.89141800  0.94653900  1
  H  2325  1  0.84990200  0.94023500  0.83156600  1
  H  2326  1  0.86898000  0.94092000  0.89584100  1
  H  2329  1  0.83874900  0.90704100  0.91344200  1
  H  2330  1  0.84331600  0.90395000  0.93919500  1
  H  2331  1  0.86932200  0.86909100  0.84822500  1
  H  2332  1  0.87602300  0.86908000  0.87378400  1
  H  2339  1  0.16254500  0.63570000  0.89244700  1
  H  2340  1  0.17497900  0.70110700  0.90089900  1
  H  2347  1  0.09830450  0.58719300  0.85099700  1
  H  2348  1  0.11863000  0.65147700  0.85090000  1
  H  2351  1  0.08820750  0.66898700  0.88518700  1
  H  2352  1  0.09306550  0.69475300  0.88873100  1
  H  2353  1  0.11681400  0.60333300  0.92216900  1
  H  2354  1  0.12416800  0.62886700  0.92234100  1
  H  2361  1  0.66254200  0.90761300  0.14059100  1
  H  2362  1  0.67498100  0.84221400  0.13207400  1
  H  2369  1  0.59822200  0.95611100  0.18196700  1
  H  2370  1  0.61865300  0.89186100  0.18212800  1
  H  2373  1  0.58821100  0.87428900  0.14789900  1
  H  2374  1  0.59308700  0.84853500  0.14430200  1
  H  2375  1  0.61683200  0.93995400  0.11082200  1
  H  2376  1  0.62429300  0.91445100  0.11066200  1
  H  2383  1  0.85539600  0.89793800  0.15256600  1
  H  2384  1  0.84245000  0.89196100  0.08724080  1
  H  2391  1  0.91920400  0.94069900  0.20148600  1
  H  2392  1  0.89921300  0.94150600  0.13746800  1
  H  2395  1  0.92895800  0.90925200  0.11886600  1
  H  2396  1  0.92353100  0.90728700  0.09312380  1
  H  2397  1  0.90010800  0.86949700  0.18481700  1
  H  2398  1  0.89314700  0.86949400  0.15931800  1
  H  2405  1  0.35538000  0.64533900  0.88040900  1
  H  2406  1  0.34246500  0.65134400  0.94574200  1
  H  2413  1  0.41919600  0.60261700  0.83148300  1
  H  2414  1  0.39919900  0.60178600  0.89551800  1
  H  2417  1  0.42896200  0.63405300  0.91408600  1
  H  2418  1  0.42355300  0.63603100  0.93983000  1
  H  2419  1  0.40010800  0.67381900  0.84818900  1
  H  2420  1  0.39314800  0.67380900  0.87368900  1
  H  2427  1  0.10648100  0.90863600  0.89277800  1
  H  2428  1  0.09222250  0.84329400  0.89970000  1
  H  2435  1  0.17148500  0.95612500  0.85029300  1
  H  2436  1  0.14983100  0.89221300  0.84986200  1
  H  2439  1  0.17946700  0.87346200  0.88248700  1
  H  2440  1  0.17356900  0.84771900  0.88483500  1
  H  2441  1  0.15283200  0.93990100  0.92141000  1
  H  2442  1  0.14501300  0.91448500  0.92147800  1
  H  2449  1  0.60651300  0.63469500  0.14019600  1
  H  2450  1  0.59223700  0.70002400  0.13320400  1
  H  2457  1  0.67159000  0.58723400  0.18261300  1
  H  2458  1  0.64984500  0.65110400  0.18308900  1
  H  2461  1  0.67948300  0.66991000  0.15051000  1
  H  2462  1  0.67356700  0.69564400  0.14811100  1
  H  2463  1  0.65283400  0.60344900  0.11151900  1
  H  2464  1  0.64491500  0.62883600  0.11145300  1
  H  2471  1  0.85720900  0.89904500  0.38106400  1
  H  2472  1  0.84506300  0.89166000  0.44631700  1
  H  2479  1  0.92117800  0.93992000  0.33173400  1
  H  2480  1  0.90200200  0.94069300  0.39596300  1
  H  2483  1  0.93175400  0.90643100  0.41374500  1
  H  2484  1  0.92698900  0.90331000  0.43946400  1
  H  2485  1  0.90115700  0.86890100  0.34832000  1
  H  2486  1  0.89442400  0.86891800  0.37387300  1
  H  2493  1  0.35721300  0.64428300  0.65193000  1
  H  2494  1  0.34509300  0.65165300  0.58666700  1
  H  2501  1  0.42114800  0.60337200  0.70125200  1
  H  2502  1  0.40197900  0.60262200  0.63700100  1
  H  2505  1  0.43177200  0.63687900  0.61927300  1
  H  2506  1  0.42702200  0.63999700  0.59355100  1
  H  2507  1  0.40118800  0.67441400  0.68466300  1
  H  2508  1  0.39446300  0.67440100  0.65910800  1
  H  2515  1  0.10760800  0.90754800  0.64495800  1
  H  2516  1  0.09527650  0.84215500  0.63627300  1
  H  2523  1  0.17182000  0.95603900  0.68690800  1
  H  2524  1  0.15133300  0.89178800  0.68702900  1
  H  2527  1  0.18180700  0.87421800  0.65316700  1
  H  2528  1  0.17698500  0.84846000  0.64957000  1
  H  2529  1  0.15347200  0.93987200  0.61571800  1
  H  2530  1  0.14608700  0.91435000  0.61553600  1
  H  2537  1  0.60760700  0.63576000  0.38795500  1
  H  2538  1  0.59527300  0.70114500  0.39670500  1
  H  2545  1  0.67185600  0.58730200  0.34602100  1
  H  2546  1  0.65131600  0.65152000  0.34589400  1
  H  2549  1  0.68179900  0.66912300  0.37969700  1
  H  2550  1  0.67696000  0.69487100  0.38334300  1
  H  2551  1  0.65341000  0.60342000  0.41719500  1
  H  2552  1  0.64595300  0.62892300  0.41738800  1
  H  2559  1  0.41480800  0.64515800  0.38009800  1
  H  2560  1  0.42865500  0.65088700  0.44530000  1
  H  2567  1  0.35052000  0.60273000  0.33169100  1
  H  2568  1  0.37086300  0.60184700  0.39561000  1
  H  2571  1  0.34159000  0.63432100  0.41449300  1
  H  2572  1  0.34734100  0.63616400  0.44018600  1
  H  2573  1  0.37008000  0.67384900  0.34825800  1
  H  2574  1  0.37719500  0.67382000  0.37372200  1
  H  2581  1  0.91482400  0.89817900  0.65289900  1
  H  2582  1  0.92864100  0.89242600  0.58768800  1
  H  2589  1  0.85052500  0.94057900  0.70130300  1
  H  2590  1  0.87087600  0.94147500  0.63737000  1
  H  2593  1  0.84158500  0.90898900  0.61852600  1
  H  2594  1  0.84732000  0.90713300  0.59283000  1
  H  2595  1  0.87007900  0.86945300  0.68471100  1
  H  2596  1  0.87719200  0.86949100  0.65924500  1
  H  2603  1  0.16441200  0.63458900  0.64431600  1
  H  2604  1  0.17854000  0.69990700  0.63696400  1
  H  2611  1  0.09987250  0.58716700  0.68775800  1
  H  2612  1  0.12153000  0.65108200  0.68793500  1
  H  2615  1  0.09168550  0.66981400  0.65584500  1
  H  2616  1  0.09754450  0.69554400  0.65333200  1
  H  2617  1  0.11782000  0.60327600  0.61648000  1
  H  2618  1  0.12560200  0.62869900  0.61629400  1
  H  2625  1  0.66439000  0.90870600  0.38862400  1
  H  2626  1  0.67853200  0.84339800  0.39603200  1
  H  2633  1  0.59975400  0.95611400  0.34528100  1
  H  2634  1  0.62153800  0.89224500  0.34501700  1
  H  2637  1  0.59168200  0.87343900  0.37704800  1
  H  2638  1  0.59755700  0.84771600  0.37960600  1
  H  2639  1  0.61781000  0.93997000  0.41652500  1
  H  2640  1  0.62568200  0.91457400  0.41669200  1
  H  2647  1  0.91327400  0.14605900  0.65199500  1
  H  2648  1  0.92542800  0.15332800  0.58672800  1
  H  2655  1  0.84932100  0.10532800  0.70134600  1
  H  2656  1  0.86846300  0.10455500  0.63711100  1
  H  2659  1  0.83868300  0.13892900  0.61934300  1
  H  2660  1  0.84345100  0.14201500  0.59362000  1
  H  2661  1  0.86932600  0.17634800  0.68474200  1
  H  2662  1  0.87605300  0.17632200  0.65918800  1
  H  2669  1  0.41328100  0.39724600  0.38097200  1
  H  2670  1  0.42542300  0.38999800  0.44624600  1
  H  2677  1  0.34935700  0.43799700  0.33162200  1
  H  2678  1  0.36849200  0.43876500  0.39588200  1
  H  2681  1  0.33868400  0.40440100  0.41361300  1
  H  2682  1  0.34344300  0.40132000  0.43933900  1
  H  2683  1  0.36930000  0.36695400  0.34825500  1
  H  2684  1  0.37601700  0.36698200  0.37381100  1
  H  2691  1  0.66282300  0.13569300  0.38820700  1
  H  2692  1  0.67507300  0.20109900  0.39688700  1
  H  2699  1  0.59854000  0.08719960  0.34615000  1
  H  2700  1  0.61921300  0.15139900  0.34599300  1
  H  2703  1  0.58863500  0.16900600  0.37970800  1
  H  2704  1  0.59345000  0.19477000  0.38328100  1
  H  2705  1  0.61684300  0.10337800  0.41734000  1
  H  2706  1  0.62429100  0.12888500  0.41751400  1
  H  2713  1  0.16281100  0.40759600  0.64483900  1
  H  2714  1  0.17508000  0.34219800  0.63611200  1
  H  2721  1  0.09844150  0.45607400  0.68681200  1
  H  2722  1  0.11922200  0.39191700  0.68704300  1
  H  2725  1  0.08863850  0.37423600  0.65339100  1
  H  2726  1  0.09347350  0.34848200  0.64977700  1
  H  2727  1  0.11685500  0.43987700  0.61565400  1
  H  2728  1  0.12441100  0.41439800  0.61549700  1
  H  2735  1  0.35572200  0.39672500  0.65277200  1
  H  2736  1  0.34189800  0.39120100  0.58754600  1
  H  2743  1  0.42036300  0.43854600  0.70126000  1
  H  2744  1  0.39999400  0.43963700  0.63735600  1
  H  2747  1  0.42911500  0.40687900  0.61846700  1
  H  2748  1  0.42337700  0.40512200  0.59276300  1
  H  2749  1  0.40027600  0.36756300  0.68459300  1
  H  2750  1  0.39312900  0.36768200  0.65913500  1
  H  2757  1  0.85571500  0.14656500  0.38020200  1
  H  2758  1  0.84192400  0.15211500  0.44543500  1
  H  2765  1  0.92035600  0.10476300  0.33171000  1
  H  2766  1  0.89998100  0.10366300  0.39563500  1
  H  2769  1  0.92912800  0.13643300  0.41448400  1
  H  2770  1  0.92340700  0.13820300  0.44019100  1
  H  2771  1  0.90029800  0.17575900  0.34841100  1
  H  2772  1  0.89315200  0.17563100  0.37387000  1
  H  2779  1  0.60609300  0.40854100  0.38887700  1
  H  2780  1  0.59233200  0.34315800  0.39618900  1
  H  2787  1  0.67066000  0.45623400  0.34554700  1
  H  2788  1  0.64902100  0.39230900  0.34522800  1
  H  2791  1  0.67900500  0.37363100  0.37726900  1
  H  2792  1  0.67327900  0.34787600  0.37976800  1
  H  2793  1  0.65259200  0.44000300  0.41676200  1
  H  2794  1  0.64483500  0.41457400  0.41690700  1
  H  2801  1  0.10609700  0.13476100  0.64414800  1
  H  2802  1  0.09234150  0.20013400  0.63674800  1
  H  2809  1  0.17070400  0.08709560  0.68745200  1
  H  2810  1  0.14898500  0.15098400  0.68779300  1
  H  2813  1  0.17899200  0.16969900  0.65581300  1
  H  2814  1  0.17325900  0.19544700  0.65325600  1
  H  2815  1  0.15255400  0.10329900  0.61625300  1
  H  2816  1  0.14473900  0.12871000  0.61610000  1
  H  2823  1  0.37336600  0.39897400  0.71303400  1
  H  2828  1  0.44773900  0.40136900  0.71551400  1
  H  2833  1  0.37406600  0.39844100  0.82010700  1
  H  2834  1  0.44839800  0.40087200  0.81686300  1
  H  2836  1  0.34088300  0.40902600  0.79006700  1
  H  2838  1  0.34059600  0.40930400  0.74353600  1
  H  2845  1  0.87336700  0.14437700  0.31997000  1
  H  2850  1  0.94772600  0.14188600  0.31747800  1
  H  2855  1  0.87404900  0.14491800  0.21288700  1
  H  2856  1  0.94837300  0.14239800  0.21612500  1
  H  2858  1  0.84085900  0.13433900  0.24294700  1
  H  2860  1  0.84056800  0.13410700  0.28947800  1
  H  2867  1  0.62526700  0.57530000  0.14193200  1
  H  2872  1  0.69953600  0.57270000  0.14656500  1
  H  2877  1  0.62591800  0.46779700  0.14151000  1
  H  2878  1  0.70015400  0.47107500  0.14611200  1
  H  2880  1  0.59234800  0.49799300  0.15089300  1
  H  2882  1  0.59207500  0.54470900  0.15109100  1
  H  2889  1  0.12517100  0.96812700  0.89099000  1
  H  2894  1  0.19945800  0.97058700  0.88640500  1
  H  2899  1  0.12605400  0.07561560  0.89147600  1
  H  2900  1  0.20028300  0.07220160  0.88691000  1
  H  2902  1  0.09242950  0.04548360  0.88204900  1
  H  2904  1  0.09205450  0.99877000  0.88183600  1
  H  2911  1  0.89643500  0.14469600  0.71265200  1
  H  2916  1  0.82210300  0.14252900  0.71611100  1
  H  2921  1  0.89751800  0.14446000  0.81972700  1
  H  2922  1  0.82313200  0.14225400  0.81746300  1
  H  2924  1  0.93014800  0.13397100  0.78917300  1
  H  2926  1  0.92967500  0.13404100  0.74264500  1
  H  2933  1  0.39644500  0.39858400  0.32034300  1
  H  2938  1  0.32212700  0.40084600  0.31688300  1
  H  2943  1  0.39752600  0.39880100  0.21325800  1
  H  2944  1  0.32315100  0.40110400  0.21552800  1
  H  2946  1  0.43017100  0.40928500  0.24382400  1
  H  2948  1  0.42970800  0.40918000  0.29035400  1
  H  2955  1  0.64461200  0.96759400  0.14151000  1
  H  2960  1  0.57037200  0.97111200  0.14588300  1
  H  2965  1  0.64566600  0.07509760  0.14205200  1
  H  2966  1  0.57136800  0.07273260  0.14642000  1
  H  2968  1  0.67870600  0.04439060  0.15129600  1
  H  2970  1  0.67825200  0.99767700  0.15105500  1
  H  2977  1  0.14469300  0.57563400  0.89146000  1
  H  2982  1  0.07043350  0.57224400  0.88713900  1
  H  2987  1  0.14553600  0.46814000  0.89093100  1
  H  2988  1  0.07124250  0.47062900  0.88660200  1
  H  2990  1  0.17862500  0.49879200  0.88165600  1
  H  2992  1  0.17826400  0.54550600  0.88190400  1
  H  2999  1  0.39730500  0.64245700  0.31988900  1
  H  3004  1  0.32294600  0.63979000  0.31735400  1
  H  3009  1  0.39671100  0.64272800  0.21281000  1
  H  3010  1  0.32237300  0.64011200  0.21600100  1
  H  3012  1  0.42990700  0.63231900  0.24291200  1
  H  3014  1  0.43014800  0.63216400  0.28944200  1
  H  3021  1  0.89731200  0.90084300  0.71308500  1
  H  3026  1  0.82296400  0.90355100  0.71561100  1
  H  3031  1  0.89669800  0.90054700  0.82017300  1
  H  3032  1  0.82237000  0.90322000  0.81696300  1
  H  3034  1  0.92990400  0.91097300  0.79006500  1
  H  3036  1  0.93016100  0.91109900  0.74353500  1
  H  3043  1  0.87396600  0.90045700  0.32046500  1
  H  3048  1  0.94827500  0.90292300  0.31691500  1
  H  3053  1  0.87274000  0.90097900  0.21337900  1
  H  3054  1  0.94709900  0.90351900  0.21556900  1
  H  3056  1  0.84009300  0.91127000  0.24401200  1
  H  3058  1  0.84061800  0.91102400  0.29054200  1
  H  3065  1  0.37395600  0.64286400  0.71253200  1
  H  3070  1  0.44827100  0.64038600  0.71607100  1
  H  3075  1  0.37272500  0.64235000  0.81960800  1
  H  3076  1  0.44708700  0.63977100  0.81740900  1
  H  3078  1  0.34007700  0.63207400  0.78897100  1
  H  3080  1  0.34060700  0.63232100  0.74244400  1
  H  3087  1  0.12465200  0.07508860  0.64670300  1
  H  3092  1  0.19892600  0.07260960  0.65136800  1
  H  3097  1  0.12548700  0.96759700  0.64629900  1
  H  3098  1  0.19972300  0.97098400  0.65093500  1
  H  3100  1  0.09186950  0.99773200  0.65569200  1
  H  3102  1  0.09152050  0.04444860  0.65591800  1
  H  3109  1  0.62458500  0.46823600  0.38632100  1
  H  3114  1  0.69885600  0.47066900  0.38160300  1
  H  3119  1  0.62550800  0.57574100  0.38666400  1
  H  3120  1  0.69973600  0.57229800  0.38199400  1
  H  3122  1  0.59186100  0.54560500  0.37727500  1
  H  3124  1  0.59146400  0.49888700  0.37713500  1
  H  3131  1  0.14477200  0.46756200  0.64607400  1
  H  3136  1  0.07057850  0.47107700  0.65101400  1
  H  3141  1  0.14585300  0.57506300  0.64677500  1
  H  3142  1  0.07160650  0.57269800  0.65180600  1
  H  3144  1  0.17897800  0.54433500  0.65571400  1
  H  3146  1  0.17851900  0.49761700  0.65538100  1
  H  3153  1  0.64486000  0.07563360  0.38690100  1
  H  3158  1  0.57064200  0.07225260  0.38200700  1
  H  3163  1  0.64571700  0.96814400  0.38621000  1
  H  3164  1  0.57147500  0.97063900  0.38121400  1
  H  3166  1  0.67889700  0.99881500  0.37724300  1
  H  3168  1  0.67853400  0.04553160  0.37758400  1
  H  3175  1  0.38899500  0.46634000  0.83802500  1
  H  3180  1  0.43596800  0.46917300  0.89005400  1
  H  3185  1  0.38761700  0.57365500  0.83791500  1
  H  3186  1  0.43451700  0.57188200  0.89004000  1
  H  3188  1  0.37998000  0.54392700  0.80586200  1
  H  3190  1  0.38062000  0.49578800  0.80591700  1
  H  3197  1  0.88895100  0.07695560  0.19492600  1
  H  3202  1  0.93596100  0.07413660  0.14292500  1
  H  3207  1  0.88761000  0.96964000  0.19503600  1
  H  3208  1  0.93454600  0.97142700  0.14293600  1
  H  3210  1  0.87992600  0.99936400  0.22707900  1
  H  3212  1  0.88056000  0.04750260  0.22702800  1
  H  3219  1  0.63991500  0.44997200  0.21017200  1
  H  3224  1  0.68614900  0.39715800  0.21300300  1
  H  3229  1  0.63848300  0.45005400  0.31698800  1
  H  3230  1  0.68464400  0.39714400  0.31521100  1
  H  3232  1  0.63113600  0.48226800  0.28737900  1
  H  3234  1  0.63181200  0.48223300  0.23953200  1
  H  3241  1  0.14009500  0.09323760  0.82285100  1
  H  3246  1  0.18609900  0.14621400  0.81999600  1
  H  3251  1  0.13861700  0.09315460  0.71602800  1
  H  3252  1  0.18456200  0.14621900  0.71780400  1
  H  3254  1  0.13144700  0.06089760  0.74563600  1
  H  3256  1  0.13215200  0.06092860  0.79349300  1
  H  3263  1  0.88236800  0.07605260  0.83789900  1
  H  3268  1  0.83561800  0.07409760  0.89012900  1
  H  3273  1  0.88154400  0.96874300  0.83802300  1
  H  3274  1  0.83470500  0.97138100  0.89015700  1
  H  3276  1  0.88963400  0.99822500  0.80586800  1
  H  3278  1  0.89002200  0.04638060  0.80581400  1
  H  3285  1  0.38238100  0.46726300  0.19505500  1
  H  3290  1  0.33559400  0.46921500  0.14285400  1
  H  3295  1  0.38155400  0.57457300  0.19492800  1
  H  3296  1  0.33467500  0.57193400  0.14282300  1
  H  3298  1  0.38968300  0.54509800  0.22707400  1
  H  3300  1  0.39005800  0.49694000  0.22713600  1
  H  3307  1  0.63138500  0.09312960  0.21123900  1
  H  3312  1  0.58536000  0.14613000  0.21319400  1
  H  3317  1  0.63076500  0.09341760  0.31805300  1
  H  3318  1  0.58463300  0.14631400  0.31541200  1
  H  3320  1  0.63854700  0.06107260  0.28871600  1
  H  3322  1  0.63881800  0.06092860  0.24085200  1
  H  3329  1  0.13117000  0.45032700  0.82176200  1
  H  3334  1  0.08543250  0.39712500  0.81980300  1
  H  3339  1  0.13055600  0.45001800  0.71494100  1
  H  3340  1  0.08469550  0.39693000  0.71760100  1
  H  3342  1  0.13812600  0.48242500  0.74426700  1
  H  3344  1  0.13838900  0.48258100  0.79214400  1
  H  3351  1  0.13087500  0.59376600  0.82306900  1
  H  3356  1  0.08402650  0.64613200  0.82019200  1
  H  3361  1  0.13235800  0.59362900  0.71624300  1
  H  3362  1  0.08559050  0.64610300  0.71797100  1
  H  3364  1  0.14017300  0.56155400  0.74590500  1
  H  3366  1  0.13947800  0.56161800  0.79371900  1
  H  3373  1  0.63068900  0.94969000  0.20992700  1
  H  3378  1  0.58410200  0.89713400  0.21279800  1
  H  3383  1  0.63214200  0.94982200  0.31676000  1
  H  3384  1  0.58565300  0.89714600  0.31500400  1
  H  3386  1  0.63976900  0.98195600  0.28710900  1
  H  3388  1  0.63907800  0.98189700  0.23927900  1
  H  3395  1  0.13903200  0.94981500  0.82183800  1
  H  3400  1  0.18558100  0.89719400  0.81980000  1
  H  3405  1  0.13946100  0.94956700  0.71501300  1
  H  3406  1  0.18612900  0.89705400  0.71757100  1
  H  3408  1  0.13130300  0.98179700  0.74439600  1
  H  3410  1  0.13111700  0.98191600  0.79223500  1
  H  3417  1  0.63919300  0.59343000  0.21107700  1
  H  3422  1  0.68555700  0.64618700  0.21314100  1
  H  3427  1  0.63958000  0.59367700  0.31791000  1
  H  3428  1  0.68608000  0.64631300  0.31535800  1
  H  3430  1  0.63157300  0.56140800  0.28852600  1
  H  3432  1  0.63141400  0.56128700  0.24067800  1
  H  3439  1  0.88963200  0.96845800  0.33814000  1
  H  3444  1  0.93638100  0.97110700  0.39033700  1
  H  3449  1  0.88881000  0.07575560  0.33794800  1
  H  3450  1  0.93543500  0.07384860  0.39026300  1
  H  3452  1  0.88125500  0.04606460  0.30585000  1
  H  3454  1  0.88162300  0.99789700  0.30594700  1
  H  3461  1  0.38958300  0.57483600  0.69483100  1
  H  3466  1  0.43636100  0.57220700  0.64265400  1
  H  3471  1  0.38880700  0.46753700  0.69501600  1
  H  3472  1  0.43545800  0.46946600  0.64271800  1
  H  3474  1  0.38120800  0.49722000  0.72710800  1
  H  3476  1  0.38156800  0.54538900  0.72701900  1
  H  3483  1  0.38217000  0.57380900  0.33803500  1
  H  3488  1  0.33538500  0.57194500  0.39023800  1
  H  3493  1  0.38102200  0.46650300  0.33808900  1
  H  3494  1  0.33415400  0.46920800  0.39019700  1
  H  3496  1  0.38923800  0.49598000  0.30596800  1
  H  3498  1  0.38978500  0.54413200  0.30594900  1
  H  3505  1  0.88215500  0.96952500  0.69496800  1
  H  3510  1  0.83540500  0.97136700  0.64273900  1
  H  3515  1  0.88097300  0.07682860  0.69489400  1
  H  3516  1  0.83412800  0.07410060  0.64277000  1
  H  3518  1  0.88917800  0.04736160  0.72702500  1
  H  3520  1  0.88973100  0.99921200  0.72705800  1
  H  3527  1  0.20219100  0.40391600  0.87597400  1
  H  3532  1  0.20536600  0.35831500  0.92542000  1
  H  3537  1  0.32023500  0.41469600  0.88693800  1
  H  3538  1  0.31688600  0.36440200  0.93163700  1
  H  3540  1  0.28555500  0.44329000  0.87333700  1
  H  3542  1  0.23231500  0.43890900  0.86915100  1
  H  3549  1  0.70220100  0.13940000  0.15701300  1
  H  3554  1  0.70537400  0.18502800  0.10759200  1
  H  3559  1  0.82024100  0.12861700  0.14604500  1
  H  3560  1  0.81689900  0.17892000  0.10135500  1
  H  3562  1  0.78556400  0.10000900  0.15962400  1
  H  3564  1  0.73231700  0.10439200  0.16381000  1
  H  3571  1  0.45267300  0.41320800  0.14798200  1
  H  3576  1  0.45559400  0.36434100  0.10171800  1
  H  3581  1  0.57070100  0.40172600  0.15830000  1
  H  3582  1  0.56713400  0.35768900  0.10749600  1
  H  3584  1  0.53610200  0.41501600  0.18699500  1
  H  3586  1  0.48291200  0.41940900  0.18279800  1
  H  3593  1  0.95268500  0.13013700  0.88499300  1
  H  3598  1  0.95561000  0.17898800  0.93127600  1
  H  3603  1  0.07071650  0.14161100  0.87468900  1
  H  3604  1  0.06714650  0.18562100  0.92551400  1
  H  3606  1  0.03611750  0.12834100  0.84598200  1
  H  3608  1  0.98292400  0.12395800  0.85017100  1
  H  3615  1  0.56864500  0.63889400  0.15697300  1
  H  3620  1  0.56490200  0.68450100  0.10756400  1
  H  3625  1  0.45076800  0.62681400  0.14593100  1
  H  3626  1  0.45346900  0.67713800  0.10123200  1
  H  3628  1  0.48584400  0.59860100  0.15953700  1
  H  3630  1  0.53900300  0.60358500  0.16376200  1
  H  3637  1  0.06861850  0.90443400  0.87598000  1
  H  3642  1  0.06489250  0.85880200  0.92536500  1
  H  3647  1  0.95075000  0.91652100  0.88705100  1
  H  3648  1  0.95345400  0.86619000  0.93174200  1
  H  3650  1  0.98582100  0.94474900  0.87346300  1
  H  3652  1  0.03898450  0.93975900  0.86922300  1
  H  3659  1  0.31742000  0.62879500  0.88486100  1
  H  3664  1  0.31516900  0.67761700  0.93120300  1
  H  3669  1  0.19957500  0.64152500  0.87457700  1
  H  3670  1  0.20368500  0.68548000  0.92541600  1
  H  3672  1  0.23397100  0.62800800  0.84580200  1
  H  3674  1  0.28714600  0.62302700  0.84999600  1
  H  3681  1  0.81743600  0.91447800  0.14814000  1
  H  3686  1  0.81516100  0.86567500  0.10178000  1
  H  3691  1  0.69958700  0.90177500  0.15843500  1
  H  3692  1  0.70368000  0.85785200  0.10756800  1
  H  3694  1  0.73399500  0.91526500  0.18721400  1
  H  3696  1  0.78717100  0.92022600  0.18302100  1
  H  3703  1  0.70271600  0.90458600  0.37279000  1
  H  3708  1  0.70513100  0.85898800  0.42226700  1
  H  3713  1  0.82015900  0.91696100  0.38652800  1
  H  3714  1  0.81638200  0.86672300  0.43125500  1
  H  3716  1  0.78542200  0.94516800  0.37222800  1
  H  3718  1  0.73236500  0.94001900  0.36673400  1
  H  3725  1  0.20273000  0.63871000  0.66017000  1
  H  3730  1  0.20514000  0.68433000  0.61071400  1
  H  3735  1  0.32017300  0.62635000  0.64644200  1
  H  3736  1  0.31639900  0.67659400  0.60172300  1
  H  3738  1  0.28544500  0.59812400  0.66071800  1
  H  3740  1  0.23237700  0.60326600  0.66620600  1
  H  3747  1  0.95264100  0.91492600  0.64902100  1
  H  3752  1  0.95602500  0.86632800  0.60251000  1
  H  3757  1  0.07007550  0.90175500  0.66206000  1
  H  3758  1  0.06730250  0.85791000  0.61106100  1
  H  3760  1  0.03486650  0.91530500  0.69001200  1
  H  3762  1  0.98191000  0.92051100  0.68454200  1
  H  3769  1  0.45262400  0.62841400  0.38394800  1
  H  3774  1  0.45603600  0.67699400  0.43047600  1
  H  3779  1  0.57005800  0.64156500  0.37088500  1
  H  3780  1  0.56730900  0.68537900  0.42191100  1
  H  3782  1  0.53483700  0.62803800  0.34293300  1
  H  3784  1  0.48187800  0.62284800  0.34841200  1
  H  3791  1  0.06774950  0.13912400  0.65998100  1
  H  3796  1  0.06571850  0.18468600  0.61045400  1
  H  3801  1  0.95013000  0.12784200  0.64649800  1
  H  3802  1  0.95437400  0.17802600  0.60174300  1
  H  3804  1  0.98456600  0.09931260  0.66074800  1
  H  3806  1  0.03771050  0.10395500  0.66611500  1
  H  3813  1  0.56775300  0.40418800  0.37301000  1
  H  3818  1  0.56571500  0.35859400  0.42250500  1
  H  3823  1  0.45013500  0.41547600  0.38649000  1
  H  3824  1  0.45436800  0.36528200  0.43123100  1
  H  3826  1  0.48457200  0.44401900  0.37226500  1
  H  3828  1  0.53772300  0.43937200  0.36690000  1
  H  3835  1  0.81809300  0.12936800  0.38417100  1
  H  3840  1  0.81422700  0.17798000  0.43063900  1
  H  3845  1  0.70048000  0.14152700  0.37125200  1
  H  3846  1  0.70289400  0.18541800  0.42223100  1
  H  3848  1  0.73580400  0.12815500  0.34333400  1
  H  3850  1  0.78877800  0.12342500  0.34873400  1
  H  3857  1  0.31809600  0.41391800  0.64882700  1
  H  3862  1  0.31421300  0.36532000  0.60234400  1
  H  3867  1  0.20048500  0.40176000  0.66176900  1
  H  3868  1  0.20288600  0.35789200  0.61077000  1
  H  3870  1  0.23581900  0.41511800  0.68968600  1
  H  3872  1  0.28879300  0.41984200  0.68427800  1
  H  3879  1  0.39468800  0.43045900  0.06966080  1
  H  3884  1  0.38096700  0.36435500  0.06828880  1
  H  3889  1  0.39329700  0.42827700  0.96201600  1
  H  3890  1  0.38022000  0.36217500  0.96649400  1
  H  3892  1  0.41707100  0.45488000  0.99115700  1
  H  3894  1  0.41630100  0.45636300  0.03925280  1
  H  3901  1  0.89477000  0.11283000  0.96331500  1
  H  3906  1  0.88094500  0.17892000  0.96468600  1
  H  3911  1  0.89336500  0.11501200  0.07096480  1
  H  3912  1  0.88019200  0.18109400  0.06648480  1
  H  3914  1  0.91713700  0.08842160  0.04182780  1
  H  3916  1  0.91638500  0.08694160  0.99373200  1
  H  3923  1  0.64472500  0.21823800  0.17361900  1
  H  3928  1  0.63143700  0.21961200  0.10773500  1
  H  3933  1  0.64307400  0.32634500  0.17134500  1
  H  3934  1  0.63025100  0.32171200  0.10551300  1
  H  3936  1  0.66676600  0.29720900  0.19798500  1
  H  3938  1  0.66615800  0.24883300  0.19949600  1
  H  3945  1  0.14466400  0.32509900  0.85940000  1
  H  3950  1  0.13145200  0.32370500  0.92531000  1
  H  3955  1  0.14301600  0.21697900  0.86165800  1
  H  3956  1  0.13028800  0.22161400  0.92751700  1
  H  3958  1  0.16666900  0.24613000  0.83499800  1
  H  3960  1  0.16605500  0.29450400  0.83349500  1
  H  3967  1  0.37568900  0.61073400  0.96318900  1
  H  3972  1  0.38931900  0.67685500  0.96465600  1
  H  3977  1  0.37743400  0.61273900  0.07084680  1
  H  3978  1  0.39034000  0.67887600  0.06642480  1
  H  3980  1  0.35360400  0.58614300  0.04171980  1
  H  3982  1  0.35420300  0.58474700  0.99361900  1
  H  3989  1  0.87562200  0.93258700  0.06980380  1
  H  3994  1  0.88933800  0.86647800  0.06832080  1
  H  3999  1  0.87736200  0.93060800  0.96214200  1
  H  4000  1  0.89036200  0.86449000  0.96654700  1
  H  4002  1  0.85353600  0.95718600  0.99127200  1
  H  4004  1  0.85412900  0.95856800  0.03937480  1
  H  4011  1  0.12503500  0.82507500  0.85961000  1
  H  4016  1  0.13926600  0.82385300  0.92533800  1
  H  4021  1  0.12703700  0.71698500  0.86201700  1
  H  4022  1  0.14079600  0.72172900  0.92768900  1
  H  4024  1  0.10286300  0.74601000  0.83562900  1
  H  4026  1  0.10327100  0.79440100  0.83405400  1
  H  4033  1  0.62511300  0.71822200  0.17330700  1
  H  4038  1  0.63924300  0.71949200  0.10754800  1
  H  4043  1  0.62711000  0.82632400  0.17096100  1
  H  4044  1  0.64075600  0.82161000  0.10525600  1
  H  4046  1  0.60297900  0.79727600  0.19736600  1
  H  4048  1  0.60339700  0.74888400  0.19891000  1
  H  4055  1  0.89650600  0.93252700  0.56969400  1
  H  4060  1  0.88061300  0.86681300  0.56855700  1
  H  4065  1  0.89384500  0.93027000  0.46207100  1
  H  4066  1  0.87873900  0.86453100  0.46674400  1
  H  4068  1  0.91877700  0.95626400  0.49095000  1
  H  4070  1  0.91868300  0.95778100  0.53905400  1
  H  4077  1  0.39657700  0.61077700  0.46329200  1
  H  4082  1  0.38059200  0.67647800  0.46443100  1
  H  4087  1  0.39392600  0.61303200  0.57092000  1
  H  4088  1  0.37871900  0.67874600  0.56624700  1
  H  4090  1  0.41885900  0.58705200  0.54204100  1
  H  4092  1  0.41876400  0.58553700  0.49393300  1
  H  4099  1  0.14547000  0.71807000  0.67791100  1
  H  4104  1  0.13200100  0.71947000  0.61205300  1
  H  4109  1  0.14276300  0.82617900  0.67583800  1
  H  4110  1  0.12982400  0.82156000  0.61001800  1
  H  4112  1  0.16681800  0.79719100  0.70237300  1
  H  4114  1  0.16675100  0.74879300  0.70377300  1
  H  4121  1  0.64541100  0.82524100  0.35507700  1
  H  4126  1  0.63202000  0.82381700  0.42096200  1
  H  4131  1  0.64269800  0.71712500  0.35712400  1
  H  4132  1  0.62985300  0.72173500  0.42297000  1
  H  4134  1  0.66666667  0.74612300  0.33057200  1
  H  4136  1  0.66666667  0.79452000  0.32918500  1
  H  4143  1  0.87409900  0.11243900  0.46343900  1
  H  4148  1  0.89009200  0.17813500  0.46445800  1
  H  4153  1  0.87658100  0.11489800  0.57105000  1
  H  4154  1  0.89183600  0.18060000  0.56628100  1
  H  4156  1  0.85166600  0.08888160  0.54218800  1
  H  4158  1  0.85185600  0.08726560  0.49409100  1
  H  4165  1  0.37402400  0.43088600  0.56954600  1
  H  4170  1  0.39010400  0.36520700  0.56852200  1
  H  4175  1  0.37652000  0.42843800  0.46192900  1
  H  4176  1  0.39185500  0.36275600  0.46669400  1
  H  4178  1  0.35160900  0.45444200  0.49079100  1
  H  4180  1  0.35177900  0.45605000  0.53888700  1
  H  4187  1  0.62574800  0.32522500  0.35514400  1
  H  4192  1  0.63854300  0.32370200  0.42110700  1
  H  4197  1  0.62799800  0.21710100  0.35713200  1
  H  4198  1  0.64026700  0.22162300  0.42306000  1
  H  4200  1  0.60434500  0.24620500  0.33042000  1
  H  4202  1  0.60465300  0.29459200  0.32905800  1
  H  4209  1  0.12581400  0.21804800  0.67782000  1
  H  4214  1  0.13852000  0.21960600  0.61183000  1
  H  4219  1  0.12807200  0.32618400  0.67587500  1
  H  4220  1  0.14023800  0.32167800  0.60992000  1
  H  4222  1  0.10445800  0.29706000  0.70260200  1
  H  4224  1  0.10476800  0.24867500  0.70394500  1
  C  1  1  0.98074200  0.36756400  0.88387200  1
  C  2  1  0.95633700  0.36378700  0.88036700  1
  C  3  1  0.94046800  0.35966000  0.89718600  1
  C  4  1  0.94968800  0.35914900  0.91801900  1
  C  5  1  0.97395200  0.36255700  0.92238600  1
  C  6  1  0.98977800  0.36711200  0.90519100  1
  C  9  1  0.99362100  0.37573100  0.86590800  1
  C  10  1  0.99626100  0.36431700  0.84623500  1
  C  11  1  0.00419800  0.37548700  0.82770000  1
  C  12  1  0.00885200  0.39765100  0.82909500  1
  C  13  1  0.00564400  0.40918400  0.84813400  1
  C  14  1  0.99836000  0.39797200  0.86643400  1
  C  23  1  0.48074200  0.11175400  0.11726900  1
  C  24  1  0.45634300  0.11554400  0.12078600  1
  C  25  1  0.44047500  0.11966800  0.10396500  1
  C  26  1  0.44969200  0.12013900  0.08313000  1
  C  27  1  0.47396200  0.11675400  0.07876000  1
  C  28  1  0.48978700  0.11220100  0.09595500  1
  C  31  1  0.49362500  0.10357100  0.13523400  1
  C  32  1  0.49626600  0.11499400  0.15489900  1
  C  33  1  0.50422000  0.10382400  0.17343200  1
  C  34  1  0.50883500  0.08165100  0.17203500  1
  C  35  1  0.50561100  0.07012500  0.15299200  1
  C  36  1  0.49832000  0.08132700  0.13469400  1
  C  45  1  0.23113100  0.35650000  0.12735400  1
  C  46  1  0.20679100  0.36033200  0.12354500  1
  C  47  1  0.19077600  0.34363200  0.11908300  1
  C  48  1  0.19979100  0.32263300  0.11832700  1
  C  49  1  0.22398900  0.31803500  0.12180800  1
  C  50  1  0.23999000  0.33506200  0.12664300  1
  C  53  1  0.24417000  0.37422900  0.13582300  1
  C  54  1  0.24751800  0.39388800  0.12448600  1
  C  55  1  0.25570700  0.41229700  0.13577800  1
  C  56  1  0.26013300  0.41075700  0.15786700  1
  C  57  1  0.25635400  0.39164800  0.16924100  1
  C  58  1  0.24866800  0.37346900  0.15798100  1
  C  67  1  0.73115000  0.12284600  0.87379100  1
  C  68  1  0.70681200  0.11900500  0.87759700  1
  C  69  1  0.69079100  0.13569400  0.88208200  1
  C  70  1  0.69980300  0.15669500  0.88285400  1
  C  71  1  0.72400100  0.16130300  0.87938700  1
  C  72  1  0.74000000  0.14428600  0.87451000  1
  C  75  1  0.74420500  0.10512000  0.86533500  1
  C  76  1  0.74758900  0.08547800  0.87668800  1
  C  77  1  0.75586300  0.06707900  0.86543400  1
  C  78  1  0.76024800  0.06860300  0.84333300  1
  C  79  1  0.75641000  0.08768900  0.83193200  1
  C  80  1  0.74872300  0.10587500  0.84318100  1
  C  89  1  0.47702000  0.11106300  0.88375100  1
  C  90  1  0.50123300  0.11552600  0.87990700  1
  C  91  1  0.51740300  0.11958300  0.89652500  1
  C  92  1  0.50874300  0.11912000  0.91755700  1
  C  93  1  0.48474600  0.11483900  0.92222000  1
  C  94  1  0.46853800  0.11065300  0.90525600  1
  C  97  1  0.46393400  0.10296600  0.86585100  1
  C  98  1  0.46094300  0.11447300  0.84626700  1
  C  99  1  0.45275000  0.10338100  0.82777200  1
  C  100  1  0.44802700  0.08122900  0.82913100  1
  C  101  1  0.45139500  0.06963500  0.84810700  1
  C  102  1  0.45912900  0.08073200  0.86632100  1
  C  111  1  0.97701200  0.36826200  0.11738900  1
  C  112  1  0.00122200  0.36380600  0.12124400  1
  C  113  1  0.01739100  0.35976200  0.10462000  1
  C  114  1  0.00872700  0.36022400  0.08358900  1
  C  115  1  0.98472100  0.36446900  0.07892500  1
  C  116  1  0.96851300  0.36865500  0.09588900  1
  C  119  1  0.96391700  0.37636700  0.13528800  1
  C  120  1  0.96092800  0.36484900  0.15486500  1
  C  121  1  0.95271400  0.37593500  0.17335800  1
  C  122  1  0.94801600  0.39809600  0.17199700  1
  C  123  1  0.95139600  0.40968500  0.15302000  1
  C  124  1  0.95914000  0.39860100  0.13480600  1
  C  133  1  0.22663300  0.12259300  0.12823500  1
  C  134  1  0.25076600  0.11837000  0.12375600  1
  C  135  1  0.26711400  0.13484100  0.11937400  1
  C  136  1  0.25870400  0.15606100  0.11954700  1
  C  137  1  0.23478700  0.16100500  0.12385900  1
  C  138  1  0.21838200  0.14424400  0.12838500  1
  C  141  1  0.21335200  0.10494100  0.13660600  1
  C  142  1  0.20966100  0.08538500  0.12516700  1
  C  143  1  0.20120600  0.06701400  0.13636400  1
  C  144  1  0.19668500  0.06851000  0.15844000  1
  C  145  1  0.20061100  0.08754400  0.16988600  1
  C  146  1  0.20876100  0.10563400  0.15875400  1
  C  155  1  0.72662200  0.35672100  0.87289900  1
  C  156  1  0.75075300  0.36095400  0.87737400  1
  C  157  1  0.76710100  0.34449300  0.88179400  1
  C  158  1  0.75869100  0.32327100  0.88164400  1
  C  159  1  0.73477400  0.31831500  0.87734300  1
  C  160  1  0.71837400  0.33506900  0.87276700  1
  C  163  1  0.71332300  0.37437000  0.86454100  1
  C  164  1  0.70959900  0.39390600  0.87599700  1
  C  165  1  0.70106100  0.41226800  0.86483800  1
  C  166  1  0.69657800  0.41079200  0.84275100  1
  C  167  1  0.70056100  0.39178100  0.83127600  1
  C  168  1  0.70871500  0.37368500  0.84239600  1
  C  177  1  0.97502200  0.60943800  0.11717900  1
  C  178  1  0.99940700  0.61333400  0.12066700  1
  C  179  1  0.01523300  0.61756800  0.10384000  1
  C  180  1  0.00599500  0.61800800  0.08301200  1
  C  181  1  0.98175000  0.61446800  0.07865900  1
  C  182  1  0.96596300  0.60985400  0.09586700  1
  C  185  1  0.96217500  0.60126800  0.13516200  1
  C  186  1  0.95952700  0.61269200  0.15482800  1
  C  187  1  0.95156600  0.60153300  0.17336300  1
  C  188  1  0.94688300  0.57937600  0.17196800  1
  C  189  1  0.95008000  0.56783400  0.15293200  1
  C  190  1  0.95740900  0.57903200  0.13464000  1
  C  199  1  0.47501600  0.86989400  0.88395600  1
  C  200  1  0.49939700  0.86599000  0.88046000  1
  C  201  1  0.51521700  0.86176200  0.89729100  1
  C  202  1  0.50598100  0.86135900  0.91812000  1
  C  203  1  0.48173100  0.86487300  0.92247200  1
  C  204  1  0.46594400  0.86948400  0.90526300  1
  C  207  1  0.46216500  0.87806900  0.86596900  1
  C  208  1  0.45951100  0.86662400  0.84631800  1
  C  209  1  0.45153100  0.87777100  0.82777900  1
  C  210  1  0.44688000  0.89993900  0.82916300  1
  C  211  1  0.45010000  0.91148400  0.84819500  1
  C  212  1  0.45744200  0.90031000  0.86649100  1
  C  221  1  0.72433100  0.62289400  0.87403400  1
  C  222  1  0.74868200  0.61901900  0.87773300  1
  C  223  1  0.76476400  0.63568300  0.88212800  1
  C  224  1  0.75579700  0.65669700  0.88297200  1
  C  225  1  0.73158600  0.66134100  0.87961100  1
  C  226  1  0.71552300  0.64434500  0.87481900  1
  C  229  1  0.71123600  0.60519800  0.86556400  1
  C  230  1  0.70794700  0.58550900  0.87686500  1
  C  231  1  0.69979600  0.56710600  0.86554200  1
  C  232  1  0.69534800  0.56868400  0.84345800  1
  C  233  1  0.69905000  0.58782400  0.83212100  1
  C  234  1  0.70669800  0.60599800  0.84341400  1
  C  243  1  0.22433300  0.85641700  0.12714200  1
  C  244  1  0.24868200  0.86029900  0.12345000  1
  C  245  1  0.26476500  0.84364400  0.11902500  1
  C  246  1  0.25580000  0.82263000  0.11815600  1
  C  247  1  0.23158500  0.81797900  0.12150000  1
  C  248  1  0.21552900  0.83496600  0.12633900  1
  C  251  1  0.21122000  0.87410900  0.13559800  1
  C  252  1  0.20790200  0.89378200  0.12428400  1
  C  253  1  0.19964400  0.91216900  0.13556600  1
  C  254  1  0.19525700  0.91062200  0.15766500  1
  C  255  1  0.19902900  0.89149900  0.16902000  1
  C  256  1  0.20666000  0.87331100  0.15774400  1
  C  265  1  0.47826200  0.87039100  0.11746700  1
  C  266  1  0.45411100  0.86567000  0.12131400  1
  C  267  1  0.43798800  0.86142400  0.10470300  1
  C  268  1  0.44663400  0.86198400  0.08366900  1
  C  269  1  0.47057100  0.86652400  0.07900000  1
  C  270  1  0.48673100  0.87088200  0.09595800  1
  C  273  1  0.49126800  0.87858400  0.13537300  1
  C  274  1  0.49433300  0.86710400  0.15496400  1
  C  275  1  0.50242700  0.87825400  0.17345900  1
  C  276  1  0.50702100  0.90042800  0.17208600  1
  C  277  1  0.50362800  0.91198400  0.15309000  1
  C  278  1  0.49595100  0.90083900  0.13488700  1
  C  287  1  0.97824500  0.60890200  0.88366900  1
  C  288  1  0.95409600  0.61362200  0.87981700  1
  C  289  1  0.93798200  0.61785800  0.89643600  1
  C  290  1  0.94663900  0.61729500  0.91746800  1
  C  291  1  0.97058400  0.61278500  0.92213200  1
  C  292  1  0.98673700  0.60842200  0.90516900  1
  C  295  1  0.99125500  0.60070800  0.86575700  1
  C  296  1  0.99431900  0.61221100  0.84618100  1
  C  297  1  0.00241000  0.60106300  0.82768200  1
  C  298  1  0.00700400  0.57888600  0.82904400  1
  C  299  1  0.00359600  0.56732700  0.84803400  1
  C  300  1  0.99590300  0.57844900  0.86624300  1
  C  309  1  0.72898700  0.85676900  0.87301000  1
  C  310  1  0.70487900  0.86113900  0.87745100  1
  C  311  1  0.68839200  0.84477300  0.88180800  1
  C  312  1  0.69664500  0.82350200  0.88167800  1
  C  313  1  0.72053800  0.81841100  0.87741300  1
  C  314  1  0.73707900  0.83506900  0.87289900  1
  C  317  1  0.74239400  0.87433200  0.86461400  1
  C  318  1  0.74615000  0.89390100  0.87601000  1
  C  319  1  0.75462600  0.91223800  0.86476800  1
  C  320  1  0.75911600  0.91069100  0.84269100  1
  C  321  1  0.75515400  0.89163200  0.83129500  1
  C  322  1  0.74697600  0.87357800  0.84246500  1
  C  331  1  0.22901400  0.62257900  0.12809400  1
  C  332  1  0.20490600  0.61819700  0.12366300  1
  C  333  1  0.18841600  0.63455100  0.11927300  1
  C  334  1  0.19666700  0.65582500  0.11937800  1
  C  335  1  0.22055900  0.66092700  0.12362500  1
  C  336  1  0.23709700  0.64428100  0.12818300  1
  C  339  1  0.24244100  0.60502400  0.13648000  1
  C  340  1  0.24622500  0.58546600  0.12507200  1
  C  341  1  0.25479900  0.56715000  0.13628000  1
  C  342  1  0.25923100  0.56867800  0.15837300  1
  C  343  1  0.25522200  0.58771900  0.16979100  1
  C  344  1  0.24704900  0.60577800  0.15862200  1
  C  353  1  0.48054200  0.86977800  0.38401600  1
  C  354  1  0.45614500  0.86611500  0.38037600  1
  C  355  1  0.44012800  0.86204500  0.39709600  1
  C  356  1  0.44919400  0.86148500  0.41798300  1
  C  357  1  0.47345100  0.86478700  0.42249300  1
  C  358  1  0.48942700  0.86925500  0.40538200  1
  C  361  1  0.49360300  0.87784000  0.36610500  1
  C  362  1  0.49619600  0.86640800  0.34643800  1
  C  363  1  0.50427300  0.87751500  0.32791600  1
  C  364  1  0.50914400  0.89963900  0.32932800  1
  C  365  1  0.50599200  0.91120100  0.34836000  1
  C  366  1  0.49855200  0.90004400  0.36664300  1
  C  375  1  0.98054500  0.60954700  0.61713500  1
  C  376  1  0.95615300  0.61322300  0.62077900  1
  C  377  1  0.94014500  0.61728700  0.60404900  1
  C  378  1  0.94921700  0.61781200  0.58316400  1
  C  379  1  0.97348100  0.61453300  0.57866000  1
  C  380  1  0.98945000  0.61006500  0.59577700  1
  C  383  1  0.99360100  0.60146600  0.63504900  1
  C  384  1  0.99619500  0.61291100  0.65470800  1
  C  385  1  0.00425900  0.60179100  0.67323200  1
  C  386  1  0.00911400  0.57966200  0.67181900  1
  C  387  1  0.00594500  0.56811000  0.65278400  1
  C  388  1  0.99849700  0.57925600  0.63450100  1
  C  397  1  0.73074600  0.85634000  0.63199200  1
  C  398  1  0.70646600  0.86022600  0.62795300  1
  C  399  1  0.69046400  0.84358000  0.62326400  1
  C  400  1  0.69941800  0.82255600  0.62257800  1
  C  401  1  0.72355700  0.81789300  0.62632400  1
  C  402  1  0.73955400  0.83488300  0.63131700  1
  C  405  1  0.74377100  0.87406000  0.64051100  1
  C  406  1  0.74714200  0.89373300  0.62920100  1
  C  407  1  0.75529100  0.91213400  0.64052900  1
  C  408  1  0.75971500  0.91056300  0.66261400  1
  C  409  1  0.75596700  0.89142900  0.67395100  1
  C  410  1  0.74826700  0.87326800  0.66267000  1
  C  419  1  0.23074200  0.62297900  0.36909500  1
  C  420  1  0.20646100  0.61908800  0.37313300  1
  C  421  1  0.19046100  0.63572600  0.37785000  1
  C  422  1  0.19941500  0.65674800  0.37856000  1
  C  423  1  0.22355700  0.66141800  0.37482600  1
  C  424  1  0.23954500  0.64443600  0.36978900  1
  C  427  1  0.24377600  0.60526600  0.36057700  1
  C  428  1  0.24716200  0.58559400  0.37188300  1
  C  429  1  0.25538700  0.56720900  0.36057900  1
  C  430  1  0.25977000  0.56878300  0.33848200  1
  C  431  1  0.25598700  0.58790900  0.32713600  1
  C  432  1  0.24830000  0.60607200  0.33842500  1
  C  441  1  0.97715000  0.60887800  0.38365000  1
  C  442  1  0.00129400  0.61342500  0.37957400  1
  C  443  1  0.01767800  0.61748700  0.39602500  1
  C  444  1  0.00929500  0.61695600  0.41714900  1
  C  445  1  0.98536800  0.61259400  0.42204300  1
  C  446  1  0.96894700  0.60842100  0.40524000  1
  C  449  1  0.96387600  0.60077500  0.36586100  1
  C  450  1  0.96076500  0.61225700  0.34627700  1
  C  451  1  0.95250300  0.60115100  0.32781200  1
  C  452  1  0.94777800  0.57900100  0.32922900  1
  C  453  1  0.95121900  0.56743400  0.34821000  1
  C  454  1  0.95905700  0.57854400  0.36637900  1
  C  463  1  0.47716900  0.87045500  0.61750100  1
  C  464  1  0.50130700  0.86590900  0.62158300  1
  C  465  1  0.51768200  0.86185600  0.60512200  1
  C  466  1  0.50929100  0.86239400  0.58400000  1
  C  467  1  0.48535600  0.86672600  0.57911100  1
  C  468  1  0.46894100  0.87090300  0.59592000  1
  C  471  1  0.46389100  0.87856300  0.63529500  1
  C  472  1  0.46078000  0.86705700  0.65486400  1
  C  473  1  0.45252700  0.87817300  0.67332400  1
  C  474  1  0.44779100  0.90032200  0.67192100  1
  C  475  1  0.45123200  0.91189400  0.65294200  1
  C  476  1  0.45910400  0.90079800  0.63477600  1
  C  485  1  0.72701500  0.62248000  0.63280500  1
  C  486  1  0.75101200  0.61809500  0.62791100  1
  C  487  1  0.76739300  0.63443900  0.62316500  1
  C  488  1  0.75915800  0.65571500  0.62342200  1
  C  489  1  0.73537800  0.66082500  0.62815200  1
  C  490  1  0.71893900  0.64418300  0.63301700  1
  C  493  1  0.71373900  0.60490700  0.64136400  1
  C  494  1  0.70985600  0.58532200  0.63002600  1
  C  495  1  0.70150900  0.56699900  0.64136600  1
  C  496  1  0.69720000  0.56858500  0.66346700  1
  C  497  1  0.70121800  0.58767600  0.67479500  1
  C  498  1  0.70934200  0.60569900  0.66354400  1
  C  507  1  0.22700000  0.85680900  0.36830900  1
  C  508  1  0.25099500  0.86120300  0.37319800  1
  C  509  1  0.26738000  0.84487100  0.37797400  1
  C  510  1  0.25914600  0.82359300  0.37773800  1
  C  511  1  0.23536600  0.81847200  0.37302100  1
  C  512  1  0.21893100  0.83510400  0.36811300  1
  C  515  1  0.21370400  0.87437600  0.35976700  1
  C  516  1  0.20978500  0.89394100  0.37112800  1
  C  517  1  0.20135500  0.91225700  0.35983100  1
  C  518  1  0.19708500  0.91069600  0.33771800  1
  C  519  1  0.20116000  0.89163200  0.32635700  1
  C  520  1  0.20928900  0.87359900  0.33759300  1
  C  529  1  0.47490800  0.11146400  0.61721400  1
  C  530  1  0.49932400  0.11502600  0.62084400  1
  C  531  1  0.51535900  0.11898900  0.60411300  1
  C  532  1  0.50628600  0.11958800  0.58323000  1
  C  533  1  0.48200700  0.11640100  0.57873200  1
  C  534  1  0.46601900  0.11200400  0.59585200  1
  C  537  1  0.46183600  0.10341400  0.63512200  1
  C  538  1  0.45924900  0.11484700  0.65478900  1
  C  539  1  0.45117500  0.10374700  0.67332100  1
  C  540  1  0.44633600  0.08161500  0.67190900  1
  C  541  1  0.44948800  0.07005100  0.65287800  1
  C  542  1  0.45690100  0.08120900  0.63458900  1
  C  551  1  0.97492000  0.36785900  0.38391700  1
  C  552  1  0.99933100  0.36428300  0.38027900  1
  C  553  1  0.01536000  0.36032700  0.39701700  1
  C  554  1  0.00628400  0.35976500  0.41790200  1
  C  555  1  0.98200000  0.36293100  0.42239600  1
  C  556  1  0.96601500  0.36732900  0.40527500  1
  C  559  1  0.96184800  0.37592000  0.36600600  1
  C  560  1  0.95925900  0.36446700  0.34635400  1
  C  561  1  0.95120600  0.37558300  0.32782400  1
  C  562  1  0.94637300  0.39771800  0.32921800  1
  C  563  1  0.94954100  0.40927500  0.34825000  1
  C  564  1  0.95696300  0.39813200  0.36654300  1
  C  573  1  0.22467300  0.12289300  0.36921600  1
  C  574  1  0.24894100  0.11901700  0.37334100  1
  C  575  1  0.26491000  0.13567400  0.37808700  1
  C  576  1  0.25594100  0.15669400  0.37871100  1
  C  577  1  0.23181900  0.16134600  0.37487400  1
  C  578  1  0.21585400  0.14434800  0.36984000  1
  C  581  1  0.21167700  0.10516300  0.36068100  1
  C  582  1  0.20824900  0.08550400  0.37200400  1
  C  583  1  0.20007100  0.06710900  0.36068400  1
  C  584  1  0.19567000  0.06867700  0.33859400  1
  C  585  1  0.19949500  0.08778700  0.32723900  1
  C  586  1  0.20722900  0.10594100  0.33851400  1
  C  595  1  0.72466900  0.35639100  0.63197400  1
  C  596  1  0.74893500  0.36027600  0.62785200  1
  C  597  1  0.76490800  0.34362900  0.62308400  1
  C  598  1  0.75594400  0.32260800  0.62244300  1
  C  599  1  0.73182000  0.31794600  0.62626400  1
  C  600  1  0.71585700  0.33493300  0.63133800  1
  C  603  1  0.71165400  0.37411600  0.64049000  1
  C  604  1  0.70819400  0.39375800  0.62915000  1
  C  605  1  0.69991100  0.41213700  0.64042700  1
  C  606  1  0.69556500  0.41059800  0.66253100  1
  C  607  1  0.69944300  0.39150900  0.67391600  1
  C  608  1  0.70717700  0.37334800  0.66265200  1
  C  617  1  0.97845300  0.36871000  0.61741200  1
  C  618  1  0.95424900  0.36440900  0.62146000  1
  C  619  1  0.93784000  0.36053800  0.60498400  1
  C  620  1  0.94625800  0.36100700  0.58387000  1
  C  621  1  0.97024400  0.36512500  0.57900400  1
  C  622  1  0.98669100  0.36911000  0.59583100  1
  C  625  1  0.99178900  0.37669900  0.63521100  1
  C  626  1  0.99482000  0.36516900  0.65477600  1
  C  627  1  0.00318300  0.37619700  0.67325200  1
  C  628  1  0.00804700  0.39832600  0.67186700  1
  C  629  1  0.00466400  0.40994900  0.65291000  1
  C  630  1  0.99675300  0.39890300  0.63472700  1
  C  639  1  0.47844600  0.11059500  0.38372300  1
  C  640  1  0.45424600  0.11489800  0.37966800  1
  C  641  1  0.43784600  0.11875800  0.39615400  1
  C  642  1  0.44627300  0.11828600  0.41726500  1
  C  643  1  0.47026800  0.11419600  0.42212600  1
  C  644  1  0.48670800  0.11020500  0.40529400  1
  C  647  1  0.49178400  0.10259900  0.36591900  1
  C  648  1  0.49481500  0.11415100  0.34636800  1
  C  649  1  0.50316700  0.10311300  0.32789500  1
  C  650  1  0.50803400  0.08098400  0.32926300  1
  C  651  1  0.50463400  0.06936300  0.34821800  1
  C  652  1  0.49670800  0.08038900  0.36640400  1
  C  661  1  0.22859100  0.35679100  0.36851500  1
  C  662  1  0.20457400  0.36106900  0.37342700  1
  C  663  1  0.18829200  0.34464800  0.37818400  1
  C  664  1  0.19664100  0.32340900  0.37789800  1
  C  665  1  0.22043900  0.31840300  0.37314200  1
  C  666  1  0.23678200  0.33512000  0.36827500  1
  C  669  1  0.24178100  0.37442800  0.35998200  1
  C  670  1  0.24561900  0.39399800  0.37135900  1
  C  671  1  0.25397500  0.41234000  0.36006000  1
  C  672  1  0.25830300  0.41080500  0.33795900  1
  C  673  1  0.25428300  0.39174300  0.32658300  1
  C  674  1  0.24617700  0.37369000  0.33780300  1
  C  683  1  0.72859000  0.12252300  0.63265300  1
  C  684  1  0.70457600  0.11824000  0.62773800  1
  C  685  1  0.68829700  0.13465100  0.62293900  1
  C  686  1  0.69664900  0.15589100  0.62320000  1
  C  687  1  0.72044900  0.16090500  0.62795000  1
  C  688  1  0.73677900  0.14419400  0.63287200  1
  C  691  1  0.74178600  0.10489100  0.64118800  1
  C  692  1  0.74564700  0.08532700  0.62980900  1
  C  693  1  0.75405900  0.06699100  0.64108400  1
  C  694  1  0.75835400  0.06853000  0.66319500  1
  C  695  1  0.75429000  0.08757900  0.67458500  1
  C  696  1  0.74619400  0.10563500  0.66336400  1
  C  705  1  0.00308800  0.36761700  0.69436800  1
  C  706  1  0.02410300  0.36685600  0.70655900  1
  C  708  1  0.00251700  0.36292200  0.73917200  1
  C  709  1  0.98069000  0.36304200  0.72786100  1
  C  710  1  0.98137800  0.36530400  0.70540100  1
  C  712  1  0.00266400  0.36278200  0.76171000  1
  C  713  1  0.02468300  0.36632600  0.79413900  1
  C  714  1  0.00382200  0.36700300  0.80654600  1
  C  715  1  0.98196600  0.36476500  0.79573100  1
  C  718  1  0.98099000  0.36277400  0.77325400  1
  C  719  1  0.95928600  0.36226300  0.76192600  1
  C  720  1  0.95913700  0.36239400  0.73941000  1
  C  727  1  0.50308200  0.11170900  0.30678100  1
  C  728  1  0.52410100  0.11245800  0.29459200  1
  C  730  1  0.50251000  0.11639200  0.26198000  1
  C  731  1  0.48068900  0.11630700  0.27329500  1
  C  732  1  0.48137300  0.11407200  0.29575600  1
  C  734  1  0.50265400  0.11651300  0.23944100  1
  C  735  1  0.52465200  0.11291600  0.20701000  1
  C  736  1  0.50379100  0.11228400  0.19459000  1
  C  737  1  0.48195400  0.11451400  0.20543100  1
  C  740  1  0.48097600  0.11654900  0.22790100  1
  C  741  1  0.45927700  0.11709500  0.23923200  1
  C  742  1  0.45913400  0.11697900  0.26175100  1
  C  749  1  0.25494700  0.54594200  0.12783000  1
  C  750  1  0.27600300  0.53373600  0.12758300  1
  C  752  1  0.25449600  0.50105100  0.12294600  1
  C  753  1  0.23268200  0.51241100  0.12242400  1
  C  754  1  0.23331200  0.53495100  0.12474900  1
  C  756  1  0.25463600  0.47843300  0.12283800  1
  C  757  1  0.27654000  0.44592600  0.12720700  1
  C  758  1  0.25563300  0.43351600  0.12735300  1
  C  759  1  0.23386000  0.44431000  0.12436800  1
  C  762  1  0.23295800  0.46686100  0.12221900  1
  C  763  1  0.21128100  0.47822500  0.12101600  1
  C  764  1  0.21114400  0.50084600  0.12111200  1
  C  771  1  0.75485500  0.93342800  0.87326400  1
  C  772  1  0.77593200  0.94559800  0.87348800  1
  C  774  1  0.75449500  0.97830800  0.87818600  1
  C  775  1  0.73265500  0.96698300  0.87869600  1
  C  776  1  0.73323700  0.94443900  0.87636700  1
  C  778  1  0.75467600  0.00092700  0.87830600  1
  C  779  1  0.77665300  0.03340000  0.87400200  1
  C  780  1  0.75578300  0.04585600  0.87384300  1
  C  781  1  0.73398200  0.03508500  0.87678200  1
  C  784  1  0.73302500  0.01253500  0.87891900  1
  C  785  1  0.71132400  0.00120700  0.88009700  1
  C  786  1  0.71114000  0.97858600  0.87999000  1
  C  793  1  0.45166200  0.11221500  0.69447800  1
  C  794  1  0.43085500  0.11295200  0.70695300  1
  C  796  1  0.45299600  0.11656100  0.73930400  1
  C  797  1  0.47463100  0.11645900  0.72770100  1
  C  798  1  0.47356100  0.11436900  0.70523700  1
  C  800  1  0.45322500  0.11652000  0.76184400  1
  C  801  1  0.43173900  0.11276800  0.79453500  1
  C  802  1  0.45279800  0.11197100  0.80665900  1
  C  803  1  0.47447900  0.11423100  0.79556900  1
  C  806  1  0.47508900  0.11637800  0.77309500  1
  C  807  1  0.49660300  0.11691200  0.76148200  1
  C  808  1  0.49637600  0.11695000  0.73896400  1
  C  815  1  0.95167800  0.36710200  0.30666800  1
  C  816  1  0.93086700  0.36637600  0.29419400  1
  C  818  1  0.95300700  0.36276300  0.26184300  1
  C  819  1  0.97464000  0.36283200  0.27344800  1
  C  820  1  0.97357700  0.36489700  0.29591300  1
  C  822  1  0.95323300  0.36281600  0.23930500  1
  C  823  1  0.93175800  0.36659500  0.20661200  1
  C  824  1  0.95281700  0.36736800  0.19447600  1
  C  825  1  0.97448400  0.36512000  0.20558700  1
  C  828  1  0.97509900  0.36292800  0.22805400  1
  C  829  1  0.99661100  0.36236500  0.23966700  1
  C  830  1  0.99638500  0.36231500  0.26218500  1
  C  837  1  0.19987600  0.93341800  0.12722400  1
  C  838  1  0.17901900  0.94589800  0.12700900  1
  C  840  1  0.20106500  0.97834500  0.12277200  1
  C  841  1  0.22269800  0.96670900  0.12221800  1
  C  842  1  0.22169900  0.94415800  0.12433100  1
  C  844  1  0.20128300  0.00096400  0.12289200  1
  C  845  1  0.17987800  0.03370600  0.12751200  1
  C  846  1  0.20097800  0.04584300  0.12782400  1
  C  847  1  0.22258800  0.03479800  0.12480200  1
  C  850  1  0.22314300  0.01225900  0.12245200  1
  C  851  1  0.24464300  0.00062800  0.12121200  1
  C  852  1  0.24442100  0.97800700  0.12109500  1
  C  859  1  0.69995100  0.54587000  0.87392300  1
  C  860  1  0.67907300  0.53342500  0.87411100  1
  C  862  1  0.70105700  0.50095200  0.87839000  1
  C  863  1  0.72271300  0.51255900  0.87893600  1
  C  864  1  0.72175800  0.53511300  0.87683000  1
  C  866  1  0.70123800  0.47833300  0.87826900  1
  C  867  1  0.67976800  0.44562000  0.87369800  1
  C  868  1  0.70083400  0.43344100  0.87336700  1
  C  869  1  0.72247200  0.44446500  0.87634900  1
  C  872  1  0.72307500  0.46700500  0.87869600  1
  C  873  1  0.74459800  0.47860200  0.87991700  1
  C  874  1  0.74441700  0.50122400  0.88003300  1
  C  881  1  0.95257600  0.60969600  0.30668200  1
  C  882  1  0.93156800  0.61035500  0.29447600  1
  C  884  1  0.95317100  0.61429300  0.26187200  1
  C  885  1  0.97498700  0.61427400  0.27319900  1
  C  886  1  0.97428500  0.61206200  0.29566400  1
  C  888  1  0.95304700  0.61437200  0.23933300  1
  C  889  1  0.93107600  0.61064300  0.20690200  1
  C  890  1  0.95195800  0.61001900  0.19452000  1
  C  891  1  0.97379300  0.61237400  0.20533400  1
  C  894  1  0.97473400  0.61442000  0.22780600  1
  C  895  1  0.99642400  0.61503600  0.23914900  1
  C  896  1  0.99654900  0.61496500  0.26166800  1
  C  903  1  0.45258900  0.86961500  0.69445200  1
  C  904  1  0.43157800  0.86895300  0.70665200  1
  C  906  1  0.45317500  0.86502200  0.73926000  1
  C  907  1  0.47499100  0.86502500  0.72793400  1
  C  908  1  0.47429800  0.86721400  0.70547000  1
  C  910  1  0.45304800  0.86494900  0.76179900  1
  C  911  1  0.43107300  0.86866300  0.79423100  1
  C  912  1  0.45194900  0.86929100  0.80662600  1
  C  913  1  0.47377700  0.86697400  0.79579500  1
  C  916  1  0.47473200  0.86488600  0.77332700  1
  C  917  1  0.49642200  0.86425900  0.76198700  1
  C  918  1  0.49655200  0.86432300  0.73946800  1
  C  925  1  0.50371500  0.86907000  0.30674600  1
  C  926  1  0.52452400  0.86839000  0.29425800  1
  C  928  1  0.50234700  0.86484900  0.26191500  1
  C  929  1  0.48073000  0.86481600  0.27354300  1
  C  930  1  0.48181800  0.86681900  0.29601400  1
  C  932  1  0.50209200  0.86498100  0.23937900  1
  C  933  1  0.52350900  0.86894300  0.20667700  1
  C  934  1  0.50243400  0.86966500  0.19456600  1
  C  935  1  0.48078700  0.86730000  0.20568900  1
  C  938  1  0.48021200  0.86506200  0.22815300  1
  C  939  1  0.45871600  0.86439700  0.23978500  1
  C  940  1  0.45897300  0.86427700  0.26230300  1
  C  947  1  0.00371100  0.61023800  0.69440100  1
  C  948  1  0.02451300  0.61087000  0.70689800  1
  C  950  1  0.00234400  0.61447700  0.73923300  1
  C  951  1  0.98072800  0.61452100  0.72760100  1
  C  952  1  0.98181400  0.61252100  0.70512900  1
  C  954  1  0.00208200  0.61434600  0.76177000  1
  C  955  1  0.02350000  0.61040400  0.79447500  1
  C  956  1  0.00242000  0.60966500  0.80657900  1
  C  957  1  0.98077400  0.61203800  0.79545700  1
  C  960  1  0.98020100  0.61427700  0.77299300  1
  C  961  1  0.95870800  0.61494600  0.76136000  1
  C  962  1  0.95896900  0.61506100  0.73884100  1
  C  969  1  0.75434100  0.04579600  0.63261800  1
  C  970  1  0.77540000  0.03360600  0.63244400  1
  C  972  1  0.75395800  0.00089500  0.62776700  1
  C  973  1  0.73212300  0.01222500  0.62724100  1
  C  974  1  0.73271800  0.03476500  0.62957800  1
  C  976  1  0.75413500  0.97827700  0.62764700  1
  C  977  1  0.77610200  0.94579800  0.63197900  1
  C  978  1  0.75521800  0.93336100  0.63212600  1
  C  979  1  0.73342200  0.94411900  0.62913600  1
  C  982  1  0.73248100  0.96667400  0.62702100  1
  C  983  1  0.71078400  0.97800700  0.62582400  1
  C  984  1  0.71060500  0.00062900  0.62592900  1
  C  991  1  0.25426700  0.43353200  0.36854700  1
  C  992  1  0.27534700  0.44569400  0.36872700  1
  C  994  1  0.25392700  0.47842100  0.37337300  1
  C  995  1  0.23208300  0.46710600  0.37392900  1
  C  996  1  0.23265300  0.44456100  0.37163400  1
  C  998  1  0.25411800  0.50104000  0.37345400  1
  C  999  1  0.27609900  0.53350000  0.36905800  1
  C  1000  1  0.25522900  0.54596500  0.36893300  1
  C  1001  1  0.23343600  0.53520100  0.37190500  1
  C  1004  1  0.23247300  0.51265600  0.37408100  1
  C  1005  1  0.21076900  0.50133700  0.37531200  1
  C  1006  1  0.21057500  0.47871600  0.37524200  1
  C  1013  1  0.70005400  0.43338300  0.63206500  1
  C  1014  1  0.67919500  0.44586600  0.63202200  1
  C  1016  1  0.70120600  0.47831900  0.62770000  1
  C  1017  1  0.72283000  0.46668000  0.62694200  1
  C  1018  1  0.72184900  0.44412600  0.62901900  1
  C  1020  1  0.70142900  0.50093600  0.62788100  1
  C  1021  1  0.68008300  0.53367000  0.63276100  1
  C  1022  1  0.70118500  0.54580300  0.63289500  1
  C  1023  1  0.72276100  0.53476300  0.62966700  1
  C  1026  1  0.72328700  0.51222700  0.62727800  1
  C  1027  1  0.74477200  0.50059800  0.62582900  1
  C  1028  1  0.74454500  0.47797800  0.62566800  1
  C  1035  1  0.20013400  0.04587800  0.36908200  1
  C  1036  1  0.17925400  0.03343100  0.36909700  1
  C  1038  1  0.20119800  0.00095000  0.37346500  1
  C  1039  1  0.22284800  0.01255600  0.37421500  1
  C  1040  1  0.22191300  0.03511400  0.37214500  1
  C  1042  1  0.20138400  0.97833200  0.37328200  1
  C  1043  1  0.17996700  0.94563000  0.36844900  1
  C  1044  1  0.20103600  0.93345200  0.36829600  1
  C  1045  1  0.22263900  0.94447100  0.37148500  1
  C  1048  1  0.22321700  0.96700500  0.37387300  1
  C  1049  1  0.24472400  0.97860100  0.37530400  1
  C  1050  1  0.24454200  0.00122100  0.37546500  1
  C  1057  1  0.00547200  0.43193000  0.84782200  1
  C  1058  1  0.01816000  0.44429100  0.86277700  1
  C  1060  1  0.00414800  0.47697200  0.84743200  1
  C  1061  1  0.99059300  0.46548000  0.83218000  1
  C  1062  1  0.99144700  0.44293400  0.83272100  1
  C  1064  1  0.00383000  0.49954400  0.84742400  1
  C  1065  1  0.01690700  0.53253300  0.86276900  1
  C  1066  1  0.00391600  0.54459000  0.84778100  1
  C  1067  1  0.99024200  0.53328400  0.83265000  1
  C  1070  1  0.98998100  0.51072200  0.83215000  1
  C  1071  1  0.97645900  0.49921900  0.81701200  1
  C  1072  1  0.97675900  0.47666200  0.81703100  1
  C  1079  1  0.50544400  0.04737800  0.15330000  1
  C  1080  1  0.51814200  0.03502100  0.13835000  1
  C  1082  1  0.50412900  0.00233600  0.15368600  1
  C  1083  1  0.49056300  0.01382400  0.16893100  1
  C  1084  1  0.49141500  0.03637000  0.16839400  1
  C  1086  1  0.50381900  0.97976400  0.15369300  1
  C  1087  1  0.51692000  0.94678000  0.13835600  1
  C  1088  1  0.50392200  0.93471900  0.15333600  1
  C  1089  1  0.49023000  0.94602000  0.16845600  1
  C  1092  1  0.48996200  0.96858200  0.16895900  1
  C  1093  1  0.47643000  0.98008000  0.18409100  1
  C  1094  1  0.47672000  0.00263800  0.18407100  1
  C  1101  1  0.25603000  0.39186400  0.19187100  1
  C  1102  1  0.26844800  0.37665100  0.20416400  1
  C  1104  1  0.25455100  0.39216000  0.23668300  1
  C  1105  1  0.24123000  0.40765500  0.22524600  1
  C  1106  1  0.24216400  0.40716200  0.20281000  1
  C  1108  1  0.25421600  0.39215900  0.25914600  1
  C  1109  1  0.26715100  0.37663500  0.29197100  1
  C  1110  1  0.25441400  0.39187400  0.30396300  1
  C  1111  1  0.24089900  0.40719900  0.29272300  1
  C  1114  1  0.24058700  0.40766600  0.27027000  1
  C  1115  1  0.22726400  0.42301900  0.25882400  1
  C  1116  1  0.22757500  0.42300700  0.23637600  1
  C  1123  1  0.75609700  0.08743500  0.80930000  1
  C  1124  1  0.76846500  0.10267600  0.79700000  1
  C  1126  1  0.75462400  0.08711200  0.76448800  1
  C  1127  1  0.74137700  0.07157300  0.77593000  1
  C  1128  1  0.74230900  0.07207600  0.79836700  1
  C  1130  1  0.75427700  0.08711600  0.74202700  1
  C  1131  1  0.76711400  0.10270200  0.70920000  1
  C  1132  1  0.75443100  0.08742600  0.69720700  1
  C  1133  1  0.74099600  0.07204600  0.70845000  1
  C  1136  1  0.74070700  0.07156500  0.73090300  1
  C  1137  1  0.72746200  0.05616100  0.74235500  1
  C  1138  1  0.72778400  0.05617200  0.76480500  1
  C  1145  1  0.45110600  0.04689900  0.84781100  1
  C  1146  1  0.43820400  0.03478900  0.86282000  1
  C  1148  1  0.45139700  0.00185300  0.84744200  1
  C  1149  1  0.46514500  0.01308600  0.83213500  1
  C  1150  1  0.46478900  0.03564500  0.83265000  1
  C  1152  1  0.45120300  0.97927900  0.84745600  1
  C  1153  1  0.43743200  0.94654200  0.86285500  1
  C  1154  1  0.45015300  0.93423200  0.84787800  1
  C  1155  1  0.46405800  0.94529500  0.83273200  1
  C  1158  1  0.46478000  0.96784500  0.83217800  1
  C  1159  1  0.47850600  0.97908200  0.81699300  1
  C  1160  1  0.47868000  0.00164000  0.81696400  1
  C  1167  1  0.95110200  0.43242200  0.15331600  1
  C  1168  1  0.93819300  0.44453100  0.13831100  1
  C  1170  1  0.95139300  0.47746800  0.15368200  1
  C  1171  1  0.96515200  0.46623700  0.16898000  1
  C  1172  1  0.96479400  0.44367800  0.16847100  1
  C  1174  1  0.95120100  0.50004200  0.15366400  1
  C  1175  1  0.93742000  0.53278100  0.13827100  1
  C  1176  1  0.95015200  0.54508800  0.15323900  1
  C  1177  1  0.96407100  0.53402700  0.16837500  1
  C  1180  1  0.96479100  0.51147700  0.16893200  1
  C  1181  1  0.97852300  0.50024000  0.18411400  1
  C  1182  1  0.97869700  0.47768200  0.18414300  1
  C  1189  1  0.20047100  0.08734500  0.19250800  1
  C  1190  1  0.18784600  0.10262100  0.20455200  1
  C  1192  1  0.20097600  0.08712500  0.23732800  1
  C  1193  1  0.21447900  0.07156600  0.22614900  1
  C  1194  1  0.21401300  0.07200200  0.20369900  1
  C  1196  1  0.20083600  0.08718300  0.25979100  1
  C  1197  1  0.18724800  0.10279900  0.29236600  1
  C  1198  1  0.19973400  0.08758900  0.30460900  1
  C  1199  1  0.21347600  0.07224300  0.29361300  1
  C  1202  1  0.21421800  0.07169300  0.27117400  1
  C  1203  1  0.22773300  0.05628100  0.25999100  1
  C  1204  1  0.22785700  0.05621300  0.23754100  1
  C  1211  1  0.70039800  0.39201600  0.80865200  1
  C  1212  1  0.68783300  0.37670100  0.79660500  1
  C  1214  1  0.70087100  0.39226100  0.76383200  1
  C  1215  1  0.71429000  0.40787700  0.77501000  1
  C  1216  1  0.71384000  0.40743100  0.79746200  1
  C  1218  1  0.70073600  0.39219500  0.74136800  1
  C  1219  1  0.68725500  0.37649500  0.70879900  1
  C  1220  1  0.69966800  0.39174600  0.69654800  1
  C  1221  1  0.71331600  0.40716500  0.70754100  1
  C  1224  1  0.71403900  0.40773600  0.72998100  1
  C  1225  1  0.72746300  0.42321400  0.74116200  1
  C  1226  1  0.72758400  0.42328800  0.76361200  1
  C  1233  1  0.69943600  0.58764500  0.80949600  1
  C  1234  1  0.68685500  0.60274100  0.79719600  1
  C  1236  1  0.70099900  0.58738000  0.76468900  1
  C  1237  1  0.71449400  0.57202100  0.77614000  1
  C  1238  1  0.71351400  0.57249600  0.79857600  1
  C  1240  1  0.70134600  0.58737200  0.74222600  1
  C  1241  1  0.68822200  0.60273300  0.70938300  1
  C  1242  1  0.70112300  0.58759200  0.69741000  1
  C  1243  1  0.71482400  0.57241300  0.70866000  1
  C  1246  1  0.71516000  0.57198800  0.73111500  1
  C  1247  1  0.72867900  0.55678600  0.74257800  1
  C  1248  1  0.72835500  0.55680800  0.76502600  1
  C  1255  1  0.19938700  0.89171400  0.19165000  1
  C  1256  1  0.18687100  0.87657600  0.20395200  1
  C  1258  1  0.20090500  0.89201000  0.23646000  1
  C  1259  1  0.21432600  0.90742400  0.22501200  1
  C  1260  1  0.21336900  0.90693500  0.20257500  1
  C  1262  1  0.20124900  0.89201600  0.25892300  1
  C  1263  1  0.18821200  0.87657900  0.29175800  1
  C  1264  1  0.20104700  0.89175700  0.30374000  1
  C  1265  1  0.21466100  0.90700700  0.29249500  1
  C  1268  1  0.21498200  0.90745500  0.27004100  1
  C  1269  1  0.22841400  0.92272000  0.25858200  1
  C  1270  1  0.22809800  0.92269800  0.23613200  1
  C  1277  1  0.75520700  0.89180000  0.80867600  1
  C  1278  1  0.76794800  0.87661900  0.79661500  1
  C  1280  1  0.75457700  0.89200000  0.76386100  1
  C  1281  1  0.74093600  0.90744000  0.77506400  1
  C  1282  1  0.74147100  0.90702100  0.79751600  1
  C  1284  1  0.75467900  0.89195200  0.74139600  1
  C  1285  1  0.76839500  0.87648200  0.70879400  1
  C  1286  1  0.75574600  0.89160000  0.69657800  1
  C  1287  1  0.74185000  0.90681800  0.70759500  1
  C  1290  1  0.74112000  0.90733500  0.73003900  1
  C  1291  1  0.72744700  0.92261500  0.74124700  1
  C  1292  1  0.72736200  0.92267200  0.76369700  1
  C  1299  1  0.25528000  0.58751900  0.19240800  1
  C  1300  1  0.26798200  0.60272000  0.20447900  1
  C  1302  1  0.25465500  0.58729600  0.23722300  1
  C  1303  1  0.24107100  0.57181800  0.22601300  1
  C  1304  1  0.24160600  0.57224800  0.20356300  1
  C  1306  1  0.25474400  0.58734600  0.25968900  1
  C  1307  1  0.26837900  0.60286700  0.29229300  1
  C  1308  1  0.25577100  0.58771900  0.30450800  1
  C  1309  1  0.24194100  0.57245500  0.29348700  1
  C  1312  1  0.24123000  0.57192800  0.27104400  1
  C  1313  1  0.22762200  0.55660500  0.25982900  1
  C  1314  1  0.22754700  0.55654600  0.23737900  1
  C  1321  1  0.50597700  0.93394900  0.34802500  1
  C  1322  1  0.51867700  0.94626500  0.36301000  1
  C  1324  1  0.50495200  0.97900200  0.34756700  1
  C  1325  1  0.49139800  0.96755900  0.33228000  1
  C  1326  1  0.49209700  0.94501100  0.33285800  1
  C  1328  1  0.50476000  0.00157700  0.34753700  1
  C  1329  1  0.51788400  0.03452900  0.36293400  1
  C  1330  1  0.50500600  0.04662600  0.34789600  1
  C  1331  1  0.49137800  0.03535800  0.33270500  1
  C  1334  1  0.49103800  0.01279800  0.33220200  1
  C  1335  1  0.47753400  0.00134400  0.31701800  1
  C  1336  1  0.47770500  0.97878600  0.31706100  1
  C  1343  1  0.00594000  0.54536000  0.65311400  1
  C  1344  1  0.01864800  0.53305100  0.63813100  1
  C  1346  1  0.00493100  0.50030700  0.65356600  1
  C  1347  1  0.99136500  0.51174400  0.66885200  1
  C  1348  1  0.99206000  0.53429200  0.66827700  1
  C  1350  1  0.00474700  0.47773200  0.65359500  1
  C  1351  1  0.01789400  0.44478700  0.63820100  1
  C  1352  1  0.00501200  0.43268400  0.65322900  1
  C  1353  1  0.99136700  0.44394500  0.66841400  1
  C  1356  1  0.99102100  0.46650400  0.66892200  1
  C  1357  1  0.97750600  0.47795300  0.68410400  1
  C  1358  1  0.97766900  0.50051000  0.68406200  1
  C  1365  1  0.95091600  0.54469800  0.34794400  1
  C  1366  1  0.93797700  0.53261400  0.36294800  1
  C  1368  1  0.95106500  0.49965000  0.34754900  1
  C  1369  1  0.96486300  0.51085800  0.33226200  1
  C  1370  1  0.96457300  0.53341700  0.33278300  1
  C  1372  1  0.95079000  0.47707600  0.34754100  1
  C  1373  1  0.93690300  0.44435500  0.36290000  1
  C  1374  1  0.94959100  0.43202600  0.34791700  1
  C  1375  1  0.96354700  0.44306800  0.33279600  1
  C  1378  1  0.96434100  0.46561800  0.33226100  1
  C  1379  1  0.97812100  0.47683100  0.31709800  1
  C  1380  1  0.97837300  0.49938900  0.31709100  1
  C  1387  1  0.45091300  0.93462900  0.65321000  1
  C  1388  1  0.43797000  0.94670800  0.63820400  1
  C  1390  1  0.45104400  0.97967900  0.65359600  1
  C  1391  1  0.46483700  0.96847700  0.66889500  1
  C  1392  1  0.46455200  0.94591600  0.66837900  1
  C  1394  1  0.45076800  0.00225300  0.65359800  1
  C  1395  1  0.43688200  0.03496700  0.63822300  1
  C  1396  1  0.44955400  0.04730200  0.65321100  1
  C  1397  1  0.46350700  0.03626500  0.66834200  1
  C  1400  1  0.46430600  0.01371700  0.66888000  1
  C  1401  1  0.47807900  0.00251000  0.68405500  1
  C  1402  1  0.47833600  0.97995200  0.68406700  1
  C  1409  1  0.79178400  0.34870900  0.88445400  1
  C  1410  1  0.80546300  0.33713600  0.89939300  1
  C  1412  1  0.84118600  0.35379100  0.88785500  1
  C  1413  1  0.82863800  0.36661400  0.87301200  1
  C  1414  1  0.80388600  0.36361800  0.87139800  1
  C  1416  1  0.86598800  0.35534500  0.88944400  1
  C  1417  1  0.90177800  0.34290900  0.90529000  1
  C  1418  1  0.91556200  0.35776500  0.89367700  1
  C  1419  1  0.90343600  0.37138200  0.87930400  1
  C  1422  1  0.87858700  0.37029800  0.87676900  1
  C  1423  1  0.86602200  0.38353400  0.86236100  1
  C  1424  1  0.84118700  0.38152300  0.86030900  1
  C  1431  1  0.29179500  0.13062300  0.11670200  1
  C  1432  1  0.30547100  0.14219900  0.10176400  1
  C  1434  1  0.34119300  0.12552800  0.11328400  1
  C  1435  1  0.32864600  0.11270100  0.12812500  1
  C  1436  1  0.30389400  0.11569700  0.12974200  1
  C  1438  1  0.36599400  0.12397100  0.11169200  1
  C  1439  1  0.40178700  0.13641400  0.09585600  1
  C  1440  1  0.41557000  0.12155800  0.10747000  1
  C  1441  1  0.40344000  0.10792500  0.12182300  1
  C  1444  1  0.37859300  0.10901200  0.12436300  1
  C  1445  1  0.36602600  0.09577000  0.13876400  1
  C  1446  1  0.34119300  0.09778600  0.14082100  1
  C  1453  1  0.04213000  0.35709700  0.10855900  1
  C  1454  1  0.05575000  0.34231100  0.09670200  1
  C  1456  1  0.09156300  0.35358300  0.11334700  1
  C  1457  1  0.07908600  0.36828300  0.12640900  1
  C  1458  1  0.05432300  0.36996400  0.12355600  1
  C  1460  1  0.11636400  0.35189700  0.11482700  1
  C  1461  1  0.15207700  0.33603800  0.10218800  1
  C  1462  1  0.16591200  0.34737600  0.11718600  1
  C  1463  1  0.15386200  0.36164500  0.13096800  1
  C  1466  1  0.12902900  0.36432200  0.12992500  1
  C  1467  1  0.11653400  0.37859700  0.14336800  1
  C  1468  1  0.09170300  0.38075700  0.14144300  1
  C  1475  1  0.54214400  0.12224300  0.89258700  1
  C  1476  1  0.55576600  0.13702200  0.90445100  1
  C  1478  1  0.59157600  0.12575800  0.88779600  1
  C  1479  1  0.57909800  0.11106800  0.87472500  1
  C  1480  1  0.55433200  0.10939200  0.87757300  1
  C  1482  1  0.61637800  0.12743900  0.88632000  1
  C  1483  1  0.65209100  0.14328200  0.89897600  1
  C  1484  1  0.66592800  0.13195100  0.88397400  1
  C  1485  1  0.65387700  0.11769300  0.87018000  1
  C  1488  1  0.62904200  0.11502000  0.87121800  1
  C  1489  1  0.61654600  0.10075400  0.85776800  1
  C  1490  1  0.59171500  0.09859900  0.85968800  1
  C  1497  1  0.16376100  0.63015400  0.11666600  1
  C  1498  1  0.14993300  0.64160600  0.10174700  1
  C  1500  1  0.11442400  0.62454800  0.11324700  1
  C  1501  1  0.12713200  0.61185700  0.12809200  1
  C  1502  1  0.15184100  0.61511900  0.12971700  1
  C  1504  1  0.08964800  0.62270500  0.11162900  1
  C  1505  1  0.05370400  0.63472200  0.09574200  1
  C  1506  1  0.04011500  0.61970900  0.10734300  1
  C  1507  1  0.05241300  0.60623400  0.12172700  1
  C  1510  1  0.07724200  0.60760100  0.12428500  1
  C  1511  1  0.08997600  0.59450500  0.13870000  1
  C  1512  1  0.11477800  0.59679800  0.14077400  1
  C  1519  1  0.66374000  0.84917100  0.88443200  1
  C  1520  1  0.64992000  0.83771500  0.89935500  1
  C  1522  1  0.61440900  0.85479100  0.88788400  1
  C  1523  1  0.62711300  0.86748600  0.87303800  1
  C  1524  1  0.65182000  0.86422400  0.87140200  1
  C  1526  1  0.58963300  0.85664100  0.88951100  1
  C  1527  1  0.55369100  0.84462000  0.90539700  1
  C  1528  1  0.54010000  0.85962900  0.89379500  1
  C  1529  1  0.55239900  0.87312200  0.87942800  1
  C  1532  1  0.57722700  0.87174900  0.87686200  1
  C  1533  1  0.58995700  0.88485100  0.86245000  1
  C  1534  1  0.61475800  0.88255300  0.86036500  1
  C  1541  1  0.91328700  0.62083200  0.89248600  1
  C  1542  1  0.89987200  0.63576600  0.90435100  1
  C  1544  1  0.86391400  0.62496600  0.88764200  1
  C  1545  1  0.87619200  0.61013700  0.87457100  1
  C  1546  1  0.90092400  0.60814700  0.87745100  1
  C  1548  1  0.83913700  0.62693100  0.88615500  1
  C  1549  1  0.80361200  0.64310200  0.89884700  1
  C  1550  1  0.78962700  0.63186400  0.88388600  1
  C  1551  1  0.80151000  0.61753600  0.87004800  1
  C  1554  1  0.82631500  0.61464700  0.87104900  1
  C  1555  1  0.83862000  0.60026500  0.85758200  1
  C  1556  1  0.86341900  0.59783400  0.85950500  1
  C  1563  1  0.41329100  0.85846000  0.10865800  1
  C  1564  1  0.39986800  0.84353500  0.09679000  1
  C  1566  1  0.36391900  0.85433200  0.11351700  1
  C  1567  1  0.37620700  0.86914800  0.12659400  1
  C  1568  1  0.40093900  0.87113000  0.12371400  1
  C  1570  1  0.33914300  0.85237700  0.11500400  1
  C  1571  1  0.30361100  0.83622800  0.10230100  1
  C  1572  1  0.28963000  0.84745800  0.11727100  1
  C  1573  1  0.30152000  0.86177300  0.13111700  1
  C  1576  1  0.32632600  0.86465400  0.13011700  1
  C  1577  1  0.33864000  0.87902600  0.14359200  1
  C  1578  1  0.36343900  0.88144900  0.14166500  1
  C  1585  1  0.29194000  0.84931500  0.38117100  1
  C  1586  1  0.30535400  0.83791900  0.39643600  1
  C  1588  1  0.34112400  0.85515400  0.38587400  1
  C  1589  1  0.32881900  0.86778000  0.37070000  1
  C  1590  1  0.30419200  0.86440600  0.36843700  1
  C  1592  1  0.36583700  0.85709700  0.38810100  1
  C  1593  1  0.40138500  0.84515700  0.40477000  1
  C  1594  1  0.41526500  0.86010300  0.39336300  1
  C  1595  1  0.40330200  0.87358900  0.37876200  1
  C  1598  1  0.37854700  0.87221000  0.37570500  1
  C  1599  1  0.36619600  0.88525800  0.36098300  1
  C  1600  1  0.34147700  0.88288600  0.35832000  1
  C  1607  1  0.79195400  0.62999400  0.61995700  1
  C  1608  1  0.80536200  0.64139500  0.60469300  1
  C  1610  1  0.84113400  0.62415000  0.61524200  1
  C  1611  1  0.82883100  0.61152100  0.63041300  1
  C  1612  1  0.80420400  0.61489000  0.63267500  1
  C  1614  1  0.86584700  0.62220900  0.61301400  1
  C  1615  1  0.90140100  0.63416000  0.59636000  1
  C  1616  1  0.91527900  0.61921900  0.60777200  1
  C  1617  1  0.90331200  0.60571500  0.62235200  1
  C  1620  1  0.87855700  0.60709400  0.62540900  1
  C  1621  1  0.86620600  0.59403600  0.64012300  1
  C  1622  1  0.84148700  0.59641100  0.64278600  1
  C  1629  1  0.54233700  0.85900700  0.60938100  1
  C  1630  1  0.55604700  0.84414400  0.59770300  1
  C  1632  1  0.59156600  0.85475100  0.61529300  1
  C  1633  1  0.57897200  0.86956900  0.62813000  1
  C  1634  1  0.55433600  0.87162600  0.62471000  1
  C  1636  1  0.61627700  0.85265400  0.61740700  1
  C  1637  1  0.65209300  0.83630500  0.60561900  1
  C  1638  1  0.66566800  0.84745000  0.62094800  1
  C  1639  1  0.65343900  0.86180800  0.63450600  1
  C  1642  1  0.62869300  0.86482100  0.63287700  1
  C  1643  1  0.61605900  0.87922200  0.64607700  1
  C  1644  1  0.59134300  0.88176100  0.64355200  1
  C  1651  1  0.04233300  0.62032800  0.39175800  1
  C  1652  1  0.05605200  0.63518200  0.40343800  1
  C  1654  1  0.09156100  0.62457900  0.38583100  1
  C  1655  1  0.07895800  0.60977100  0.37298900  1
  C  1656  1  0.05432100  0.60772100  0.37641200  1
  C  1658  1  0.11627200  0.62667000  0.38371300  1
  C  1659  1  0.15209400  0.64299900  0.39550600  1
  C  1660  1  0.16566400  0.63186000  0.38016800  1
  C  1661  1  0.15342600  0.61751200  0.36660300  1
  C  1664  1  0.12868000  0.61450600  0.36823400  1
  C  1665  1  0.11603600  0.60011600  0.35503100  1
  C  1666  1  0.09132000  0.59758200  0.35756000  1
  C  1673  1  0.66371000  0.13034700  0.61972800  1
  C  1674  1  0.65039400  0.14183100  0.60446200  1
  C  1676  1  0.61446000  0.12494000  0.61511700  1
  C  1677  1  0.62666300  0.11221300  0.63027600  1
  C  1678  1  0.65133100  0.11536700  0.63249000  1
  C  1680  1  0.58972100  0.12324500  0.61295700  1
  C  1681  1  0.55426700  0.13553500  0.59637900  1
  C  1682  1  0.54024500  0.12072700  0.60782100  1
  C  1683  1  0.55208700  0.10713000  0.62240000  1
  C  1686  1  0.57686700  0.10826800  0.62539800  1
  C  1687  1  0.58910700  0.09510700  0.64009700  1
  C  1688  1  0.61386200  0.09724300  0.64269900  1
  C  1695  1  0.16370800  0.34895700  0.38140500  1
  C  1696  1  0.15039200  0.33746800  0.39667100  1
  C  1698  1  0.11446400  0.35437900  0.38603200  1
  C  1699  1  0.12666600  0.36711000  0.37087800  1
  C  1700  1  0.15133400  0.36395700  0.36866200  1
  C  1702  1  0.08972400  0.35607900  0.38819400  1
  C  1703  1  0.05426500  0.34378400  0.40476100  1
  C  1704  1  0.04024700  0.35859100  0.39331700  1
  C  1705  1  0.05209500  0.37220500  0.37875700  1
  C  1708  1  0.07687300  0.37106300  0.37575900  1
  C  1709  1  0.08911500  0.38423100  0.36106800  1
  C  1710  1  0.11386900  0.38209100  0.35846300  1
  C  1717  1  0.41315000  0.12134600  0.39193700  1
  C  1718  1  0.39928900  0.13607900  0.40363200  1
  C  1720  1  0.36385700  0.12508500  0.38614100  1
  C  1721  1  0.37659600  0.11037900  0.37329300  1
  C  1722  1  0.40126800  0.10858100  0.37665400  1
  C  1724  1  0.33912400  0.12695600  0.38406500  1
  C  1725  1  0.30317600  0.14305700  0.39585100  1
  C  1726  1  0.28970000  0.13184200  0.38050100  1
  C  1727  1  0.30203900  0.11752800  0.36697600  1
  C  1730  1  0.32681000  0.11468000  0.36861300  1
  C  1731  1  0.33957900  0.10037100  0.35541700  1
  C  1732  1  0.36432700  0.09805200  0.35791100  1
  C  1739  1  0.91314400  0.35795600  0.60920600  1
  C  1740  1  0.89927800  0.34322800  0.59751100  1
  C  1742  1  0.86385500  0.35421400  0.61501900  1
  C  1743  1  0.87659900  0.36891300  0.62787200  1
  C  1744  1  0.90127100  0.37070600  0.62450800  1
  C  1746  1  0.83912100  0.35234500  0.61710000  1
  C  1747  1  0.80317100  0.33625600  0.60531000  1
  C  1748  1  0.78969800  0.34746200  0.62066900  1
  C  1749  1  0.80204200  0.36176800  0.63419900  1
  C  1752  1  0.82681100  0.36461600  0.63255900  1
  C  1753  1  0.83958600  0.37891800  0.64575700  1
  C  1754  1  0.86433500  0.38123700  0.64325900  1
  C  1761  1  0.97911700  0.36566900  0.05683300  1
  C  1762  1  0.97542100  0.34680800  0.04494700  1
  C  1764  1  0.97994800  0.36548600  0.01189200  1
  C  1765  1  0.98366900  0.38508900  0.02287000  1
  C  1766  1  0.98330200  0.38480700  0.04543000  1
  C  1768  1  0.98077200  0.36486100  0.98939800  1
  C  1769  1  0.97676100  0.34463400  0.95727000  1
  C  1770  1  0.98010700  0.36297600  0.94446100  1
  C  1771  1  0.98434500  0.38260800  0.95497900  1
  C  1774  1  0.98489800  0.38386700  0.97751600  1
  C  1775  1  0.98873600  0.40334500  0.98852100  1
  C  1776  1  0.98829100  0.40392200  0.01102500  1
  C  1783  1  0.47915100  0.11361600  0.94431500  1
  C  1784  1  0.47539500  0.13247400  0.95619000  1
  C  1786  1  0.47994700  0.11379600  0.98924500  1
  C  1787  1  0.48370300  0.09419700  0.97826600  1
  C  1788  1  0.48333300  0.09447200  0.95570600  1
  C  1790  1  0.48076300  0.11442100  0.01174000  1
  C  1791  1  0.47671100  0.13463600  0.04387000  1
  C  1792  1  0.48011500  0.11630400  0.05668700  1
  C  1793  1  0.48434100  0.09667900  0.04615600  1
  C  1796  1  0.48492000  0.09542000  0.02362000  1
  C  1797  1  0.48878800  0.07594700  0.01261600  1
  C  1798  1  0.48835000  0.07537000  0.99011300  1
  C  1805  1  0.22942000  0.18319200  0.12500700  1
  C  1806  1  0.22577500  0.19508200  0.10620300  1
  C  1808  1  0.23009300  0.22824300  0.12484200  1
  C  1809  1  0.23374500  0.21725100  0.14437700  1
  C  1810  1  0.23342100  0.19460200  0.14409700  1
  C  1812  1  0.23080700  0.25082000  0.12420900  1
  C  1813  1  0.22668600  0.28300200  0.10400800  1
  C  1814  1  0.22996700  0.29587600  0.12225700  1
  C  1815  1  0.23414500  0.28538300  0.14183900  1
  C  1818  1  0.23479400  0.26276400  0.14313400  1
  C  1819  1  0.23859000  0.25176100  0.16255100  1
  C  1820  1  0.23822000  0.22915300  0.16314400  1
  C  1827  1  0.72943000  0.29612100  0.87619100  1
  C  1828  1  0.72582300  0.28424200  0.89500300  1
  C  1830  1  0.73007700  0.25108900  0.87633800  1
  C  1831  1  0.73369500  0.26208800  0.85679800  1
  C  1832  1  0.73336900  0.28473600  0.85707900  1
  C  1834  1  0.73079100  0.22851200  0.87696400  1
  C  1835  1  0.72673000  0.19632800  0.89718000  1
  C  1836  1  0.72994600  0.18347300  0.87891200  1
  C  1837  1  0.73410900  0.19395100  0.85932200  1
  C  1840  1  0.73475200  0.21657100  0.85803200  1
  C  1841  1  0.73852100  0.22757800  0.83861400  1
  C  1842  1  0.73814500  0.25018500  0.83802600  1
  C  1849  1  0.97618500  0.61154800  0.94422100  1
  C  1850  1  0.97988600  0.63039300  0.95613300  1
  C  1852  1  0.97548500  0.61164700  0.98915900  1
  C  1853  1  0.97176200  0.59205900  0.97815600  1
  C  1854  1  0.97206200  0.59238200  0.95559500  1
  C  1856  1  0.97474100  0.61223300  0.01165600  1
  C  1857  1  0.97884100  0.63241600  0.04379900  1
  C  1858  1  0.97556600  0.61405200  0.05659100  1
  C  1859  1  0.97133000  0.59442800  0.04605600  1
  C  1862  1  0.97069600  0.59320100  0.02351800  1
  C  1863  1  0.96684900  0.57373800  0.01249100  1
  C  1864  1  0.96721100  0.57320000  0.98998400  1
  C  1871  1  0.47615700  0.86778700  0.05690600  1
  C  1872  1  0.47991000  0.84894700  0.04500100  1
  C  1874  1  0.47548200  0.86770000  0.01198000  1
  C  1875  1  0.47173100  0.88728200  0.02298800  1
  C  1876  1  0.47203800  0.88696100  0.04554900  1
  C  1878  1  0.47473800  0.86712100  0.98948200  1
  C  1879  1  0.47885400  0.84695200  0.95733200  1
  C  1880  1  0.47554000  0.86531300  0.94453600  1
  C  1881  1  0.47132200  0.88492900  0.95509000  1
  C  1884  1  0.47066400  0.88615000  0.97762600  1
  C  1885  1  0.46679500  0.90560700  0.98865800  1
  C  1886  1  0.46715800  0.90613900  0.01116400  1
  C  1893  1  0.72576600  0.79619900  0.87628700  1
  C  1894  1  0.72969900  0.78435600  0.89507000  1
  C  1896  1  0.72520800  0.75114600  0.87653900  1
  C  1897  1  0.72123700  0.76209900  0.85703100  1
  C  1898  1  0.72151000  0.78474700  0.85726600  1
  C  1900  1  0.72459800  0.72856800  0.87720600  1
  C  1901  1  0.72914300  0.69641800  0.89738700  1
  C  1902  1  0.72563800  0.68351200  0.87919400  1
  C  1903  1  0.72113800  0.69397300  0.85965300  1
  C  1906  1  0.72038700  0.71658700  0.85834100  1
  C  1907  1  0.71625900  0.72755200  0.83895700  1
  C  1908  1  0.71653700  0.75015800  0.83833300  1
  C  1915  1  0.22576100  0.68314900  0.12476200  1
  C  1916  1  0.22965200  0.69499100  0.10597300  1
  C  1918  1  0.22523000  0.72818200  0.12454900  1
  C  1919  1  0.22129800  0.71721500  0.14405800  1
  C  1920  1  0.22157300  0.69456700  0.14381000  1
  C  1922  1  0.22461800  0.75076100  0.12389800  1
  C  1923  1  0.22910100  0.78292200  0.10371400  1
  C  1924  1  0.22566700  0.79580100  0.12193400  1
  C  1925  1  0.22118600  0.78534600  0.14147900  1
  C  1928  1  0.22043700  0.76273100  0.14277600  1
  C  1929  1  0.21634400  0.75175300  0.16215800  1
  C  1930  1  0.21662800  0.72914500  0.16276800  1
  C  1937  1  0.47996100  0.86795800  0.55698100  1
  C  1938  1  0.47553100  0.84918200  0.54516800  1
  C  1940  1  0.48028900  0.86769400  0.51204000  1
  C  1941  1  0.48478900  0.88719900  0.52295400  1
  C  1942  1  0.48466300  0.88695700  0.54551500  1
  C  1944  1  0.48077600  0.86703800  0.48953600  1
  C  1945  1  0.47568600  0.84691700  0.45747000  1
  C  1946  1  0.47950700  0.86514200  0.44460100  1
  C  1947  1  0.48449100  0.88466200  0.45506400  1
  C  1950  1  0.48535600  0.88592100  0.47759400  1
  C  1951  1  0.48998500  0.90529300  0.48853600  1
  C  1952  1  0.48986100  0.90589500  0.51104200  1
  C  1959  1  0.97998900  0.61134300  0.44417700  1
  C  1960  1  0.97550600  0.63011300  0.45598100  1
  C  1962  1  0.98029900  0.61160400  0.48910900  1
  C  1963  1  0.98482600  0.59210200  0.47819400  1
  C  1964  1  0.98468900  0.59233900  0.45563200  1
  C  1966  1  0.98079000  0.61225900  0.51161300  1
  C  1967  1  0.97570100  0.63237600  0.54368400  1
  C  1968  1  0.97954900  0.61415400  0.55655800  1
  C  1969  1  0.98451600  0.59464000  0.54608200  1
  C  1972  1  0.98540100  0.59338200  0.52355200  1
  C  1973  1  0.99005100  0.57401500  0.51261000  1
  C  1974  1  0.98992300  0.57341100  0.49010400  1
  C  1981  1  0.73015800  0.68303800  0.62929800  1
  C  1982  1  0.72637700  0.69493100  0.61052000  1
  C  1984  1  0.73041700  0.72808800  0.62921500  1
  C  1985  1  0.73423700  0.71708600  0.64872000  1
  C  1986  1  0.73411600  0.69443500  0.64840100  1
  C  1988  1  0.73085400  0.75067100  0.62863100  1
  C  1989  1  0.72631300  0.78285500  0.60850600  1
  C  1990  1  0.72951100  0.79572400  0.62677000  1
  C  1991  1  0.73385200  0.78522700  0.64632200  1
  C  1994  1  0.73475100  0.76261200  0.64757400  1
  C  1995  1  0.73873900  0.75160400  0.66695700  1
  C  1996  1  0.73862500  0.72899300  0.66750200  1
  C  2003  1  0.23017100  0.79625000  0.37186800  1
  C  2004  1  0.22642400  0.78436200  0.39065300  1
  C  2006  1  0.23039800  0.75121700  0.37193000  1
  C  2007  1  0.23418800  0.76222500  0.35242100  1
  C  2008  1  0.23406500  0.78487700  0.35274400  1
  C  2010  1  0.23083600  0.72863300  0.37250700  1
  C  2011  1  0.22634900  0.69644500  0.39264300  1
  C  2012  1  0.22948200  0.68359700  0.37435800  1
  C  2013  1  0.23380900  0.69408000  0.35480000  1
  C  2016  1  0.23470700  0.71669500  0.35355600  1
  C  2017  1  0.23866700  0.72771200  0.33417300  1
  C  2018  1  0.23855000  0.75032200  0.33363300  1
  C  2025  1  0.47569800  0.11299500  0.44425100  1
  C  2026  1  0.48014900  0.13178600  0.45603000  1
  C  2028  1  0.47531200  0.11334800  0.48919400  1
  C  2029  1  0.47080100  0.09382600  0.47831200  1
  C  2030  1  0.47095500  0.09402400  0.45575200  1
  C  2032  1  0.47477500  0.11404800  0.51169400  1
  C  2033  1  0.47980500  0.13423100  0.54373500  1
  C  2034  1  0.47594800  0.11602900  0.55662800  1
  C  2035  1  0.47095500  0.09649600  0.54619300  1
  C  2038  1  0.47013500  0.09519500  0.52366500  1
  C  2039  1  0.46550500  0.07580600  0.51275500  1
  C  2040  1  0.46567500  0.07515900  0.49025100  1
  C  2047  1  0.97566000  0.36634500  0.55687600  1
  C  2048  1  0.98016600  0.34756000  0.54510400  1
  C  2050  1  0.97530600  0.36600000  0.51194400  1
  C  2051  1  0.97076500  0.38551800  0.52282600  1
  C  2052  1  0.97092300  0.38532200  0.54538600  1
  C  2054  1  0.97477800  0.36530400  0.48944200  1
  C  2055  1  0.97984200  0.34513500  0.45739800  1
  C  2056  1  0.97593500  0.36332800  0.44449700  1
  C  2057  1  0.97095800  0.38285400  0.45494600  1
  C  2060  1  0.97011300  0.38415100  0.47747400  1
  C  2061  1  0.96545700  0.40353500  0.48838500  1
  C  2062  1  0.96562200  0.40418000  0.51088900  1
  C  2069  1  0.22575200  0.29620600  0.37197700  1
  C  2070  1  0.22930800  0.28427400  0.39076800  1
  C  2072  1  0.22532900  0.25115400  0.37200400  1
  C  2073  1  0.22175900  0.26219000  0.35247800  1
  C  2074  1  0.22195700  0.28484000  0.35282700  1
  C  2076  1  0.22476700  0.22857300  0.37256600  1
  C  2077  1  0.22893300  0.19635800  0.39270700  1
  C  2078  1  0.22587100  0.18351500  0.37440600  1
  C  2079  1  0.22178500  0.19404200  0.35482500  1
  C  2082  1  0.22100800  0.21666000  0.35358300  1
  C  2083  1  0.21728000  0.22770200  0.33417600  1
  C  2084  1  0.21750700  0.25031400  0.33365200  1
  C  2091  1  0.72574100  0.18310900  0.62912300  1
  C  2092  1  0.72925800  0.19503700  0.61032700  1
  C  2094  1  0.72535100  0.22814400  0.62912600  1
  C  2095  1  0.72181500  0.21709900  0.64865100  1
  C  2096  1  0.72201300  0.19444500  0.64829800  1
  C  2098  1  0.72479200  0.25072600  0.62857500  1
  C  2099  1  0.72889800  0.28294800  0.60842800  1
  C  2100  1  0.72590600  0.29576700  0.62675200  1
  C  2101  1  0.72183400  0.28525000  0.64633800  1
  C  2104  1  0.72105800  0.26263000  0.64756700  1
  C  2105  1  0.71736300  0.25157800  0.66697500  1
  C  2106  1  0.71759300  0.22896600  0.66748900  1
  C  2113  1  0.38824600  0.39956100  0.89979300  1
  C  2114  1  0.36384100  0.39578400  0.89628800  1
  C  2115  1  0.34797200  0.39165700  0.91310700  1
  C  2116  1  0.35719200  0.39114600  0.93394000  1
  C  2117  1  0.38145600  0.39455400  0.93830700  1
  C  2118  1  0.39728200  0.39910900  0.92111200  1
  C  2121  1  0.40112500  0.40772800  0.88182900  1
  C  2122  1  0.40376500  0.39631400  0.86215600  1
  C  2123  1  0.41170200  0.40748400  0.84362100  1
  C  2124  1  0.41635600  0.42964800  0.84501600  1
  C  2125  1  0.41314800  0.44118100  0.86405500  1
  C  2126  1  0.40586400  0.42996900  0.88235500  1
  C  2135  1  0.88824600  0.14375100  0.13319000  1
  C  2136  1  0.86384700  0.14754100  0.13670700  1
  C  2137  1  0.84797900  0.15166500  0.11988600  1
  C  2138  1  0.85719600  0.15213600  0.09905080  1
  C  2139  1  0.88146600  0.14875100  0.09468080  1
  C  2140  1  0.89729100  0.14419800  0.11187600  1
  C  2143  1  0.90112900  0.13556800  0.15115500  1
  C  2144  1  0.90377000  0.14699100  0.17082000  1
  C  2145  1  0.91172400  0.13582100  0.18935300  1
  C  2146  1  0.91633900  0.11364800  0.18795600  1
  C  2147  1  0.91311500  0.10212200  0.16891300  1
  C  2148  1  0.90582400  0.11332400  0.15061500  1
  C  2157  1  0.63863500  0.38849700  0.14327500  1
  C  2158  1  0.61429500  0.39232900  0.13946600  1
  C  2159  1  0.59828000  0.37562900  0.13500400  1
  C  2160  1  0.60729500  0.35463000  0.13424800  1
  C  2161  1  0.63149300  0.35003200  0.13772900  1
  C  2162  1  0.64749400  0.36705900  0.14256400  1
  C  2165  1  0.65167400  0.40622600  0.15174400  1
  C  2166  1  0.65502200  0.42588500  0.14040700  1
  C  2167  1  0.66321100  0.44429400  0.15169900  1
  C  2168  1  0.66763700  0.44275400  0.17378800  1
  C  2169  1  0.66385800  0.42364500  0.18516200  1
  C  2170  1  0.65617200  0.40546600  0.17390200  1
  C  2179  1  0.13865400  0.15484300  0.88971200  1
  C  2180  1  0.11431600  0.15100200  0.89351800  1
  C  2181  1  0.09829550  0.16769100  0.89800300  1
  C  2182  1  0.10730700  0.18869200  0.89877500  1
  C  2183  1  0.13150500  0.19330000  0.89530800  1
  C  2184  1  0.14750400  0.17628300  0.89043100  1
  C  2187  1  0.15170900  0.13711700  0.88125600  1
  C  2188  1  0.15509300  0.11747500  0.89260900  1
  C  2189  1  0.16336700  0.09907560  0.88135500  1
  C  2190  1  0.16775200  0.10060000  0.85925400  1
  C  2191  1  0.16391400  0.11968600  0.84785300  1
  C  2192  1  0.15622700  0.13787200  0.85910200  1
  C  2201  1  0.88452400  0.14306000  0.89967200  1
  C  2202  1  0.90873700  0.14752300  0.89582800  1
  C  2203  1  0.92490700  0.15158000  0.91244600  1
  C  2204  1  0.91624700  0.15111700  0.93347800  1
  C  2205  1  0.89225000  0.14683600  0.93814100  1
  C  2206  1  0.87604200  0.14265000  0.92117700  1
  C  2209  1  0.87143800  0.13496300  0.88177200  1
  C  2210  1  0.86844700  0.14647000  0.86218800  1
  C  2211  1  0.86025400  0.13537800  0.84369300  1
  C  2212  1  0.85553100  0.11322600  0.84505200  1
  C  2213  1  0.85889900  0.10163200  0.86402800  1
  C  2214  1  0.86663300  0.11272900  0.88224200  1
  C  2223  1  0.38451600  0.40025900  0.13331000  1
  C  2224  1  0.40872600  0.39580300  0.13716500  1
  C  2225  1  0.42489500  0.39175900  0.12054100  1
  C  2226  1  0.41623100  0.39222100  0.09950980  1
  C  2227  1  0.39222500  0.39646600  0.09484580  1
  C  2228  1  0.37601700  0.40065200  0.11181000  1
  C  2231  1  0.37142100  0.40836400  0.15120900  1
  C  2232  1  0.36843200  0.39684600  0.17078600  1
  C  2233  1  0.36021800  0.40793200  0.18927900  1
  C  2234  1  0.35552000  0.43009300  0.18791800  1
  C  2235  1  0.35890000  0.44168200  0.16894100  1
  C  2236  1  0.36664400  0.43059800  0.15072700  1
  C  2245  1  0.63413700  0.15459000  0.14415600  1
  C  2246  1  0.65827000  0.15036700  0.13967700  1
  C  2247  1  0.67461800  0.16683800  0.13529500  1
  C  2248  1  0.66620800  0.18805800  0.13546800  1
  C  2249  1  0.64229100  0.19300200  0.13978000  1
  C  2250  1  0.62588600  0.17624100  0.14430600  1
  C  2253  1  0.62085600  0.13693800  0.15252700  1
  C  2254  1  0.61716500  0.11738200  0.14108800  1
  C  2255  1  0.60871000  0.09901060  0.15228500  1
  C  2256  1  0.60418900  0.10050700  0.17436100  1
  C  2257  1  0.60811500  0.11954100  0.18580700  1
  C  2258  1  0.61626500  0.13763100  0.17467500  1
  C  2267  1  0.13412600  0.38871800  0.88882000  1
  C  2268  1  0.15825700  0.39295100  0.89329500  1
  C  2269  1  0.17460500  0.37649000  0.89771500  1
  C  2270  1  0.16619500  0.35526800  0.89756500  1
  C  2271  1  0.14227800  0.35031200  0.89326400  1
  C  2272  1  0.12587800  0.36706600  0.88868800  1
  C  2275  1  0.12082700  0.40636700  0.88046200  1
  C  2276  1  0.11710300  0.42590300  0.89191800  1
  C  2277  1  0.10856500  0.44426500  0.88075900  1
  C  2278  1  0.10408200  0.44278900  0.85867200  1
  C  2279  1  0.10806500  0.42377800  0.84719700  1
  C  2280  1  0.11621900  0.40568200  0.85831700  1
  C  2289  1  0.38252600  0.64143500  0.13310000  1
  C  2290  1  0.40691100  0.64533100  0.13658800  1
  C  2291  1  0.42273700  0.64956500  0.11976100  1
  C  2292  1  0.41349900  0.65000500  0.09893280  1
  C  2293  1  0.38925400  0.64646500  0.09457980  1
  C  2294  1  0.37346700  0.64185100  0.11178800  1
  C  2297  1  0.36967900  0.63326500  0.15108300  1
  C  2298  1  0.36703100  0.64468900  0.17074900  1
  C  2299  1  0.35907000  0.63353000  0.18928400  1
  C  2300  1  0.35438700  0.61137300  0.18788900  1
  C  2301  1  0.35758400  0.59983100  0.16885300  1
  C  2302  1  0.36491300  0.61102900  0.15056100  1
  C  2311  1  0.88252000  0.90189100  0.89987700  1
  C  2312  1  0.90690100  0.89798700  0.89638100  1
  C  2313  1  0.92272100  0.89375900  0.91321200  1
  C  2314  1  0.91348500  0.89335600  0.93404100  1
  C  2315  1  0.88923500  0.89687000  0.93839300  1
  C  2316  1  0.87344800  0.90148100  0.92118400  1
  C  2319  1  0.86966900  0.91006600  0.88189000  1
  C  2320  1  0.86701500  0.89862100  0.86223900  1
  C  2321  1  0.85903500  0.90976800  0.84370000  1
  C  2322  1  0.85438400  0.93193600  0.84508400  1
  C  2323  1  0.85760400  0.94348100  0.86411600  1
  C  2324  1  0.86494600  0.93230700  0.88241200  1
  C  2333  1  0.13183500  0.65489100  0.88995500  1
  C  2334  1  0.15618600  0.65101600  0.89365400  1
  C  2335  1  0.17226800  0.66768000  0.89804900  1
  C  2336  1  0.16330100  0.68869400  0.89889300  1
  C  2337  1  0.13909000  0.69333800  0.89553200  1
  C  2338  1  0.12302700  0.67634200  0.89074000  1
  C  2341  1  0.11874000  0.63719500  0.88148500  1
  C  2342  1  0.11545100  0.61750600  0.89278600  1
  C  2343  1  0.10730000  0.59910300  0.88146300  1
  C  2344  1  0.10285200  0.60068100  0.85937900  1
  C  2345  1  0.10655400  0.61982100  0.84804200  1
  C  2346  1  0.11420200  0.63799500  0.85933500  1
  C  2355  1  0.63183700  0.88841400  0.14306300  1
  C  2356  1  0.65618600  0.89229600  0.13937100  1
  C  2357  1  0.67226900  0.87564100  0.13494600  1
  C  2358  1  0.66330400  0.85462700  0.13407700  1
  C  2359  1  0.63908900  0.84997600  0.13742100  1
  C  2360  1  0.62303300  0.86696300  0.14226000  1
  C  2363  1  0.61872400  0.90610600  0.15151900  1
  C  2364  1  0.61540600  0.92577900  0.14020500  1
  C  2365  1  0.60714800  0.94416600  0.15148700  1
  C  2366  1  0.60276100  0.94261900  0.17358600  1
  C  2367  1  0.60653300  0.92349600  0.18494100  1
  C  2368  1  0.61416400  0.90530800  0.17366500  1
  C  2377  1  0.88576600  0.90238800  0.13338800  1
  C  2378  1  0.86161500  0.89766700  0.13723500  1
  C  2379  1  0.84549200  0.89342100  0.12062400  1
  C  2380  1  0.85413800  0.89398100  0.09958980  1
  C  2381  1  0.87807500  0.89852100  0.09492080  1
  C  2382  1  0.89423500  0.90287900  0.11187900  1
  C  2385  1  0.89877200  0.91058100  0.15129400  1
  C  2386  1  0.90183700  0.89910100  0.17088500  1
  C  2387  1  0.90993100  0.91025100  0.18938000  1
  C  2388  1  0.91452500  0.93242500  0.18800700  1
  C  2389  1  0.91113200  0.94398100  0.16901100  1
  C  2390  1  0.90345500  0.93283600  0.15080800  1
  C  2399  1  0.38574900  0.64089900  0.89959000  1
  C  2400  1  0.36160000  0.64561900  0.89573800  1
  C  2401  1  0.34548600  0.64985500  0.91235700  1
  C  2402  1  0.35414300  0.64929200  0.93338900  1
  C  2403  1  0.37808800  0.64478200  0.93805300  1
  C  2404  1  0.39424100  0.64041900  0.92109000  1
  C  2407  1  0.39875900  0.63270500  0.88167800  1
  C  2408  1  0.40182300  0.64420800  0.86210200  1
  C  2409  1  0.40991400  0.63306000  0.84360300  1
  C  2410  1  0.41450800  0.61088300  0.84496500  1
  C  2411  1  0.41110000  0.59932400  0.86395500  1
  C  2412  1  0.40340700  0.61044600  0.88216400  1
  C  2421  1  0.13649100  0.88876600  0.88893100  1
  C  2422  1  0.11238300  0.89313600  0.89337200  1
  C  2423  1  0.09589650  0.87677000  0.89772900  1
  C  2424  1  0.10414900  0.85549900  0.89759900  1
  C  2425  1  0.12804200  0.85040800  0.89333400  1
  C  2426  1  0.14458300  0.86706600  0.88882000  1
  C  2429  1  0.14989800  0.90632900  0.88053500  1
  C  2430  1  0.15365400  0.92589800  0.89193100  1
  C  2431  1  0.16213000  0.94423500  0.88068900  1
  C  2432  1  0.16662000  0.94268800  0.85861200  1
  C  2433  1  0.16265800  0.92362900  0.84721600  1
  C  2434  1  0.15448000  0.90557500  0.85838600  1
  C  2443  1  0.63651800  0.65457600  0.14401500  1
  C  2444  1  0.61241000  0.65019400  0.13958400  1
  C  2445  1  0.59592000  0.66654800  0.13519400  1
  C  2446  1  0.60417100  0.68782200  0.13529900  1
  C  2447  1  0.62806300  0.69292400  0.13954600  1
  C  2448  1  0.64460100  0.67627800  0.14410400  1
  C  2451  1  0.64994500  0.63702100  0.15240100  1
  C  2452  1  0.65372900  0.61746300  0.14099300  1
  C  2453  1  0.66230300  0.59914700  0.15220100  1
  C  2454  1  0.66673500  0.60067500  0.17429400  1
  C  2455  1  0.66272600  0.61971600  0.18571200  1
  C  2456  1  0.65455300  0.63777500  0.17454300  1
  C  2465  1  0.88804600  0.90177500  0.39993700  1
  C  2466  1  0.86364900  0.89811200  0.39629700  1
  C  2467  1  0.84763200  0.89404200  0.41301700  1
  C  2468  1  0.85669800  0.89348200  0.43390400  1
  C  2469  1  0.88095500  0.89678400  0.43841400  1
  C  2470  1  0.89693100  0.90125200  0.42130300  1
  C  2473  1  0.90110700  0.90983700  0.38202600  1
  C  2474  1  0.90370000  0.89840500  0.36235900  1
  C  2475  1  0.91177700  0.90951200  0.34383700  1
  C  2476  1  0.91664800  0.93163600  0.34524900  1
  C  2477  1  0.91349600  0.94319800  0.36428100  1
  C  2478  1  0.90605600  0.93204100  0.38256400  1
  C  2487  1  0.38804900  0.64154400  0.63305600  1
  C  2488  1  0.36365700  0.64522000  0.63670000  1
  C  2489  1  0.34764900  0.64928400  0.61997000  1
  C  2490  1  0.35672100  0.64980900  0.59908500  1
  C  2491  1  0.38098500  0.64653000  0.59458100  1
  C  2492  1  0.39695400  0.64206200  0.61169800  1
  C  2495  1  0.40110500  0.63346300  0.65097000  1
  C  2496  1  0.40369900  0.64490800  0.67062900  1
  C  2497  1  0.41176300  0.63378800  0.68915300  1
  C  2498  1  0.41661800  0.61165900  0.68774000  1
  C  2499  1  0.41344900  0.60010700  0.66870500  1
  C  2500  1  0.40600100  0.61125300  0.65042200  1
  C  2509  1  0.13825000  0.88833700  0.64791300  1
  C  2510  1  0.11397000  0.89222300  0.64387400  1
  C  2511  1  0.09796850  0.87557700  0.63918500  1
  C  2512  1  0.10692200  0.85455300  0.63849900  1
  C  2513  1  0.13106100  0.84989000  0.64224500  1
  C  2514  1  0.14705800  0.86688000  0.64723800  1
  C  2517  1  0.15127500  0.90605700  0.65643200  1
  C  2518  1  0.15464600  0.92573000  0.64512200  1
  C  2519  1  0.16279500  0.94413100  0.65645000  1
  C  2520  1  0.16721900  0.94256000  0.67853500  1
  C  2521  1  0.16347100  0.92342600  0.68987200  1
  C  2522  1  0.15577100  0.90526500  0.67859100  1
  C  2531  1  0.63824600  0.65497600  0.38501600  1
  C  2532  1  0.61396500  0.65108500  0.38905400  1
  C  2533  1  0.59796500  0.66772300  0.39377100  1
  C  2534  1  0.60691900  0.68874500  0.39448100  1
  C  2535  1  0.63106100  0.69341500  0.39074700  1
  C  2536  1  0.64704900  0.67643300  0.38571000  1
  C  2539  1  0.65128000  0.63726300  0.37649800  1
  C  2540  1  0.65466600  0.61759100  0.38780400  1
  C  2541  1  0.66289100  0.59920600  0.37650000  1
  C  2542  1  0.66727400  0.60078000  0.35440300  1
  C  2543  1  0.66349100  0.61990600  0.34305700  1
  C  2544  1  0.65580400  0.63806900  0.35434600  1
  C  2553  1  0.38465400  0.64087500  0.39957100  1
  C  2554  1  0.40879800  0.64542200  0.39549500  1
  C  2555  1  0.42518200  0.64948400  0.41194600  1
  C  2556  1  0.41679900  0.64895300  0.43307000  1
  C  2557  1  0.39287200  0.64459100  0.43796400  1
  C  2558  1  0.37645100  0.64041800  0.42116100  1
  C  2561  1  0.37138000  0.63277200  0.38178200  1
  C  2562  1  0.36826900  0.64425400  0.36219800  1
  C  2563  1  0.36000700  0.63314800  0.34373300  1
  C  2564  1  0.35528200  0.61099800  0.34515000  1
  C  2565  1  0.35872300  0.59943100  0.36413100  1
  C  2566  1  0.36656100  0.61054100  0.38230000  1
  C  2575  1  0.88467300  0.90245200  0.63342200  1
  C  2576  1  0.90881100  0.89790600  0.63750400  1
  C  2577  1  0.92518600  0.89385300  0.62104300  1
  C  2578  1  0.91679500  0.89439100  0.59992100  1
  C  2579  1  0.89286000  0.89872300  0.59503200  1
  C  2580  1  0.87644500  0.90290000  0.61184100  1
  C  2583  1  0.87139500  0.91056000  0.65121600  1
  C  2584  1  0.86828400  0.89905400  0.67078500  1
  C  2585  1  0.86003100  0.91017000  0.68924500  1
  C  2586  1  0.85529500  0.93231900  0.68784200  1
  C  2587  1  0.85873600  0.94389100  0.66886300  1
  C  2588  1  0.86660800  0.93279500  0.65069700  1
  C  2597  1  0.13451900  0.65447700  0.64872600  1
  C  2598  1  0.15851600  0.65009200  0.64383200  1
  C  2599  1  0.17489700  0.66643600  0.63908600  1
  C  2600  1  0.16666200  0.68771200  0.63934300  1
  C  2601  1  0.14288200  0.69282200  0.64407300  1
  C  2602  1  0.12644300  0.67618000  0.64893800  1
  C  2605  1  0.12124300  0.63690400  0.65728500  1
  C  2606  1  0.11736000  0.61731900  0.64594700  1
  C  2607  1  0.10901300  0.59899600  0.65728700  1
  C  2608  1  0.10470400  0.60058200  0.67938800  1
  C  2609  1  0.10872200  0.61967300  0.69071600  1
  C  2610  1  0.11684600  0.63769600  0.67946500  1
  C  2619  1  0.63450400  0.88880600  0.38423000  1
  C  2620  1  0.65849900  0.89320000  0.38911900  1
  C  2621  1  0.67488400  0.87686800  0.39389500  1
  C  2622  1  0.66666667  0.85559000  0.39365900  1
  C  2623  1  0.64287000  0.85046900  0.38894200  1
  C  2624  1  0.62643500  0.86710100  0.38403400  1
  C  2627  1  0.62120800  0.90637300  0.37568800  1
  C  2628  1  0.61728900  0.92593800  0.38704900  1
  C  2629  1  0.60885900  0.94425400  0.37575200  1
  C  2630  1  0.60458900  0.94269300  0.35363900  1
  C  2631  1  0.60866400  0.92362900  0.34227800  1
  C  2632  1  0.61679300  0.90559600  0.35351400  1
  C  2641  1  0.88241200  0.14346100  0.63313500  1
  C  2642  1  0.90682800  0.14702300  0.63676500  1
  C  2643  1  0.92286300  0.15098600  0.62003400  1
  C  2644  1  0.91379000  0.15158500  0.59915100  1
  C  2645  1  0.88951100  0.14839800  0.59465300  1
  C  2646  1  0.87352300  0.14400100  0.61177300  1
  C  2649  1  0.86934000  0.13541100  0.65104300  1
  C  2650  1  0.86675300  0.14684400  0.67071000  1
  C  2651  1  0.85867900  0.13574400  0.68924200  1
  C  2652  1  0.85384000  0.11361200  0.68783000  1
  C  2653  1  0.85699200  0.10204800  0.66879900  1
  C  2654  1  0.86440500  0.11320600  0.65051000  1
  C  2663  1  0.38242400  0.39985600  0.39983800  1
  C  2664  1  0.40683500  0.39628000  0.39620000  1
  C  2665  1  0.42286400  0.39232400  0.41293800  1
  C  2666  1  0.41378800  0.39176200  0.43382300  1
  C  2667  1  0.38950400  0.39492800  0.43831700  1
  C  2668  1  0.37351900  0.39932600  0.42119600  1
  C  2671  1  0.36935200  0.40791700  0.38192700  1
  C  2672  1  0.36676300  0.39646400  0.36227500  1
  C  2673  1  0.35871000  0.40758000  0.34374500  1
  C  2674  1  0.35387700  0.42971500  0.34513900  1
  C  2675  1  0.35704500  0.44127200  0.36417100  1
  C  2676  1  0.36446700  0.43012900  0.38246400  1
  C  2685  1  0.63217700  0.15489000  0.38513700  1
  C  2686  1  0.65644500  0.15101400  0.38926200  1
  C  2687  1  0.67241400  0.16767100  0.39400800  1
  C  2688  1  0.66344500  0.18869100  0.39463200  1
  C  2689  1  0.63932300  0.19334300  0.39079500  1
  C  2690  1  0.62335800  0.17634500  0.38576100  1
  C  2693  1  0.61918100  0.13716000  0.37660200  1
  C  2694  1  0.61575300  0.11750100  0.38792500  1
  C  2695  1  0.60757500  0.09910560  0.37660500  1
  C  2696  1  0.60317400  0.10067400  0.35451500  1
  C  2697  1  0.60699900  0.11978400  0.34316000  1
  C  2698  1  0.61473300  0.13793800  0.35443500  1
  C  2707  1  0.13217300  0.38838800  0.64789500  1
  C  2708  1  0.15643900  0.39227300  0.64377300  1
  C  2709  1  0.17241200  0.37562600  0.63900500  1
  C  2710  1  0.16344800  0.35460500  0.63836400  1
  C  2711  1  0.13932400  0.34994300  0.64218500  1
  C  2712  1  0.12336100  0.36693000  0.64725900  1
  C  2715  1  0.11915800  0.40611300  0.65641100  1
  C  2716  1  0.11569800  0.42575500  0.64507100  1
  C  2717  1  0.10741500  0.44413400  0.65634800  1
  C  2718  1  0.10306900  0.44259500  0.67845200  1
  C  2719  1  0.10694700  0.42350600  0.68983700  1
  C  2720  1  0.11468100  0.40534500  0.67857300  1
  C  2729  1  0.38595700  0.40070700  0.63333300  1
  C  2730  1  0.36175300  0.39640600  0.63738100  1
  C  2731  1  0.34534400  0.39253500  0.62090500  1
  C  2732  1  0.35376200  0.39300400  0.59979100  1
  C  2733  1  0.37774800  0.39712200  0.59492500  1
  C  2734  1  0.39419500  0.40110700  0.61175200  1
  C  2737  1  0.39929300  0.40869600  0.65113200  1
  C  2738  1  0.40232400  0.39716600  0.67069700  1
  C  2739  1  0.41068700  0.40819400  0.68917300  1
  C  2740  1  0.41555100  0.43032300  0.68778800  1
  C  2741  1  0.41216800  0.44194600  0.66883100  1
  C  2742  1  0.40425700  0.43090000  0.65064800  1
  C  2751  1  0.88595000  0.14259200  0.39964400  1
  C  2752  1  0.86175000  0.14689500  0.39558900  1
  C  2753  1  0.84535000  0.15075500  0.41207500  1
  C  2754  1  0.85377700  0.15028300  0.43318600  1
  C  2755  1  0.87777200  0.14619300  0.43804700  1
  C  2756  1  0.89421200  0.14220200  0.42121500  1
  C  2759  1  0.89928800  0.13459600  0.38184000  1
  C  2760  1  0.90231900  0.14614800  0.36228900  1
  C  2761  1  0.91067100  0.13511000  0.34381600  1
  C  2762  1  0.91553800  0.11298100  0.34518400  1
  C  2763  1  0.91213800  0.10136000  0.36413900  1
  C  2764  1  0.90421200  0.11238600  0.38232500  1
  C  2773  1  0.63609500  0.38878800  0.38443600  1
  C  2774  1  0.61207800  0.39306600  0.38934800  1
  C  2775  1  0.59579600  0.37664500  0.39410500  1
  C  2776  1  0.60414500  0.35540600  0.39381900  1
  C  2777  1  0.62794300  0.35040000  0.38906300  1
  C  2778  1  0.64428600  0.36711700  0.38419600  1
  C  2781  1  0.64928500  0.40642500  0.37590300  1
  C  2782  1  0.65312300  0.42599500  0.38728000  1
  C  2783  1  0.66147900  0.44433700  0.37598100  1
  C  2784  1  0.66580700  0.44280200  0.35388000  1
  C  2785  1  0.66178700  0.42374000  0.34250400  1
  C  2786  1  0.65368100  0.40568700  0.35372400  1
  C  2795  1  0.13609400  0.15452000  0.64857400  1
  C  2796  1  0.11208000  0.15023700  0.64365900  1
  C  2797  1  0.09580150  0.16664800  0.63886000  1
  C  2798  1  0.10415300  0.18788800  0.63912100  1
  C  2799  1  0.12795300  0.19290200  0.64387100  1
  C  2800  1  0.14428300  0.17619100  0.64879300  1
  C  2803  1  0.14929000  0.13688800  0.65710900  1
  C  2804  1  0.15315100  0.11732400  0.64573000  1
  C  2805  1  0.16156300  0.09898760  0.65700500  1
  C  2806  1  0.16585800  0.10052700  0.67911600  1
  C  2807  1  0.16179400  0.11957600  0.69050600  1
  C  2808  1  0.15369800  0.13763200  0.67928500  1
  C  2817  1  0.41059200  0.39961400  0.71028900  1
  C  2818  1  0.43160700  0.39885300  0.72248000  1
  C  2820  1  0.41002100  0.39491900  0.75509300  1
  C  2821  1  0.38819400  0.39503900  0.74378200  1
  C  2822  1  0.38888200  0.39730100  0.72132200  1
  C  2824  1  0.41016800  0.39477900  0.77763100  1
  C  2825  1  0.43218700  0.39832300  0.81006000  1
  C  2826  1  0.41132600  0.39900000  0.82246700  1
  C  2827  1  0.38947000  0.39676200  0.81165200  1
  C  2830  1  0.38849400  0.39477100  0.78917500  1
  C  2831  1  0.36679000  0.39426000  0.77784700  1
  C  2832  1  0.36664100  0.39439100  0.75533100  1
  C  2839  1  0.91058600  0.14370600  0.32270200  1
  C  2840  1  0.93160500  0.14445500  0.31051300  1
  C  2842  1  0.91001400  0.14838900  0.27790100  1
  C  2843  1  0.88819300  0.14830400  0.28921600  1
  C  2844  1  0.88887700  0.14606900  0.31167700  1
  C  2846  1  0.91015800  0.14851000  0.25536200  1
  C  2847  1  0.93215600  0.14491300  0.22293100  1
  C  2848  1  0.91129500  0.14428100  0.21051100  1
  C  2849  1  0.88945800  0.14651100  0.22135200  1
  C  2852  1  0.88848000  0.14854600  0.24382200  1
  C  2853  1  0.86678100  0.14909200  0.25515300  1
  C  2854  1  0.86663800  0.14897600  0.27767200  1
  C  2861  1  0.66245100  0.57793900  0.14375100  1
  C  2862  1  0.68350700  0.56573300  0.14350400  1
  C  2864  1  0.66200000  0.53304800  0.13886700  1
  C  2865  1  0.64018600  0.54440800  0.13834500  1
  C  2866  1  0.64081600  0.56694800  0.14067000  1
  C  2868  1  0.66214000  0.51043000  0.13875900  1
  C  2869  1  0.68404400  0.47792300  0.14312800  1
  C  2870  1  0.66313700  0.46551300  0.14327400  1
  C  2871  1  0.64136400  0.47630700  0.14028900  1
  C  2874  1  0.64046200  0.49885800  0.13814000  1
  C  2875  1  0.61878500  0.51022200  0.13693700  1
  C  2876  1  0.61864800  0.53284300  0.13703300  1
  C  2883  1  0.16235900  0.96542500  0.88918500  1
  C  2884  1  0.18343600  0.97759500  0.88940900  1
  C  2886  1  0.16199900  0.01030460  0.89410700  1
  C  2887  1  0.14015900  0.99898000  0.89461700  1
  C  2888  1  0.14074100  0.97643600  0.89228800  1
  C  2890  1  0.16218000  0.03292360  0.89422700  1
  C  2891  1  0.18415700  0.06539660  0.88992300  1
  C  2892  1  0.16328700  0.07785260  0.88976400  1
  C  2893  1  0.14148600  0.06708160  0.89270300  1
  C  2896  1  0.14052900  0.04453160  0.89484000  1
  C  2897  1  0.11882800  0.03320360  0.89601800  1
  C  2898  1  0.11864400  0.01058260  0.89591100  1
  C  2905  1  0.85916600  0.14421200  0.71039900  1
  C  2906  1  0.83835900  0.14494900  0.72287400  1
  C  2908  1  0.86050000  0.14855800  0.75522500  1
  C  2909  1  0.88213500  0.14845600  0.74362200  1
  C  2910  1  0.88106500  0.14636600  0.72115800  1
  C  2912  1  0.86072900  0.14851700  0.77776500  1
  C  2913  1  0.83924300  0.14476500  0.81045600  1
  C  2914  1  0.86030200  0.14396800  0.82258000  1
  C  2915  1  0.88198300  0.14622800  0.81149000  1
  C  2918  1  0.88259300  0.14837500  0.78901600  1
  C  2919  1  0.90410700  0.14890900  0.77740300  1
  C  2920  1  0.90388000  0.14894700  0.75488500  1
  C  2927  1  0.35918200  0.39909900  0.32258900  1
  C  2928  1  0.33837100  0.39837300  0.31011500  1
  C  2930  1  0.36051100  0.39476000  0.27776400  1
  C  2931  1  0.38214400  0.39482900  0.28936900  1
  C  2932  1  0.38108100  0.39689400  0.31183400  1
  C  2934  1  0.36073700  0.39481300  0.25522600  1
  C  2935  1  0.33926200  0.39859200  0.22253300  1
  C  2936  1  0.36032100  0.39936500  0.21039700  1
  C  2937  1  0.38198800  0.39711700  0.22150800  1
  C  2940  1  0.38260300  0.39492500  0.24397500  1
  C  2941  1  0.40411500  0.39436200  0.25558800  1
  C  2942  1  0.40388900  0.39431200  0.27810600  1
  C  2949  1  0.60738000  0.96541500  0.14314500  1
  C  2950  1  0.58652300  0.97789500  0.14293000  1
  C  2952  1  0.60856900  0.01034160  0.13869300  1
  C  2953  1  0.63020200  0.99870600  0.13813900  1
  C  2954  1  0.62920300  0.97615500  0.14025200  1
  C  2956  1  0.60878700  0.03296060  0.13881300  1
  C  2957  1  0.58738200  0.06570260  0.14343300  1
  C  2958  1  0.60848200  0.07783960  0.14374500  1
  C  2959  1  0.63009200  0.06679460  0.14072300  1
  C  2962  1  0.63064700  0.04425560  0.13837300  1
  C  2963  1  0.65214700  0.03262460  0.13713300  1
  C  2964  1  0.65192500  0.01000360  0.13701600  1
  C  2971  1  0.10745500  0.57786700  0.88984400  1
  C  2972  1  0.08657750  0.56542200  0.89003200  1
  C  2974  1  0.10856100  0.53294900  0.89431100  1
  C  2975  1  0.13021700  0.54455600  0.89485700  1
  C  2976  1  0.12926200  0.56711000  0.89275100  1
  C  2978  1  0.10874200  0.51033000  0.89419000  1
  C  2979  1  0.08727250  0.47761700  0.88961900  1
  C  2980  1  0.10833800  0.46543800  0.88928800  1
  C  2981  1  0.12997600  0.47646200  0.89227000  1
  C  2984  1  0.13057900  0.49900200  0.89461700  1
  C  2985  1  0.15210200  0.51059900  0.89583800  1
  C  2986  1  0.15192100  0.53322100  0.89595400  1
  C  2993  1  0.36008000  0.64169300  0.32260300  1
  C  2994  1  0.33907200  0.64235200  0.31039700  1
  C  2996  1  0.36067500  0.64629000  0.27779300  1
  C  2997  1  0.38249100  0.64627100  0.28912000  1
  C  2998  1  0.38178900  0.64405900  0.31158500  1
  C  3000  1  0.36055100  0.64636900  0.25525400  1
  C  3001  1  0.33858000  0.64264000  0.22282300  1
  C  3002  1  0.35946200  0.64201600  0.21044100  1
  C  3003  1  0.38129700  0.64437100  0.22125500  1
  C  3006  1  0.38223800  0.64641700  0.24372700  1
  C  3007  1  0.40392800  0.64703300  0.25507000  1
  C  3008  1  0.40405300  0.64696200  0.27758900  1
  C  3015  1  0.86009300  0.90161200  0.71037300  1
  C  3016  1  0.83908200  0.90095000  0.72257300  1
  C  3018  1  0.86067900  0.89701900  0.75518100  1
  C  3019  1  0.88249500  0.89702200  0.74385500  1
  C  3020  1  0.88180200  0.89921100  0.72139100  1
  C  3022  1  0.86055200  0.89694600  0.77772000  1
  C  3023  1  0.83857700  0.90066000  0.81015200  1
  C  3024  1  0.85945300  0.90128800  0.82254700  1
  C  3025  1  0.88128100  0.89897100  0.81171600  1
  C  3028  1  0.88223600  0.89688300  0.78924800  1
  C  3029  1  0.90392600  0.89625600  0.77790800  1
  C  3030  1  0.90405600  0.89632000  0.75538900  1
  C  3037  1  0.91121900  0.90106700  0.32266700  1
  C  3038  1  0.93202800  0.90038700  0.31017900  1
  C  3040  1  0.90985100  0.89684600  0.27783600  1
  C  3041  1  0.88823400  0.89681300  0.28946400  1
  C  3042  1  0.88932200  0.89881600  0.31193500  1
  C  3044  1  0.90959600  0.89697800  0.25530000  1
  C  3045  1  0.93101300  0.90094000  0.22259800  1
  C  3046  1  0.90993800  0.90166200  0.21048700  1
  C  3047  1  0.88829100  0.89929700  0.22161000  1
  C  3050  1  0.88771600  0.89705900  0.24407400  1
  C  3051  1  0.86622000  0.89639400  0.25570600  1
  C  3052  1  0.86647700  0.89627400  0.27822400  1
  C  3059  1  0.41121500  0.64223500  0.71032200  1
  C  3060  1  0.43201700  0.64286700  0.72281900  1
  C  3062  1  0.40984800  0.64647400  0.75515400  1
  C  3063  1  0.38823200  0.64651800  0.74352200  1
  C  3064  1  0.38931800  0.64451800  0.72105000  1
  C  3066  1  0.40958600  0.64634300  0.77769100  1
  C  3067  1  0.43100400  0.64240100  0.81039600  1
  C  3068  1  0.40992400  0.64166200  0.82250000  1
  C  3069  1  0.38827800  0.64403500  0.81137800  1
  C  3072  1  0.38770500  0.64627400  0.78891400  1
  C  3073  1  0.36621200  0.64694300  0.77728100  1
  C  3074  1  0.36647300  0.64705800  0.75476200  1
  C  3081  1  0.16184500  0.07779260  0.64853900  1
  C  3082  1  0.18290400  0.06560260  0.64836500  1
  C  3084  1  0.16146200  0.03289160  0.64368800  1
  C  3085  1  0.13962700  0.04422160  0.64316200  1
  C  3086  1  0.14022200  0.06676160  0.64549900  1
  C  3088  1  0.16163900  0.01027360  0.64356800  1
  C  3089  1  0.18360600  0.97779500  0.64790000  1
  C  3090  1  0.16272200  0.96535800  0.64804700  1
  C  3091  1  0.14092600  0.97611600  0.64505700  1
  C  3094  1  0.13998500  0.99867100  0.64294200  1
  C  3095  1  0.11828800  0.01000360  0.64174500  1
  C  3096  1  0.11810900  0.03262560  0.64185000  1
  C  3103  1  0.66177100  0.46552900  0.38446800  1
  C  3104  1  0.68285100  0.47769100  0.38464800  1
  C  3106  1  0.66143100  0.51041800  0.38929400  1
  C  3107  1  0.63958700  0.49910300  0.38985000  1
  C  3108  1  0.64015700  0.47655800  0.38755500  1
  C  3110  1  0.66162200  0.53303700  0.38937500  1
  C  3111  1  0.68360300  0.56549700  0.38497900  1
  C  3112  1  0.66273300  0.57796200  0.38485400  1
  C  3113  1  0.64094000  0.56719800  0.38782600  1
  C  3116  1  0.63997700  0.54465300  0.39000200  1
  C  3117  1  0.61827300  0.53333400  0.39123300  1
  C  3118  1  0.61807900  0.51071300  0.39116300  1
  C  3125  1  0.10755800  0.46538000  0.64798600  1
  C  3126  1  0.08669950  0.47786300  0.64794300  1
  C  3128  1  0.10871000  0.51031600  0.64362100  1
  C  3129  1  0.13033400  0.49867700  0.64286300  1
  C  3130  1  0.12935300  0.47612300  0.64494000  1
  C  3132  1  0.10893300  0.53293300  0.64380200  1
  C  3133  1  0.08758750  0.56566700  0.64868200  1
  C  3134  1  0.10868900  0.57780000  0.64881600  1
  C  3135  1  0.13026500  0.56676000  0.64558800  1
  C  3138  1  0.13079100  0.54422400  0.64319900  1
  C  3139  1  0.15227600  0.53259500  0.64175000  1
  C  3140  1  0.15204900  0.50997500  0.64158900  1
  C  3147  1  0.60763800  0.07787460  0.38500300  1
  C  3148  1  0.58675800  0.06542760  0.38501800  1
  C  3150  1  0.60870200  0.03294660  0.38938600  1
  C  3151  1  0.63035200  0.04455260  0.39013600  1
  C  3152  1  0.62941700  0.06711060  0.38806600  1
  C  3154  1  0.60888800  0.01032860  0.38920300  1
  C  3155  1  0.58747100  0.97762700  0.38437000  1
  C  3156  1  0.60854000  0.96544900  0.38421700  1
  C  3157  1  0.63014300  0.97646800  0.38740600  1
  C  3160  1  0.63072100  0.99900200  0.38979400  1
  C  3161  1  0.65222800  0.01059760  0.39122500  1
  C  3162  1  0.65204600  0.03321760  0.39138600  1
  C  3169  1  0.41297600  0.46392700  0.86374300  1
  C  3170  1  0.42566400  0.47628800  0.87869800  1
  C  3172  1  0.41165200  0.50896900  0.86335300  1
  C  3173  1  0.39809700  0.49747700  0.84810100  1
  C  3174  1  0.39895100  0.47493100  0.84864200  1
  C  3176  1  0.41133400  0.53154100  0.86334500  1
  C  3177  1  0.42441100  0.56453000  0.87869000  1
  C  3178  1  0.41142000  0.57658700  0.86370200  1
  C  3179  1  0.39774600  0.56528100  0.84857100  1
  C  3182  1  0.39748500  0.54271900  0.84807100  1
  C  3183  1  0.38396300  0.53121600  0.83293300  1
  C  3184  1  0.38426300  0.50865900  0.83295200  1
  C  3191  1  0.91294800  0.07937460  0.16922100  1
  C  3192  1  0.92564600  0.06701760  0.15427100  1
  C  3194  1  0.91163300  0.03433260  0.16960700  1
  C  3195  1  0.89806700  0.04582060  0.18485200  1
  C  3196  1  0.89891900  0.06836660  0.18431500  1
  C  3198  1  0.91132300  0.01176060  0.16961400  1
  C  3199  1  0.92442400  0.97877700  0.15427700  1
  C  3200  1  0.91142600  0.96671600  0.16925700  1
  C  3201  1  0.89773400  0.97801700  0.18437700  1
  C  3204  1  0.89746600  0.00057862  0.18488000  1
  C  3205  1  0.88393400  0.01207660  0.20001200  1
  C  3206  1  0.88422400  0.03463460  0.19999200  1
  C  3213  1  0.66353400  0.42386100  0.20779200  1
  C  3214  1  0.67595200  0.40864800  0.22008500  1
  C  3216  1  0.66205500  0.42415700  0.25260400  1
  C  3217  1  0.64873400  0.43965200  0.24116700  1
  C  3218  1  0.64966800  0.43915900  0.21873100  1
  C  3220  1  0.66172000  0.42415600  0.27506700  1
  C  3221  1  0.67465500  0.40863200  0.30789200  1
  C  3222  1  0.66191800  0.42387100  0.31988400  1
  C  3223  1  0.64840300  0.43919600  0.30864400  1
  C  3226  1  0.64809100  0.43966300  0.28619100  1
  C  3227  1  0.63476800  0.45501600  0.27474500  1
  C  3228  1  0.63507900  0.45500400  0.25229700  1
  C  3235  1  0.16360100  0.11943200  0.82522100  1
  C  3236  1  0.17596900  0.13467300  0.81292100  1
  C  3238  1  0.16212800  0.11910900  0.78040900  1
  C  3239  1  0.14888100  0.10357000  0.79185100  1
  C  3240  1  0.14981300  0.10407300  0.81428800  1
  C  3242  1  0.16178100  0.11911300  0.75794800  1
  C  3243  1  0.17461800  0.13469900  0.72512100  1
  C  3244  1  0.16193500  0.11942300  0.71312800  1
  C  3245  1  0.14850000  0.10404300  0.72437100  1
  C  3248  1  0.14821100  0.10356200  0.74682400  1
  C  3249  1  0.13496600  0.08815760  0.75827600  1
  C  3250  1  0.13528800  0.08816860  0.78072600  1
  C  3257  1  0.85861000  0.07889560  0.86373200  1
  C  3258  1  0.84570800  0.06678560  0.87874100  1
  C  3260  1  0.85890100  0.03384960  0.86336300  1
  C  3261  1  0.87264900  0.04508260  0.84805600  1
  C  3262  1  0.87229300  0.06764160  0.84857100  1
  C  3264  1  0.85870700  0.01127560  0.86337700  1
  C  3265  1  0.84493600  0.97853900  0.87877600  1
  C  3266  1  0.85765700  0.96622900  0.86379900  1
  C  3267  1  0.87156200  0.97729200  0.84865300  1
  C  3270  1  0.87228400  0.99984200  0.84809900  1
  C  3271  1  0.88601000  0.01107860  0.83291400  1
  C  3272  1  0.88618400  0.03363660  0.83288500  1
  C  3279  1  0.35860600  0.46441900  0.16923700  1
  C  3280  1  0.34569700  0.47652800  0.15423200  1
  C  3282  1  0.35889700  0.50946500  0.16960300  1
  C  3283  1  0.37265600  0.49823400  0.18490100  1
  C  3284  1  0.37229800  0.47567500  0.18439200  1
  C  3286  1  0.35870500  0.53203900  0.16958500  1
  C  3287  1  0.34492400  0.56477800  0.15419200  1
  C  3288  1  0.35765600  0.57708500  0.16916000  1
  C  3289  1  0.37157500  0.56602400  0.18429600  1
  C  3292  1  0.37229500  0.54347400  0.18485300  1
  C  3293  1  0.38602700  0.53223700  0.20003500  1
  C  3294  1  0.38620100  0.50967900  0.20006400  1
  C  3301  1  0.60797500  0.11934200  0.20842900  1
  C  3302  1  0.59535000  0.13461800  0.22047300  1
  C  3304  1  0.60848000  0.11912200  0.25324900  1
  C  3305  1  0.62198300  0.10356300  0.24207000  1
  C  3306  1  0.62151700  0.10399900  0.21962000  1
  C  3308  1  0.60834000  0.11918000  0.27571200  1
  C  3309  1  0.59475200  0.13479600  0.30828700  1
  C  3310  1  0.60723800  0.11958600  0.32053000  1
  C  3311  1  0.62098000  0.10424000  0.30953400  1
  C  3314  1  0.62172200  0.10369000  0.28709500  1
  C  3315  1  0.63523700  0.08827760  0.27591200  1
  C  3316  1  0.63536100  0.08820960  0.25346200  1
  C  3323  1  0.10790200  0.42401300  0.82457300  1
  C  3324  1  0.09533750  0.40869800  0.81252600  1
  C  3326  1  0.10837500  0.42425800  0.77975300  1
  C  3327  1  0.12179400  0.43987400  0.79093100  1
  C  3328  1  0.12134400  0.43942800  0.81338300  1
  C  3330  1  0.10824000  0.42419200  0.75728900  1
  C  3331  1  0.09475950  0.40849200  0.72472000  1
  C  3332  1  0.10717200  0.42374300  0.71246900  1
  C  3333  1  0.12082000  0.43916200  0.72346200  1
  C  3336  1  0.12154300  0.43973300  0.74590200  1
  C  3337  1  0.13496700  0.45521100  0.75708300  1
  C  3338  1  0.13508800  0.45528500  0.77953300  1
  C  3345  1  0.10694000  0.61964200  0.82541700  1
  C  3346  1  0.09435950  0.63473800  0.81311700  1
  C  3348  1  0.10850300  0.61937700  0.78061000  1
  C  3349  1  0.12199800  0.60401800  0.79206100  1
  C  3350  1  0.12101800  0.60449300  0.81449700  1
  C  3352  1  0.10885000  0.61936900  0.75814700  1
  C  3353  1  0.09572650  0.63473000  0.72530400  1
  C  3354  1  0.10862700  0.61958900  0.71333100  1
  C  3355  1  0.12232800  0.60441000  0.72458100  1
  C  3358  1  0.12266400  0.60398500  0.74703600  1
  C  3359  1  0.13618300  0.58878300  0.75849900  1
  C  3360  1  0.13585900  0.58880500  0.78094700  1
  C  3367  1  0.60689100  0.92371100  0.20757100  1
  C  3368  1  0.59437500  0.90857300  0.21987300  1
  C  3370  1  0.60840900  0.92400700  0.25238100  1
  C  3371  1  0.62183000  0.93942100  0.24093300  1
  C  3372  1  0.62087300  0.93893200  0.21849600  1
  C  3374  1  0.60875300  0.92401300  0.27484400  1
  C  3375  1  0.59571600  0.90857600  0.30767900  1
  C  3376  1  0.60855100  0.92375400  0.31966100  1
  C  3377  1  0.62216500  0.93900400  0.30841600  1
  C  3380  1  0.62248600  0.93945200  0.28596200  1
  C  3381  1  0.63591800  0.95471700  0.27450300  1
  C  3382  1  0.63560200  0.95469500  0.25205300  1
  C  3389  1  0.16271100  0.92379700  0.82459700  1
  C  3390  1  0.17545200  0.90861600  0.81253600  1
  C  3392  1  0.16208100  0.92399700  0.77978200  1
  C  3393  1  0.14844000  0.93943700  0.79098500  1
  C  3394  1  0.14897500  0.93901800  0.81343700  1
  C  3396  1  0.16218300  0.92394900  0.75731700  1
  C  3397  1  0.17589900  0.90847900  0.72471500  1
  C  3398  1  0.16325000  0.92359700  0.71249900  1
  C  3399  1  0.14935400  0.93881500  0.72351600  1
  C  3402  1  0.14862400  0.93933200  0.74596000  1
  C  3403  1  0.13495100  0.95461200  0.75716800  1
  C  3404  1  0.13486600  0.95466900  0.77961800  1
  C  3411  1  0.66278400  0.61951600  0.20832900  1
  C  3412  1  0.67548600  0.63471700  0.22040000  1
  C  3414  1  0.66215900  0.61929300  0.25314400  1
  C  3415  1  0.64857500  0.60381500  0.24193400  1
  C  3416  1  0.64911000  0.60424500  0.21948400  1
  C  3418  1  0.66224800  0.61934300  0.27561000  1
  C  3419  1  0.67588300  0.63486400  0.30821400  1
  C  3420  1  0.66327500  0.61971600  0.32042900  1
  C  3421  1  0.64944500  0.60445200  0.30940800  1
  C  3424  1  0.64873400  0.60392500  0.28696500  1
  C  3425  1  0.63512600  0.58860200  0.27575000  1
  C  3426  1  0.63505100  0.58854300  0.25330000  1
  C  3433  1  0.91348100  0.96594600  0.36394600  1
  C  3434  1  0.92618100  0.97826200  0.37893100  1
  C  3436  1  0.91245600  0.01099860  0.36348800  1
  C  3437  1  0.89890200  0.99955600  0.34820100  1
  C  3438  1  0.89960100  0.97700800  0.34877900  1
  C  3440  1  0.91226400  0.03357360  0.36345800  1
  C  3441  1  0.92538800  0.06652560  0.37885500  1
  C  3442  1  0.91251000  0.07862260  0.36381700  1
  C  3443  1  0.89888200  0.06735460  0.34862600  1
  C  3446  1  0.89854200  0.04479460  0.34812300  1
  C  3447  1  0.88503800  0.03334060  0.33293900  1
  C  3448  1  0.88520900  0.01078260  0.33298200  1
  C  3455  1  0.41344400  0.57735700  0.66903500  1
  C  3456  1  0.42615200  0.56504800  0.65405200  1
  C  3458  1  0.41243500  0.53230400  0.66948700  1
  C  3459  1  0.39886900  0.54374100  0.68477300  1
  C  3460  1  0.39956400  0.56628900  0.68419800  1
  C  3462  1  0.41225100  0.50972900  0.66951600  1
  C  3463  1  0.42539800  0.47678400  0.65412200  1
  C  3464  1  0.41251600  0.46468100  0.66915000  1
  C  3465  1  0.39887100  0.47594200  0.68433500  1
  C  3468  1  0.39852500  0.49850100  0.68484300  1
  C  3469  1  0.38501000  0.50995000  0.70002500  1
  C  3470  1  0.38517300  0.53250700  0.69998300  1
  C  3477  1  0.35842000  0.57669500  0.36386500  1
  C  3478  1  0.34548100  0.56461100  0.37886900  1
  C  3480  1  0.35856900  0.53164700  0.36347000  1
  C  3481  1  0.37236700  0.54285500  0.34818300  1
  C  3482  1  0.37207700  0.56541400  0.34870400  1
  C  3484  1  0.35829400  0.50907300  0.36346200  1
  C  3485  1  0.34440700  0.47635200  0.37882100  1
  C  3486  1  0.35709500  0.46402300  0.36383800  1
  C  3487  1  0.37105100  0.47506500  0.34871700  1
  C  3490  1  0.37184500  0.49761500  0.34818200  1
  C  3491  1  0.38562500  0.50882800  0.33301900  1
  C  3492  1  0.38587700  0.53138600  0.33301200  1
  C  3499  1  0.85841700  0.96662600  0.66913100  1
  C  3500  1  0.84547400  0.97870500  0.65412500  1
  C  3502  1  0.85854800  0.01167560  0.66951700  1
  C  3503  1  0.87234100  0.00047362  0.68481600  1
  C  3504  1  0.87205600  0.97791300  0.68430000  1
  C  3506  1  0.85827200  0.03424960  0.66951900  1
  C  3507  1  0.84438600  0.06696360  0.65414400  1
  C  3508  1  0.85705800  0.07929860  0.66913200  1
  C  3509  1  0.87101100  0.06826160  0.68426300  1
  C  3512  1  0.87181000  0.04571360  0.68480100  1
  C  3513  1  0.88558300  0.03450660  0.69997600  1
  C  3514  1  0.88584000  0.01194860  0.69998800  1
  C  3521  1  0.19928800  0.38070600  0.90037500  1
  C  3522  1  0.21296700  0.36913300  0.91531400  1
  C  3524  1  0.24869000  0.38578800  0.90377600  1
  C  3525  1  0.23614200  0.39861100  0.88893300  1
  C  3526  1  0.21139000  0.39561500  0.88731900  1
  C  3528  1  0.27349200  0.38734200  0.90536500  1
  C  3529  1  0.30928200  0.37490600  0.92121100  1
  C  3530  1  0.32306600  0.38976200  0.90959800  1
  C  3531  1  0.31094000  0.40337900  0.89522500  1
  C  3534  1  0.28609100  0.40229500  0.89269000  1
  C  3535  1  0.27352600  0.41553100  0.87828200  1
  C  3536  1  0.24869100  0.41352000  0.87623000  1
  C  3543  1  0.69929900  0.16262000  0.13262300  1
  C  3544  1  0.71297500  0.17419600  0.11768500  1
  C  3546  1  0.74869700  0.15752500  0.12920500  1
  C  3547  1  0.73615000  0.14469800  0.14404600  1
  C  3548  1  0.71139800  0.14769400  0.14566300  1
  C  3550  1  0.77349800  0.15596800  0.12761300  1
  C  3551  1  0.80929100  0.16841100  0.11177700  1
  C  3552  1  0.82307400  0.15355500  0.12339100  1
  C  3553  1  0.81094400  0.13992200  0.13774400  1
  C  3556  1  0.78609700  0.14100900  0.14028400  1
  C  3557  1  0.77353000  0.12776700  0.15468500  1
  C  3558  1  0.74869700  0.12978300  0.15674200  1
  C  3565  1  0.44963400  0.38909400  0.12448000  1
  C  3566  1  0.46325400  0.37430800  0.11262300  1
  C  3568  1  0.49906700  0.38558000  0.12926800  1
  C  3569  1  0.48659000  0.40028000  0.14233000  1
  C  3570  1  0.46182700  0.40196100  0.13947700  1
  C  3572  1  0.52386800  0.38389400  0.13074800  1
  C  3573  1  0.55958100  0.36803500  0.11810900  1
  C  3574  1  0.57341600  0.37937300  0.13310700  1
  C  3575  1  0.56136600  0.39364200  0.14688900  1
  C  3578  1  0.53653300  0.39631900  0.14584600  1
  C  3579  1  0.52403800  0.41059400  0.15928900  1
  C  3580  1  0.49920700  0.41275400  0.15736400  1
  C  3587  1  0.94964800  0.15424000  0.90850800  1
  C  3588  1  0.96327000  0.16901900  0.92037200  1
  C  3590  1  0.99908000  0.15775500  0.90371700  1
  C  3591  1  0.98660200  0.14306500  0.89064600  1
  C  3592  1  0.96183600  0.14138900  0.89349400  1
  C  3594  1  0.02388250  0.15943600  0.90224100  1
  C  3595  1  0.05959550  0.17527900  0.91489700  1
  C  3596  1  0.07343250  0.16394800  0.89989500  1
  C  3597  1  0.06138150  0.14969000  0.88610100  1
  C  3600  1  0.03654650  0.14701700  0.88713900  1
  C  3601  1  0.02405050  0.13275100  0.87368900  1
  C  3602  1  0.99921900  0.13059600  0.87560900  1
  C  3609  1  0.57126500  0.66215100  0.13258700  1
  C  3610  1  0.55743700  0.67360300  0.11766800  1
  C  3612  1  0.52192800  0.65654500  0.12916800  1
  C  3613  1  0.53463600  0.64385400  0.14401300  1
  C  3614  1  0.55934500  0.64711600  0.14563800  1
  C  3616  1  0.49715200  0.65470200  0.12755000  1
  C  3617  1  0.46120800  0.66666667  0.11166300  1
  C  3618  1  0.44761900  0.65170600  0.12326400  1
  C  3619  1  0.45991700  0.63823100  0.13764800  1
  C  3622  1  0.48474600  0.63959800  0.14020600  1
  C  3623  1  0.49748000  0.62650200  0.15462100  1
  C  3624  1  0.52228200  0.62879500  0.15669500  1
  C  3631  1  0.07124450  0.88116800  0.90035300  1
  C  3632  1  0.05742450  0.86971200  0.91527600  1
  C  3634  1  0.02191350  0.88678800  0.90380500  1
  C  3635  1  0.03461750  0.89948300  0.88895900  1
  C  3636  1  0.05932450  0.89622100  0.88732300  1
  C  3638  1  0.99713700  0.88863800  0.90543200  1
  C  3639  1  0.96119500  0.87661700  0.92131800  1
  C  3640  1  0.94760400  0.89162600  0.90971600  1
  C  3641  1  0.95990300  0.90511900  0.89534900  1
  C  3644  1  0.98473100  0.90374600  0.89278300  1
  C  3645  1  0.99746100  0.91684800  0.87837100  1
  C  3646  1  0.02226250  0.91455000  0.87628600  1
  C  3653  1  0.32079100  0.65282900  0.90840700  1
  C  3654  1  0.30737600  0.66776300  0.92027200  1
  C  3656  1  0.27141800  0.65696300  0.90356300  1
  C  3657  1  0.28369600  0.64213400  0.89049200  1
  C  3658  1  0.30842800  0.64014400  0.89337200  1
  C  3660  1  0.24664100  0.65892800  0.90207600  1
  C  3661  1  0.21111600  0.67509900  0.91476800  1
  C  3662  1  0.19713100  0.66386100  0.89980700  1
  C  3663  1  0.20901400  0.64953300  0.88596900  1
  C  3666  1  0.23381900  0.64664400  0.88697000  1
  C  3667  1  0.24612400  0.63226200  0.87350300  1
  C  3668  1  0.27092300  0.62983100  0.87542600  1
  C  3675  1  0.82079500  0.89045700  0.12457900  1
  C  3676  1  0.80737200  0.87553200  0.11271100  1
  C  3678  1  0.77142300  0.88632900  0.12943800  1
  C  3679  1  0.78371100  0.90114500  0.14251500  1
  C  3680  1  0.80844300  0.90312700  0.13963500  1
  C  3682  1  0.74664700  0.88437400  0.13092500  1
  C  3683  1  0.71111500  0.86822500  0.11822200  1
  C  3684  1  0.69713400  0.87945500  0.13319200  1
  C  3685  1  0.70902400  0.89377000  0.14703800  1
  C  3688  1  0.73383000  0.89665100  0.14603800  1
  C  3689  1  0.74614400  0.91102300  0.15951300  1
  C  3690  1  0.77094300  0.91344600  0.15758600  1
  C  3697  1  0.69944400  0.88131200  0.39709200  1
  C  3698  1  0.71285800  0.86991600  0.41235700  1
  C  3700  1  0.74862800  0.88715100  0.40179500  1
  C  3701  1  0.73632300  0.89977700  0.38662100  1
  C  3702  1  0.71169600  0.89640300  0.38435800  1
  C  3704  1  0.77334100  0.88909400  0.40402200  1
  C  3705  1  0.80888900  0.87715400  0.42069100  1
  C  3706  1  0.82276900  0.89210000  0.40928400  1
  C  3707  1  0.81080600  0.90558600  0.39468300  1
  C  3710  1  0.78605100  0.90420700  0.39162600  1
  C  3711  1  0.77370000  0.91725500  0.37690400  1
  C  3712  1  0.74898100  0.91488300  0.37424100  1
  C  3719  1  0.19945800  0.66199100  0.63587800  1
  C  3720  1  0.21286600  0.67339200  0.62061400  1
  C  3722  1  0.24863800  0.65614700  0.63116300  1
  C  3723  1  0.23633500  0.64351800  0.64633400  1
  C  3724  1  0.21170800  0.64688700  0.64859600  1
  C  3726  1  0.27335100  0.65420600  0.62893500  1
  C  3727  1  0.30890500  0.66615700  0.61228100  1
  C  3728  1  0.32278300  0.65121600  0.62369300  1
  C  3729  1  0.31081600  0.63771200  0.63827300  1
  C  3732  1  0.28606100  0.63909100  0.64133000  1
  C  3733  1  0.27371000  0.62603300  0.65604400  1
  C  3734  1  0.24899100  0.62840800  0.65870700  1
  C  3741  1  0.94984100  0.89100400  0.62530200  1
  C  3742  1  0.96355100  0.87614100  0.61362400  1
  C  3744  1  0.99907000  0.88674800  0.63121400  1
  C  3745  1  0.98647600  0.90156600  0.64405100  1
  C  3746  1  0.96184000  0.90362300  0.64063100  1
  C  3748  1  0.02378150  0.88465100  0.63332800  1
  C  3749  1  0.05959750  0.86830200  0.62154000  1
  C  3750  1  0.07317250  0.87944700  0.63686900  1
  C  3751  1  0.06094350  0.89380500  0.65042700  1
  C  3754  1  0.03619750  0.89681800  0.64879800  1
  C  3755  1  0.02356350  0.91121900  0.66199800  1
  C  3756  1  0.99884700  0.91375800  0.65947300  1
  C  3763  1  0.44983700  0.65232500  0.40767900  1
  C  3764  1  0.46355600  0.66717900  0.41935900  1
  C  3766  1  0.49906500  0.65657600  0.40175200  1
  C  3767  1  0.48646200  0.64176800  0.38891000  1
  C  3768  1  0.46182500  0.63971800  0.39233300  1
  C  3770  1  0.52377600  0.65866700  0.39963400  1
  C  3771  1  0.55959800  0.67499600  0.41142700  1
  C  3772  1  0.57316800  0.66385700  0.39608900  1
  C  3773  1  0.56093000  0.64950900  0.38252400  1
  C  3776  1  0.53618400  0.64650300  0.38415500  1
  C  3777  1  0.52354000  0.63211300  0.37095200  1
  C  3778  1  0.49882400  0.62957900  0.37348100  1
  C  3785  1  0.07121450  0.16234400  0.63564900  1
  C  3786  1  0.05789850  0.17382800  0.62038300  1
  C  3788  1  0.02196450  0.15693700  0.63103800  1
  C  3789  1  0.03416750  0.14421000  0.64619700  1
  C  3790  1  0.05883550  0.14736400  0.64841100  1
  C  3792  1  0.99722500  0.15524200  0.62887800  1
  C  3793  1  0.96177100  0.16753200  0.61230000  1
  C  3794  1  0.94774900  0.15272400  0.62374200  1
  C  3795  1  0.95959100  0.13912700  0.63832100  1
  C  3798  1  0.98437100  0.14026500  0.64131900  1
  C  3799  1  0.99661100  0.12710400  0.65601800  1
  C  3800  1  0.02136650  0.12924000  0.65862000  1
  C  3807  1  0.57121200  0.38095400  0.39732600  1
  C  3808  1  0.55789600  0.36946500  0.41259200  1
  C  3810  1  0.52196800  0.38637600  0.40195300  1
  C  3811  1  0.53417000  0.39910700  0.38679900  1
  C  3812  1  0.55883800  0.39595400  0.38458300  1
  C  3814  1  0.49722800  0.38807600  0.40411500  1
  C  3815  1  0.46176900  0.37578100  0.42068200  1
  C  3816  1  0.44775100  0.39058800  0.40923800  1
  C  3817  1  0.45959900  0.40420200  0.39467800  1
  C  3820  1  0.48437700  0.40306000  0.39168000  1
  C  3821  1  0.49661900  0.41622800  0.37698900  1
  C  3822  1  0.52137300  0.41408800  0.37438400  1
  C  3829  1  0.82065400  0.15334300  0.40785800  1
  C  3830  1  0.80679300  0.16807600  0.41955300  1
  C  3832  1  0.77136100  0.15708200  0.40206200  1
  C  3833  1  0.78410000  0.14237600  0.38921400  1
  C  3834  1  0.80877200  0.14057800  0.39257500  1
  C  3836  1  0.74662800  0.15895300  0.39998600  1
  C  3837  1  0.71068000  0.17505400  0.41177200  1
  C  3838  1  0.69720400  0.16383900  0.39642200  1
  C  3839  1  0.70954300  0.14952500  0.38289700  1
  C  3842  1  0.73431400  0.14667700  0.38453400  1
  C  3843  1  0.74708300  0.13236800  0.37133800  1
  C  3844  1  0.77183100  0.13004900  0.37383200  1
  C  3851  1  0.32064800  0.38995300  0.62512700  1
  C  3852  1  0.30678200  0.37522500  0.61343200  1
  C  3854  1  0.27135900  0.38621100  0.63094000  1
  C  3855  1  0.28410300  0.40091000  0.64379300  1
  C  3856  1  0.30877500  0.40270300  0.64042900  1
  C  3858  1  0.24662500  0.38434200  0.63302100  1
  C  3859  1  0.21067500  0.36825300  0.62123100  1
  C  3860  1  0.19720200  0.37945900  0.63659000  1
  C  3861  1  0.20954600  0.39376500  0.65012000  1
  C  3864  1  0.23431500  0.39661300  0.64848000  1
  C  3865  1  0.24709000  0.41091500  0.66167800  1
  C  3866  1  0.27183900  0.41323400  0.65918000  1
  C  3873  1  0.38662100  0.39766600  0.07275380  1
  C  3874  1  0.38292500  0.37880500  0.06086780  1
  C  3876  1  0.38745200  0.39748300  0.02781280  1
  C  3877  1  0.39117300  0.41708600  0.03879080  1
  C  3878  1  0.39080600  0.41680400  0.06135080  1
  C  3880  1  0.38827600  0.39685800  0.00531880  1
  C  3881  1  0.38426500  0.37663100  0.97319100  1
  C  3882  1  0.38761100  0.39497300  0.96038200  1
  C  3883  1  0.39184900  0.41460500  0.97090000  1
  C  3886  1  0.39240200  0.41586400  0.99343700  1
  C  3887  1  0.39624000  0.43534200  0.00444180  1
  C  3888  1  0.39579500  0.43591900  0.02694580  1
  C  3895  1  0.88665500  0.14561300  0.96023600  1
  C  3896  1  0.88289900  0.16447100  0.97211100  1
  C  3898  1  0.88745100  0.14579300  0.00516580  1
  C  3899  1  0.89120700  0.12619400  0.99418700  1
  C  3900  1  0.89083700  0.12646900  0.97162700  1
  C  3902  1  0.88826700  0.14641800  0.02766080  1
  C  3903  1  0.88421500  0.16663300  0.05979080  1
  C  3904  1  0.88761900  0.14830100  0.07260780  1
  C  3905  1  0.89184500  0.12867600  0.06207680  1
  C  3908  1  0.89242400  0.12741700  0.03954080  1
  C  3909  1  0.89629200  0.10794400  0.02853680  1
  C  3910  1  0.89585400  0.10736700  0.00603380  1
  C  3917  1  0.63692400  0.21518900  0.14092800  1
  C  3918  1  0.63327900  0.22707900  0.12212400  1
  C  3920  1  0.63759700  0.26024000  0.14076300  1
  C  3921  1  0.64124900  0.24924800  0.16029800  1
  C  3922  1  0.64092500  0.22659900  0.16001800  1
  C  3924  1  0.63831100  0.28281700  0.14013000  1
  C  3925  1  0.63419000  0.31499900  0.11992900  1
  C  3926  1  0.63747100  0.32787300  0.13817800  1
  C  3927  1  0.64164900  0.31738000  0.15776000  1
  C  3930  1  0.64229800  0.29476100  0.15905500  1
  C  3931  1  0.64609400  0.28375800  0.17847200  1
  C  3932  1  0.64572400  0.26115000  0.17906500  1
  C  3939  1  0.13693400  0.32811800  0.89211200  1
  C  3940  1  0.13332700  0.31623900  0.91092400  1
  C  3942  1  0.13758100  0.28308600  0.89225900  1
  C  3943  1  0.14119900  0.29408500  0.87271900  1
  C  3944  1  0.14087300  0.31673300  0.87300000  1
  C  3946  1  0.13829500  0.26050900  0.89288500  1
  C  3947  1  0.13423400  0.22832500  0.91310100  1
  C  3948  1  0.13745000  0.21547000  0.89483300  1
  C  3949  1  0.14161300  0.22594800  0.87524300  1
  C  3952  1  0.14225600  0.24856800  0.87395300  1
  C  3953  1  0.14602500  0.25957500  0.85453500  1
  C  3954  1  0.14564900  0.28218200  0.85394700  1
  C  3961  1  0.38368900  0.64354500  0.96014200  1
  C  3962  1  0.38739000  0.66239000  0.97205400  1
  C  3964  1  0.38298900  0.64364400  0.00507980  1
  C  3965  1  0.37926600  0.62405600  0.99407700  1
  C  3966  1  0.37956600  0.62437900  0.97151600  1
  C  3968  1  0.38224500  0.64423000  0.02757680  1
  C  3969  1  0.38634500  0.66441300  0.05971980  1
  C  3970  1  0.38307000  0.64604900  0.07251180  1
  C  3971  1  0.37883400  0.62642500  0.06197680  1
  C  3974  1  0.37820000  0.62519800  0.03943880  1
  C  3975  1  0.37435300  0.60573500  0.02841180  1
  C  3976  1  0.37471500  0.60519700  0.00590480  1
  C  3983  1  0.88366100  0.89978400  0.07282680  1
  C  3984  1  0.88741400  0.88094400  0.06092180  1
  C  3986  1  0.88298600  0.89969700  0.02790080  1
  C  3987  1  0.87923500  0.91927900  0.03890880  1
  C  3988  1  0.87954200  0.91895800  0.06146980  1
  C  3990  1  0.88224200  0.89911800  0.00540280  1
  C  3991  1  0.88635800  0.87894900  0.97325300  1
  C  3992  1  0.88304400  0.89731000  0.96045700  1
  C  3993  1  0.87882600  0.91692600  0.97101100  1
  C  3996  1  0.87816800  0.91814700  0.99354700  1
  C  3997  1  0.87429900  0.93760400  0.00457880  1
  C  3998  1  0.87466200  0.93813600  0.02708480  1
  C  4005  1  0.13327000  0.82819600  0.89220800  1
  C  4006  1  0.13720300  0.81635300  0.91099100  1
  C  4008  1  0.13271200  0.78314300  0.89246000  1
  C  4009  1  0.12874100  0.79409600  0.87295200  1
  C  4010  1  0.12901400  0.81674400  0.87318700  1
  C  4012  1  0.13210200  0.76056500  0.89312700  1
  C  4013  1  0.13664700  0.72841500  0.91330800  1
  C  4014  1  0.13314200  0.71550900  0.89511500  1
  C  4015  1  0.12864200  0.72597000  0.87557400  1
  C  4018  1  0.12789100  0.74858400  0.87426200  1
  C  4019  1  0.12376300  0.75954900  0.85487800  1
  C  4020  1  0.12404100  0.78215500  0.85425400  1
  C  4027  1  0.63326500  0.71514600  0.14068300  1
  C  4028  1  0.63715600  0.72698800  0.12189400  1
  C  4030  1  0.63273400  0.76017900  0.14047000  1
  C  4031  1  0.62880200  0.74921200  0.15997900  1
  C  4032  1  0.62907700  0.72656400  0.15973100  1
  C  4034  1  0.63212200  0.78275800  0.13981900  1
  C  4035  1  0.63660500  0.81491900  0.11963500  1
  C  4036  1  0.63317100  0.82779800  0.13785500  1
  C  4037  1  0.62869000  0.81734300  0.15740000  1
  C  4040  1  0.62794100  0.79472800  0.15869700  1
  C  4041  1  0.62384800  0.78375000  0.17807900  1
  C  4042  1  0.62413200  0.76114200  0.17868900  1
  C  4049  1  0.88746500  0.89995500  0.57290200  1
  C  4050  1  0.88303500  0.88117900  0.56108900  1
  C  4052  1  0.88779300  0.89969100  0.52796100  1
  C  4053  1  0.89229300  0.91919600  0.53887500  1
  C  4054  1  0.89216700  0.91895400  0.56143600  1
  C  4056  1  0.88828000  0.89903500  0.50545700  1
  C  4057  1  0.88319000  0.87891400  0.47339100  1
  C  4058  1  0.88701100  0.89713900  0.46052200  1
  C  4059  1  0.89199500  0.91665900  0.47098500  1
  C  4062  1  0.89286000  0.91791800  0.49351500  1
  C  4063  1  0.89748900  0.93729000  0.50445700  1
  C  4064  1  0.89736500  0.93789200  0.52696300  1
  C  4071  1  0.38749300  0.64334000  0.46009800  1
  C  4072  1  0.38301000  0.66211000  0.47190200  1
  C  4074  1  0.38780300  0.64360100  0.50503000  1
  C  4075  1  0.39233000  0.62409900  0.49411500  1
  C  4076  1  0.39219300  0.62433600  0.47155300  1
  C  4078  1  0.38829400  0.64425600  0.52753400  1
  C  4079  1  0.38320500  0.66437300  0.55960500  1
  C  4080  1  0.38705300  0.64615100  0.57247900  1
  C  4081  1  0.39202000  0.62663700  0.56200300  1
  C  4084  1  0.39290500  0.62537900  0.53947300  1
  C  4085  1  0.39755500  0.60601200  0.52853100  1
  C  4086  1  0.39742700  0.60540800  0.50602500  1
  C  4093  1  0.13766200  0.71503500  0.64521900  1
  C  4094  1  0.13388100  0.72692800  0.62644100  1
  C  4096  1  0.13792100  0.76008500  0.64513600  1
  C  4097  1  0.14174100  0.74908300  0.66464100  1
  C  4098  1  0.14162000  0.72643200  0.66432200  1
  C  4100  1  0.13835800  0.78266800  0.64455200  1
  C  4101  1  0.13381700  0.81485200  0.62442700  1
  C  4102  1  0.13701500  0.82772100  0.64269100  1
  C  4103  1  0.14135600  0.81722400  0.66224300  1
  C  4106  1  0.14225500  0.79460900  0.66349500  1
  C  4107  1  0.14624300  0.78360100  0.68287800  1
  C  4108  1  0.14612900  0.76099000  0.68342300  1
  C  4115  1  0.63767500  0.82824700  0.38778900  1
  C  4116  1  0.63392800  0.81635900  0.40657400  1
  C  4118  1  0.63790200  0.78321400  0.38785100  1
  C  4119  1  0.64169200  0.79422200  0.36834200  1
  C  4120  1  0.64156900  0.81687400  0.36866500  1
  C  4122  1  0.63834000  0.76063000  0.38842800  1
  C  4123  1  0.63385300  0.72844200  0.40856400  1
  C  4124  1  0.63698600  0.71559400  0.39027900  1
  C  4125  1  0.64131300  0.72607700  0.37072100  1
  C  4128  1  0.64221100  0.74869200  0.36947700  1
  C  4129  1  0.64617100  0.75970900  0.35009400  1
  C  4130  1  0.64605400  0.78231900  0.34955400  1
  C  4137  1  0.88320200  0.14499200  0.46017200  1
  C  4138  1  0.88765300  0.16378300  0.47195100  1
  C  4140  1  0.88281600  0.14534500  0.50511500  1
  C  4141  1  0.87830500  0.12582300  0.49423300  1
  C  4142  1  0.87845900  0.12602100  0.47167300  1
  C  4144  1  0.88227900  0.14604500  0.52761500  1
  C  4145  1  0.88730900  0.16622800  0.55965600  1
  C  4146  1  0.88345200  0.14802600  0.57254900  1
  C  4147  1  0.87845900  0.12849300  0.56211400  1
  C  4150  1  0.87763900  0.12719200  0.53958600  1
  C  4151  1  0.87300900  0.10780300  0.52867600  1
  C  4152  1  0.87317900  0.10715600  0.50617200  1
  C  4159  1  0.38316400  0.39834200  0.57279700  1
  C  4160  1  0.38767000  0.37955700  0.56102500  1
  C  4162  1  0.38281000  0.39799700  0.52786500  1
  C  4163  1  0.37826900  0.41751500  0.53874700  1
  C  4164  1  0.37842700  0.41731900  0.56130700  1
  C  4166  1  0.38228200  0.39730100  0.50536300  1
  C  4167  1  0.38734600  0.37713200  0.47331900  1
  C  4168  1  0.38343900  0.39532500  0.46041800  1
  C  4169  1  0.37846200  0.41485100  0.47086700  1
  C  4172  1  0.37761700  0.41614800  0.49339500  1
  C  4173  1  0.37296100  0.43553200  0.50430600  1
  C  4174  1  0.37312600  0.43617700  0.52681000  1
  C  4181  1  0.63325600  0.32820300  0.38789800  1
  C  4182  1  0.63681200  0.31627100  0.40668900  1
  C  4184  1  0.63283300  0.28315100  0.38792500  1
  C  4185  1  0.62926300  0.29418700  0.36839900  1
  C  4186  1  0.62946100  0.31683700  0.36874800  1
  C  4188  1  0.63227100  0.26057000  0.38848700  1
  C  4189  1  0.63643700  0.22835500  0.40862800  1
  C  4190  1  0.63337500  0.21551200  0.39032700  1
  C  4191  1  0.62928900  0.22603900  0.37074600  1
  C  4194  1  0.62851200  0.24865700  0.36950400  1
  C  4195  1  0.62478400  0.25969900  0.35009700  1
  C  4196  1  0.62501100  0.28231100  0.34957300  1
  C  4203  1  0.13324500  0.21510600  0.64504400  1
  C  4204  1  0.13676200  0.22703400  0.62624800  1
  C  4206  1  0.13285500  0.26014100  0.64504700  1
  C  4207  1  0.12931900  0.24909600  0.66457200  1
  C  4208  1  0.12951700  0.22644200  0.66421900  1
  C  4210  1  0.13229600  0.28272300  0.64449600  1
  C  4211  1  0.13640200  0.31494500  0.62434900  1
  C  4212  1  0.13341000  0.32776400  0.64267300  1
  C  4213  1  0.12933800  0.31724700  0.66225900  1
  C  4216  1  0.12856200  0.29462700  0.66348800  1
  C  4217  1  0.12486700  0.28357500  0.68289600  1
  C  4218  1  0.12509700  0.26096300  0.68341000  1
  N  17  1  0.01324500  0.37057500  0.90901200  1
  N  18  1  0.99144800  0.34296500  0.84517300  1
  N  39  1  0.51325400  0.10873600  0.09213800  1
  N  40  1  0.49146300  0.13634700  0.15596500  1
  N  61  1  0.26341500  0.33099700  0.13011400  1
  N  62  1  0.24306600  0.39507300  0.10317100  1
  N  83  1  0.76342100  0.14836200  0.87103900  1
  N  84  1  0.74312900  0.08430500  0.89800100  1
  N  105  1  0.44533700  0.10640000  0.90955300  1
  N  106  1  0.46561800  0.13585200  0.84525100  1
  N  127  1  0.94530700  0.37289000  0.09159800  1
  N  128  1  0.96560700  0.34347100  0.15588100  1
  N  149  1  0.19525100  0.14884800  0.13267300  1
  N  150  1  0.21400600  0.08426500  0.10383100  1
  N  171  1  0.69524900  0.33045300  0.86847600  1
  N  172  1  0.71394800  0.39501100  0.89733300  1
  N  193  1  0.94250700  0.60631400  0.09206400  1
  N  194  1  0.96433300  0.63404500  0.15588600  1
  N  215  1  0.44248600  0.87302500  0.90905800  1
  N  216  1  0.46430900  0.84526900  0.84527000  1
  N  237  1  0.69208300  0.64844000  0.87146600  1
  N  238  1  0.71244400  0.58428700  0.89817000  1
  N  259  1  0.19209100  0.83086300  0.12968700  1
  N  260  1  0.21241600  0.89499800  0.10298200  1
  N  281  1  0.50988200  0.87534900  0.09165400  1
  N  282  1  0.48983000  0.84569500  0.15598800  1
  N  303  1  0.00989500  0.60396700  0.90946300  1
  N  304  1  0.98982600  0.63362100  0.84517100  1
  N  325  1  0.76018200  0.83032800  0.86864500  1
  N  326  1  0.74183600  0.89506900  0.89735000  1
  N  347  1  0.26019900  0.64903400  0.13243200  1
  N  348  1  0.24189100  0.58430100  0.10373700  1
  N  369  1  0.51290900  0.87252900  0.40930500  1
  N  370  1  0.49120600  0.84508800  0.34536700  1
  N  391  1  0.01293300  0.60678700  0.59186700  1
  N  392  1  0.99123100  0.63423400  0.65577600  1
  N  413  1  0.76294500  0.83077800  0.63493100  1
  N  414  1  0.74276100  0.89494100  0.60787500  1
  N  435  1  0.26293400  0.64854900  0.36617700  1
  N  436  1  0.24275900  0.58437700  0.39320400  1
  N  457  1  0.94580800  0.60411700  0.40975700  1
  N  458  1  0.96539700  0.63364300  0.34522700  1
  N  479  1  0.44579600  0.87519600  0.59141500  1
  N  480  1  0.46539900  0.84566900  0.65590300  1
  N  501  1  0.69592800  0.64894300  0.63763900  1
  N  502  1  0.71390800  0.58412500  0.60864600  1
  N  523  1  0.19592100  0.83033100  0.36349100  1
  N  524  1  0.21384300  0.89511700  0.39250800  1
  N  545  1  0.44252400  0.10879900  0.59193800  1
  N  546  1  0.46425100  0.13616400  0.65585200  1
  N  567  1  0.94252000  0.37053700  0.40918000  1
  N  568  1  0.96423100  0.34314600  0.34530000  1
  N  589  1  0.19248000  0.14845300  0.36613200  1
  N  590  1  0.21259500  0.08430200  0.39333400  1
  N  611  1  0.69248700  0.33081600  0.63504100  1
  N  612  1  0.71256300  0.39495000  0.60782300  1
  N  633  1  0.00988600  0.37320400  0.59134600  1
  N  634  1  0.99001300  0.34381300  0.65579500  1
  N  655  1  0.50990700  0.10611900  0.40976900  1
  N  656  1  0.49002800  0.13551000  0.34536200  1
  N  677  1  0.25981400  0.33045800  0.36363300  1
  N  678  1  0.24153200  0.39516300  0.39273600  1
  N  699  1  0.75980700  0.14886400  0.63752100  1
  N  700  1  0.74156100  0.08416500  0.60843200  1
  N  707  1  0.02310000  0.36474400  0.72804400  1
  N  717  1  0.02339000  0.36448300  0.77264300  1
  N  729  1  0.52309400  0.11455100  0.27310500  1
  N  739  1  0.52337300  0.11478300  0.22850600  1
  N  751  1  0.27503400  0.51216700  0.12540700  1
  N  761  1  0.27531000  0.46749900  0.12519800  1
  N  773  1  0.77501200  0.96716200  0.87571700  1
  N  783  1  0.77537300  0.01182500  0.87597000  1
  N  795  1  0.43222400  0.11489100  0.72844000  1
  N  805  1  0.43267600  0.11479100  0.77303700  1
  N  817  1  0.93223400  0.36445300  0.27270700  1
  N  827  1  0.93269000  0.36457100  0.22810800  1
  N  839  1  0.18034000  0.96747400  0.12504800  1
  N  849  1  0.18077400  0.01213900  0.12529700  1
  N  861  1  0.68035000  0.51185300  0.87611200  1
  N  871  1  0.68070800  0.46718900  0.87588300  1
  N  883  1  0.93258500  0.61242300  0.27298800  1
  N  893  1  0.93233500  0.61258200  0.22839200  1
  N  905  1  0.43259100  0.86689900  0.72814200  1
  N  915  1  0.43233600  0.86674700  0.77273800  1
  N  927  1  0.52312800  0.86655200  0.27276500  1
  N  937  1  0.52261600  0.86684100  0.22816700  1
  N  949  1  0.02312400  0.61275100  0.72838800  1
  N  959  1  0.02260400  0.61248400  0.77298200  1
  N  971  1  0.77447700  0.01203900  0.63024100  1
  N  981  1  0.77482800  0.96737300  0.63000500  1
  N  993  1  0.27443700  0.46726400  0.37090000  1
  N  1003  1  0.27481600  0.51193000  0.37107200  1
  N  1015  1  0.68050300  0.46744500  0.63010500  1
  N  1025  1  0.68094900  0.51210700  0.63049200  1
  N  1037  1  0.18051400  0.01185400  0.37105500  1
  N  1047  1  0.18088100  0.96719400  0.37068900  1
  N  1059  1  0.01719100  0.46596500  0.86199500  1
  N  1069  1  0.01654500  0.51084500  0.86199600  1
  N  1081  1  0.51718000  0.01334600  0.13913000  1
  N  1091  1  0.51654900  0.96846700  0.13912800  1
  N  1103  1  0.26742900  0.37740500  0.22573100  1
  N  1113  1  0.26675400  0.37738900  0.27038800  1
  N  1125  1  0.76744100  0.10191500  0.77543200  1
  N  1135  1  0.76674300  0.10193500  0.73078200  1
  N  1147  1  0.43867000  0.01310200  0.86204600  1
  N  1157  1  0.43827000  0.96821900  0.86205900  1
  N  1169  1  0.93865500  0.46621800  0.13908600  1
  N  1179  1  0.93825700  0.51110100  0.13907000  1
  N  1191  1  0.18839100  0.10190000  0.22613400  1
  N  1201  1  0.18808800  0.10199200  0.27079400  1
  N  1213  1  0.68837100  0.37742700  0.77502400  1
  N  1223  1  0.68807400  0.37732300  0.73037000  1
  N  1235  1  0.68792500  0.60200500  0.77562800  1
  N  1245  1  0.68863000  0.60200700  0.73096700  1
  N  1257  1  0.18791600  0.87732600  0.22552000  1
  N  1267  1  0.18861300  0.87732000  0.27017400  1
  N  1279  1  0.76734200  0.87733300  0.77503400  1
  N  1289  1  0.76757100  0.87726300  0.73037000  1
  N  1301  1  0.26736900  0.60200200  0.22605800  1
  N  1311  1  0.26757600  0.60207400  0.27071700  1
  N  1323  1  0.51785200  0.96794400  0.36219800  1
  N  1333  1  0.51744200  0.01284000  0.36216000  1
  N  1345  1  0.01783400  0.51137000  0.63894300  1
  N  1355  1  0.01744300  0.46647600  0.63897500  1
  N  1367  1  0.93836700  0.51092500  0.36215500  1
  N  1377  1  0.93781000  0.46603200  0.36212300  1
  N  1389  1  0.43835800  0.96839700  0.63898900  1
  N  1399  1  0.43778900  0.01328900  0.63900700  1
  N  1411  1  0.82919400  0.33983300  0.90041000  1
  N  1421  1  0.87798500  0.34231100  0.90294600  1
  N  1433  1  0.32920000  0.13949600  0.10073900  1
  N  1443  1  0.37799300  0.13701000  0.09819600  1
  N  1455  1  0.07949400  0.34123000  0.09927600  1
  N  1465  1  0.12829500  0.33850700  0.10162600  1
  N  1477  1  0.57950900  0.13810500  0.90187300  1
  N  1487  1  0.62830900  0.14082000  0.89953100  1
  N  1499  1  0.12624000  0.63865100  0.10071400  1
  N  1509  1  0.07748400  0.63559800  0.09811400  1
  N  1521  1  0.62622900  0.84067800  0.90040200  1
  N  1531  1  0.57747100  0.84374400  0.90302400  1
  N  1543  1  0.87614800  0.63714400  0.90174900  1
  N  1553  1  0.82736900  0.64042000  0.89937700  1
  N  1565  1  0.37614600  0.84215900  0.09939900  1
  N  1575  1  0.32736800  0.83890000  0.10177300  1
  N  1587  1  0.32898900  0.84099000  0.39808800  1
  N  1597  1  0.37766800  0.84425200  0.40190100  1
  N  1609  1  0.82899800  0.63832300  0.60303500  1
  N  1619  1  0.87768200  0.63506100  0.59922100  1
  N  1631  1  0.57969000  0.84268500  0.60084300  1
  N  1641  1  0.62837800  0.83912100  0.60447100  1
  N  1653  1  0.07969300  0.63664000  0.40029000  1
  N  1663  1  0.12838000  0.64018800  0.39665500  1
  N  1675  1  0.62672300  0.13897600  0.60286000  1
  N  1685  1  0.57800300  0.13620300  0.59918200  1
  N  1697  1  0.12672200  0.34033000  0.39827800  1
  N  1707  1  0.07800100  0.34311600  0.40196200  1
  N  1719  1  0.37562400  0.13729100  0.40054800  1
  N  1729  1  0.32691100  0.14040500  0.39699900  1
  N  1741  1  0.87561400  0.34201300  0.60060400  1
  N  1751  1  0.82690500  0.33890300  0.60416100  1
  N  1763  1  0.97595400  0.34736500  0.02335500  1
  N  1773  1  0.97702800  0.34620200  0.97879800  1
  N  1785  1  0.47592700  0.13191400  0.97778200  1
  N  1795  1  0.47699000  0.13307400  0.02234100  1
  N  1807  1  0.22624500  0.21676100  0.10676800  1
  N  1817  1  0.22707100  0.26138800  0.10559800  1
  N  1829  1  0.72626000  0.26256300  0.89442400  1
  N  1839  1  0.72709300  0.21794000  0.89558100  1
  N  1851  1  0.97941800  0.62979600  0.97772300  1
  N  1861  1  0.97848600  0.63088400  0.02227000  1
  N  1873  1  0.47943600  0.84955200  0.02341100  1
  N  1883  1  0.47850600  0.84847800  0.97886100  1
  N  1895  1  0.72928300  0.76267100  0.89454800  1
  N  1905  1  0.72865000  0.71802800  0.89578000  1
  N  1917  1  0.22926700  0.71667300  0.10652200  1
  N  1927  1  0.22862800  0.76131000  0.10531900  1
  N  1939  1  0.47583600  0.84969900  0.52357000  1
  N  1949  1  0.47629500  0.84848000  0.47899100  1
  N  1961  1  0.97581800  0.62959400  0.47758100  1
  N  1971  1  0.97628900  0.63081000  0.52216100  1
  N  1983  1  0.72663600  0.71661200  0.61112600  1
  N  1993  1  0.72694800  0.76124400  0.61005000  1
  N  2005  1  0.22664900  0.76268300  0.39003100  1
  N  2015  1  0.22696400  0.71805700  0.39109300  1
  N  2027  1  0.47981200  0.13131300  0.47763200  1
  N  2037  1  0.47926300  0.13262000  0.52221300  1
  N  2049  1  0.97982900  0.34803800  0.52350400  1
  N  2059  1  0.97929100  0.34673800  0.47892000  1
  N  2071  1  0.22897000  0.26259500  0.39013600  1
  N  2081  1  0.22842400  0.21797200  0.39117200  1
  N  2093  1  0.72895500  0.21671500  0.61098000  1
  N  2103  1  0.72840900  0.26133200  0.60996500  1
  N  2129  1  0.42074900  0.40257200  0.92493300  1
  N  2130  1  0.39895200  0.37496200  0.86109400  1
  N  2151  1  0.92075800  0.14073300  0.10805900  1
  N  2152  1  0.89896700  0.16834400  0.17188600  1
  N  2173  1  0.67091900  0.36299400  0.14603500  1
  N  2174  1  0.65057000  0.42707000  0.11909200  1
  N  2195  1  0.17092500  0.18035900  0.88696000  1
  N  2196  1  0.15063300  0.11630200  0.91392200  1
  N  2217  1  0.85284100  0.13839700  0.92547400  1
  N  2218  1  0.87312200  0.16784900  0.86117200  1
  N  2239  1  0.35281100  0.40488700  0.10751900  1
  N  2240  1  0.37311100  0.37546800  0.17180200  1
  N  2261  1  0.60275500  0.18084500  0.14859400  1
  N  2262  1  0.62151000  0.11626200  0.11975200  1
  N  2283  1  0.10275300  0.36245000  0.88439700  1
  N  2284  1  0.12145200  0.42700800  0.91325400  1
  N  2305  1  0.35001100  0.63831100  0.10798500  1
  N  2306  1  0.37183700  0.66604200  0.17180700  1
  N  2327  1  0.84999000  0.90502200  0.92497900  1
  N  2328  1  0.87181300  0.87726600  0.86119100  1
  N  2349  1  0.09958750  0.68043700  0.88738700  1
  N  2350  1  0.11994800  0.61628400  0.91409100  1
  N  2371  1  0.59959500  0.86286000  0.14560800  1
  N  2372  1  0.61992000  0.92699500  0.11890300  1
  N  2393  1  0.91738600  0.90734600  0.10757500  1
  N  2394  1  0.89733400  0.87769200  0.17190900  1
  N  2415  1  0.41739900  0.63596400  0.92538400  1
  N  2416  1  0.39733000  0.66561800  0.86109200  1
  N  2437  1  0.16768600  0.86232500  0.88456600  1
  N  2438  1  0.14934000  0.92706600  0.91327100  1
  N  2459  1  0.66770300  0.68103100  0.14835300  1
  N  2460  1  0.64939500  0.61629800  0.11965800  1
  N  2481  1  0.92041300  0.90452600  0.42522600  1
  N  2482  1  0.89871000  0.87708500  0.36128800  1
  N  2503  1  0.42043700  0.63878400  0.60778800  1
  N  2504  1  0.39873500  0.66623100  0.67169700  1
  N  2525  1  0.17044900  0.86277500  0.65085200  1
  N  2526  1  0.15026500  0.92693800  0.62379600  1
  N  2547  1  0.67043800  0.68054600  0.38209800  1
  N  2548  1  0.65026300  0.61637400  0.40912500  1
  N  2569  1  0.35331200  0.63611400  0.42567800  1
  N  2570  1  0.37290100  0.66564000  0.36114800  1
  N  2591  1  0.85330000  0.90719300  0.60733600  1
  N  2592  1  0.87290300  0.87766600  0.67182400  1
  N  2613  1  0.10343200  0.68094000  0.65356000  1
  N  2614  1  0.12141200  0.61612200  0.62456700  1
  N  2635  1  0.60342500  0.86232800  0.37941200  1
  N  2636  1  0.62134700  0.92711400  0.40842900  1
  N  2657  1  0.85002800  0.14079600  0.60785900  1
  N  2658  1  0.87175500  0.16816100  0.67177300  1
  N  2679  1  0.35002400  0.40253400  0.42510100  1
  N  2680  1  0.37173500  0.37514300  0.36122100  1
  N  2701  1  0.59998400  0.18045000  0.38205300  1
  N  2702  1  0.62009900  0.11629900  0.40925500  1
  N  2723  1  0.09999150  0.36281300  0.65096200  1
  N  2724  1  0.12006700  0.42694700  0.62374400  1
  N  2745  1  0.41739000  0.40520100  0.60726700  1
  N  2746  1  0.39751700  0.37581000  0.67171600  1
  N  2767  1  0.91741100  0.13811600  0.42569000  1
  N  2768  1  0.89753200  0.16750700  0.36128300  1
  N  2789  1  0.66731800  0.36245500  0.37955400  1
  N  2790  1  0.64903600  0.42716000  0.40865700  1
  N  2811  1  0.16731100  0.18086100  0.65344200  1
  N  2812  1  0.14906500  0.11616200  0.62435300  1
  N  2819  1  0.43060400  0.39674100  0.74396500  1
  N  2829  1  0.43089400  0.39648000  0.78856400  1
  N  2841  1  0.93059800  0.14654800  0.28902600  1
  N  2851  1  0.93087700  0.14678000  0.24442700  1
  N  2863  1  0.68253800  0.54416400  0.14132800  1
  N  2873  1  0.68281400  0.49949600  0.14111900  1
  N  2885  1  0.18251600  0.99915900  0.89163800  1
  N  2895  1  0.18287700  0.04382160  0.89189100  1
  N  2907  1  0.83972800  0.14688800  0.74436100  1
  N  2917  1  0.84018000  0.14678800  0.78895800  1
  N  2929  1  0.33973800  0.39645000  0.28862800  1
  N  2939  1  0.34019400  0.39656800  0.24402900  1
  N  2951  1  0.58784400  0.99947100  0.14096900  1
  N  2961  1  0.58827800  0.04413560  0.14121800  1
  N  2973  1  0.08785450  0.54385000  0.89203300  1
  N  2983  1  0.08821250  0.49918600  0.89180400  1
  N  2995  1  0.34008900  0.64442000  0.28890900  1
  N  3005  1  0.33983900  0.64457900  0.24431300  1
  N  3017  1  0.84009500  0.89889600  0.74406300  1
  N  3027  1  0.83984000  0.89874400  0.78865900  1
  N  3039  1  0.93063200  0.89854900  0.28868600  1
  N  3049  1  0.93012000  0.89883800  0.24408800  1
  N  3061  1  0.43062800  0.64474800  0.74430900  1
  N  3071  1  0.43010800  0.64448100  0.78890300  1
  N  3083  1  0.18198100  0.04403560  0.64616200  1
  N  3093  1  0.18233200  0.99937000  0.64592600  1
  N  3105  1  0.68194100  0.49926100  0.38682100  1
  N  3115  1  0.68232000  0.54392700  0.38699300  1
  N  3127  1  0.08800750  0.49944200  0.64602600  1
  N  3137  1  0.08845350  0.54410400  0.64641300  1
  N  3149  1  0.58801800  0.04385060  0.38697600  1
  N  3159  1  0.58838500  0.99919100  0.38661000  1
  N  3171  1  0.42469500  0.49796200  0.87791600  1
  N  3181  1  0.42404900  0.54284200  0.87791700  1
  N  3193  1  0.92468400  0.04534260  0.15505100  1
  N  3203  1  0.92405300  0.00046362  0.15504900  1
  N  3215  1  0.67493300  0.40940200  0.24165200  1
  N  3225  1  0.67425800  0.40938600  0.28630900  1
  N  3237  1  0.17494500  0.13391200  0.79135300  1
  N  3247  1  0.17424700  0.13393200  0.74670300  1
  N  3259  1  0.84617400  0.04509860  0.87796700  1
  N  3269  1  0.84577400  0.00021562  0.87798000  1
  N  3281  1  0.34615900  0.49821500  0.15500700  1
  N  3291  1  0.34576100  0.54309800  0.15499100  1
  N  3303  1  0.59589500  0.13389700  0.24205500  1
  N  3313  1  0.59559200  0.13398900  0.28671500  1
  N  3325  1  0.09587550  0.40942400  0.79094500  1
  N  3335  1  0.09557850  0.40932000  0.74629100  1
  N  3347  1  0.09542950  0.63400200  0.79154900  1
  N  3357  1  0.09613450  0.63400400  0.74688800  1
  N  3369  1  0.59542000  0.90932300  0.24144100  1
  N  3379  1  0.59611700  0.90931700  0.28609500  1
  N  3391  1  0.17484600  0.90933000  0.79095500  1
  N  3401  1  0.17507500  0.90926000  0.74629100  1
  N  3413  1  0.67487300  0.63399900  0.24197900  1
  N  3423  1  0.67508000  0.63407100  0.28663800  1
  N  3435  1  0.92535600  0.99994100  0.37811900  1
  N  3445  1  0.92494600  0.04483660  0.37808100  1
  N  3457  1  0.42533800  0.54336700  0.65486400  1
  N  3467  1  0.42494700  0.49847300  0.65489600  1
  N  3479  1  0.34587100  0.54292200  0.37807600  1
  N  3489  1  0.34531400  0.49802900  0.37804400  1
  N  3501  1  0.84586200  0.00039362  0.65491000  1
  N  3511  1  0.84529300  0.04528560  0.65492800  1
  N  3523  1  0.23669800  0.37183000  0.91633100  1
  N  3533  1  0.28548900  0.37430800  0.91886700  1
  N  3545  1  0.73670400  0.17149300  0.11666000  1
  N  3555  1  0.78549700  0.16900700  0.11411700  1
  N  3567  1  0.48699800  0.37322700  0.11519700  1
  N  3577  1  0.53579900  0.37050400  0.11754700  1
  N  3589  1  0.98701300  0.17010200  0.91779400  1
  N  3599  1  0.03581350  0.17281700  0.91545200  1
  N  3611  1  0.53374400  0.67064800  0.11663500  1
  N  3621  1  0.48498800  0.66759500  0.11403500  1
  N  3633  1  0.03373350  0.87267500  0.91632300  1
  N  3643  1  0.98497500  0.87574100  0.91894500  1
  N  3655  1  0.28365200  0.66914100  0.91767000  1
  N  3665  1  0.23487300  0.67241700  0.91529800  1
  N  3677  1  0.78365000  0.87415600  0.11532000  1
  N  3687  1  0.73487200  0.87089700  0.11769400  1
  N  3699  1  0.73649300  0.87298700  0.41400900  1
  N  3709  1  0.78517200  0.87624900  0.41782200  1
  N  3721  1  0.23650200  0.67032000  0.61895600  1
  N  3731  1  0.28518600  0.66705800  0.61514200  1
  N  3743  1  0.98719400  0.87468200  0.61676400  1
  N  3753  1  0.03588250  0.87111800  0.62039200  1
  N  3765  1  0.48719700  0.66863700  0.41621100  1
  N  3775  1  0.53588400  0.67218500  0.41257600  1
  N  3787  1  0.03422750  0.17097300  0.61878100  1
  N  3797  1  0.98550700  0.16820000  0.61510300  1
  N  3809  1  0.53422600  0.37232700  0.41419900  1
  N  3819  1  0.48550500  0.37511300  0.41788300  1
  N  3831  1  0.78312800  0.16928800  0.41646900  1
  N  3841  1  0.73441500  0.17240200  0.41292000  1
  N  3853  1  0.28311800  0.37401000  0.61652500  1
  N  3863  1  0.23440900  0.37090000  0.62008200  1
  N  3875  1  0.38345800  0.37936200  0.03927580  1
  N  3885  1  0.38453200  0.37819900  0.99471900  1
  N  3897  1  0.88343100  0.16391100  0.99370300  1
  N  3907  1  0.88449400  0.16507100  0.03826180  1
  N  3919  1  0.63374900  0.24875800  0.12268900  1
  N  3929  1  0.63457500  0.29338500  0.12151900  1
  N  3941  1  0.13376400  0.29456000  0.91034500  1
  N  3951  1  0.13459700  0.24993700  0.91150200  1
  N  3963  1  0.38692200  0.66179300  0.99364400  1
  N  3973  1  0.38599000  0.66288100  0.03819080  1
  N  3985  1  0.88694000  0.88154900  0.03933180  1
  N  3995  1  0.88601000  0.88047500  0.99478200  1
  N  4007  1  0.13678700  0.79466800  0.91046900  1
  N  4017  1  0.13615400  0.75002500  0.91170100  1
  N  4029  1  0.63677100  0.74867000  0.12244300  1
  N  4039  1  0.63613200  0.79330700  0.12124000  1
  N  4051  1  0.88334000  0.88169600  0.53949100  1
  N  4061  1  0.88379900  0.88047700  0.49491200  1
  N  4073  1  0.38332200  0.66159100  0.49350200  1
  N  4083  1  0.38379300  0.66280700  0.53808200  1
  N  4095  1  0.13414000  0.74860900  0.62704700  1
  N  4105  1  0.13445200  0.79324100  0.62597100  1
  N  4117  1  0.63415300  0.79468000  0.40595200  1
  N  4127  1  0.63446800  0.75005400  0.40701400  1
  N  4139  1  0.88731600  0.16331000  0.49355300  1
  N  4149  1  0.88676700  0.16461700  0.53813400  1
  N  4161  1  0.38733300  0.38003500  0.53942500  1
  N  4171  1  0.38679500  0.37873500  0.49484100  1
  N  4183  1  0.63647400  0.29459200  0.40605700  1
  N  4193  1  0.63592800  0.24996900  0.40709300  1
  N  4205  1  0.13645900  0.24871200  0.62690100  1
  N  4215  1  0.13591300  0.29332900  0.62588600  1
  O  723  1  0.93817200  0.36199500  0.77245500  1
  O  725  1  0.93788600  0.36225300  0.72910200  1
  O  745  1  0.43816200  0.11737300  0.22870700  1
  O  747  1  0.43788500  0.11715700  0.27206100  1
  O  767  1  0.19018600  0.46764700  0.12015700  1
  O  769  1  0.18992200  0.51122300  0.12034100  1
  O  789  1  0.69024900  0.01182000  0.88094700  1
  O  791  1  0.68989700  0.96824600  0.88074800  1
  O  811  1  0.51789100  0.11703500  0.77172600  1
  O  813  1  0.51745300  0.11710100  0.72837500  1
  O  833  1  0.01789900  0.36223100  0.22942200  1
  O  835  1  0.01746100  0.36213100  0.27277400  1
  O  855  1  0.26590700  0.01094000  0.12052500  1
  O  857  1  0.26548000  0.96736700  0.12030100  1
  O  877  1  0.76584300  0.46825900  0.88058700  1
  O  879  1  0.76549800  0.51183200  0.88081800  1
  O  899  1  0.01754800  0.61534500  0.22863900  1
  O  901  1  0.01778900  0.61520200  0.27199100  1
  O  921  1  0.51754300  0.86395200  0.77250100  1
  O  923  1  0.51779100  0.86407000  0.72914900  1
  O  943  1  0.43741700  0.86422500  0.22956200  1
  O  945  1  0.43791200  0.86399500  0.27291400  1
  O  965  1  0.93740600  0.61512400  0.77157900  1
  O  967  1  0.93790800  0.61535100  0.72822800  1
  O  987  1  0.68970700  0.96740000  0.62495700  1
  O  989  1  0.68936500  0.01097300  0.62516500  1
  O  1009  1  0.18970100  0.51195900  0.37617000  1
  O  1011  1  0.18932700  0.46838400  0.37603800  1
  O  1031  1  0.76602900  0.51090800  0.62498500  1
  O  1033  1  0.76559300  0.46733500  0.62467600  1
  O  1053  1  0.26596200  0.96825600  0.37613400  1
  O  1055  1  0.26561200  0.01182900  0.37645000  1
  O  1075  1  0.96251400  0.50951100  0.80255900  1
  O  1077  1  0.96308300  0.46605000  0.80259900  1
  O  1097  1  0.46247200  0.96978600  0.19853100  1
  O  1099  1  0.46303200  0.01324600  0.19849700  1
  O  1119  1  0.21351100  0.43769000  0.26906800  1
  O  1121  1  0.21411200  0.43766900  0.22581300  1
  O  1141  1  0.71376600  0.04144300  0.73211500  1
  O  1143  1  0.71439300  0.04145900  0.77537100  1
  O  1163  1  0.49219000  0.96852600  0.80252600  1
  O  1165  1  0.49253300  0.01198900  0.80248100  1
  O  1185  1  0.99222600  0.51079700  0.19856700  1
  O  1187  1  0.99256100  0.46733500  0.19862000  1
  O  1207  1  0.24125000  0.04161700  0.27049800  1
  O  1209  1  0.24149100  0.04149100  0.22724100  1
  O  1229  1  0.74090000  0.43793600  0.73065300  1
  O  1231  1  0.74113400  0.43807500  0.77391100  1
  O  1251  1  0.74262100  0.54225200  0.73234700  1
  O  1253  1  0.74200200  0.54229800  0.77560400  1
  O  1273  1  0.24228500  0.93730700  0.26881800  1
  O  1275  1  0.24167200  0.93726900  0.22555900  1
  O  1295  1  0.71374600  0.93715700  0.73076300  1
  O  1297  1  0.71358000  0.93726400  0.77402300  1
  O  1317  1  0.21396800  0.54202400  0.27030600  1
  O  1319  1  0.21382500  0.54191200  0.22704600  1
  O  1339  1  0.46370900  0.01168200  0.30250300  1
  O  1341  1  0.46403800  0.96822400  0.30258600  1
  O  1361  1  0.96367300  0.46761000  0.69860800  1
  O  1363  1  0.96399000  0.51106800  0.69853300  1
  O  1383  1  0.99178900  0.46625200  0.30263500  1
  O  1385  1  0.99227400  0.50971100  0.30262600  1
  O  1405  1  0.49173600  0.01309500  0.69852200  1
  O  1407  1  0.49222900  0.96963500  0.69854400  1
  O  1427  1  0.87763900  0.39767800  0.84958100  1
  O  1429  1  0.82975800  0.39387200  0.84568200  1
  O  1449  1  0.37764200  0.08162400  0.15154300  1
  O  1451  1  0.32976200  0.08543100  0.15544300  1
  O  1471  1  0.12821400  0.39113800  0.15766800  1
  O  1473  1  0.08033600  0.39523500  0.15403400  1
  O  1493  1  0.62822500  0.08821800  0.84346100  1
  O  1495  1  0.58034500  0.08412900  0.84708700  1
  O  1515  1  0.07854500  0.58022000  0.15145800  1
  O  1517  1  0.12636500  0.58456500  0.15539800  1
  O  1537  1  0.57852600  0.89913900  0.84969400  1
  O  1539  1  0.62634200  0.89478900  0.84574100  1
  O  1559  1  0.82677900  0.58785900  0.84326900  1
  O  1561  1  0.87459200  0.58324400  0.84690000  1
  O  1581  1  0.32680500  0.89142700  0.15791100  1
  O  1583  1  0.37461900  0.89602700  0.15427900  1
  O  1603  1  0.37794500  0.89955300  0.34846800  1
  O  1605  1  0.33028400  0.89505900  0.34340000  1
  O  1625  1  0.87795300  0.57974400  0.65264000  1
  O  1627  1  0.83029400  0.58423300  0.65770200  1
  O  1647  1  0.62751700  0.89151200  0.66073400  1
  O  1649  1  0.57985800  0.89633600  0.65595000  1
  O  1669  1  0.12748600  0.58782900  0.34036600  1
  O  1671  1  0.07982700  0.58301800  0.34515600  1
  O  1691  1  0.57722500  0.08094100  0.65265400  1
  O  1693  1  0.62495100  0.08497900  0.65760700  1
  O  1713  1  0.07723700  0.39840100  0.34851300  1
  O  1715  1  0.12496200  0.39435800  0.34356100  1
  O  1735  1  0.32822700  0.08797300  0.34078300  1
  O  1737  1  0.37595000  0.08357300  0.34550800  1
  O  1757  1  0.82823900  0.39131100  0.66039800  1
  O  1759  1  0.87596200  0.39570900  0.65566800  1
  O  1779  1  0.99239300  0.42194900  0.97771000  1
  O  1781  1  0.99162700  0.42303400  0.02101000  1
  O  1801  1  0.49245900  0.05734500  0.02342800  1
  O  1803  1  0.49171100  0.05626000  0.98012900  1
  O  1823  1  0.24210400  0.26265900  0.18106900  1
  O  1825  1  0.24148700  0.21913500  0.18218000  1
  O  1845  1  0.74200900  0.21668400  0.82009000  1
  O  1847  1  0.74138600  0.26020800  0.81898600  1
  O  1867  1  0.96326300  0.55511100  0.02328200  1
  O  1869  1  0.96387300  0.55410000  0.97997600  1
  O  1889  1  0.46319600  0.92423500  0.97787100  1
  O  1891  1  0.46380100  0.92523500  0.02117800  1
  O  1911  1  0.71251900  0.71661900  0.82049600  1
  O  1913  1  0.71296000  0.76013900  0.81932100  1
  O  1933  1  0.21263200  0.76267300  0.18063100  1
  O  1935  1  0.21308200  0.71915100  0.18177900  1
  O  1955  1  0.49410800  0.92378400  0.47766800  1
  O  1957  1  0.49394900  0.92491800  0.52097100  1
  O  1977  1  0.99418800  0.55552500  0.52347700  1
  O  1979  1  0.99402800  0.55439100  0.48017600  1
  O  1999  1  0.74218300  0.76249500  0.68548700  1
  O  2001  1  0.74205400  0.71896600  0.68651100  1
  O  2021  1  0.24208800  0.71682500  0.31563500  1
  O  2023  1  0.24195500  0.76035500  0.31462200  1
  O  2043  1  0.46133400  0.05734000  0.52365100  1
  O  2045  1  0.46157900  0.05612100  0.48035300  1
  O  2065  1  0.96127500  0.42200000  0.47749000  1
  O  2067  1  0.96150600  0.42321400  0.52078800  1
  O  2087  1  0.21397500  0.21684100  0.31560900  1
  O  2089  1  0.21431900  0.26037200  0.31462400  1
  O  2109  1  0.71408500  0.26243100  0.68555100  1
  O  2111  1  0.71443200  0.21890000  0.68651600  1
  O  2835  1  0.34567600  0.39399200  0.78837600  1
  O  2837  1  0.34539000  0.39425000  0.74502300  1
  O  2857  1  0.84566600  0.14937000  0.24462800  1
  O  2859  1  0.84538900  0.14915400  0.28798200  1
  O  2879  1  0.59769000  0.49964400  0.13607800  1
  O  2881  1  0.59742600  0.54322000  0.13626200  1
  O  2901  1  0.09775350  0.04381660  0.89686800  1
  O  2903  1  0.09740150  0.00024262  0.89666900  1
  O  2923  1  0.92539500  0.14903200  0.78764700  1
  O  2925  1  0.92495700  0.14909800  0.74429600  1
  O  2945  1  0.42540300  0.39422800  0.24534300  1
  O  2947  1  0.42496500  0.39412800  0.28869500  1
  O  2967  1  0.67341100  0.04293660  0.13644600  1
  O  2969  1  0.67298400  0.99936400  0.13622200  1
  O  2989  1  0.17334700  0.50025600  0.89650800  1
  O  2991  1  0.17300200  0.54382900  0.89673900  1
  O  3011  1  0.42505200  0.64734200  0.24456000  1
  O  3013  1  0.42529300  0.64719900  0.28791200  1
  O  3033  1  0.92504700  0.89594900  0.78842200  1
  O  3035  1  0.92529500  0.89606700  0.74507000  1
  O  3055  1  0.84492100  0.89622200  0.24548300  1
  O  3057  1  0.84541600  0.89599200  0.28883500  1
  O  3077  1  0.34491000  0.64712100  0.78750000  1
  O  3079  1  0.34541200  0.64734800  0.74414900  1
  O  3099  1  0.09721150  0.99939700  0.64087800  1
  O  3101  1  0.09686950  0.04296960  0.64108600  1
  O  3121  1  0.59720500  0.54395600  0.39209100  1
  O  3123  1  0.59683100  0.50038100  0.39195900  1
  O  3143  1  0.17353300  0.54290500  0.64090600  1
  O  3145  1  0.17309700  0.49933200  0.64059700  1
  O  3165  1  0.67346600  0.00025262  0.39205500  1
  O  3167  1  0.67311600  0.04382560  0.39237100  1
  O  3187  1  0.37001800  0.54150800  0.81848000  1
  O  3189  1  0.37058700  0.49804700  0.81852000  1
  O  3209  1  0.86997600  0.00178262  0.21445200  1
  O  3211  1  0.87053600  0.04524260  0.21441800  1
  O  3231  1  0.62101500  0.46968700  0.28498900  1
  O  3233  1  0.62161600  0.46966600  0.24173400  1
  O  3253  1  0.12127000  0.07343960  0.74803600  1
  O  3255  1  0.12189700  0.07345560  0.79129200  1
  O  3275  1  0.89969400  0.00052262  0.81844700  1
  O  3277  1  0.90003700  0.04398560  0.81840200  1
  O  3297  1  0.39973000  0.54279400  0.21448800  1
  O  3299  1  0.40006500  0.49933200  0.21454100  1
  O  3319  1  0.64875400  0.07361360  0.28641900  1
  O  3321  1  0.64899500  0.07348760  0.24316200  1
  O  3341  1  0.14840400  0.46993300  0.74657400  1
  O  3343  1  0.14863800  0.47007200  0.78983200  1
  O  3363  1  0.15012500  0.57424900  0.74826800  1
  O  3365  1  0.14950600  0.57429500  0.79152500  1
  O  3385  1  0.64978900  0.96930400  0.28473900  1
  O  3387  1  0.64917600  0.96926600  0.24148000  1
  O  3407  1  0.12125000  0.96915400  0.74668400  1
  O  3409  1  0.12108400  0.96926100  0.78994400  1
  O  3429  1  0.62147200  0.57402100  0.28622700  1
  O  3431  1  0.62132900  0.57390900  0.24296700  1
  O  3451  1  0.87121300  0.04367860  0.31842400  1
  O  3453  1  0.87154200  0.00022062  0.31850700  1
  O  3473  1  0.37117700  0.49960700  0.71452900  1
  O  3475  1  0.37149400  0.54306500  0.71445400  1
  O  3495  1  0.39929300  0.49824900  0.31855600  1
  O  3497  1  0.39977800  0.54170800  0.31854700  1
  O  3517  1  0.89924000  0.04509160  0.71444300  1
  O  3519  1  0.89973300  0.00163162  0.71446500  1
  O  3539  1  0.28514300  0.42967500  0.86550200  1
  O  3541  1  0.23726200  0.42586900  0.86160300  1
  O  3561  1  0.78514600  0.11362100  0.16746400  1
  O  3563  1  0.73726600  0.11742800  0.17136400  1
  O  3583  1  0.53571800  0.42313500  0.17358900  1
  O  3585  1  0.48784000  0.42723200  0.16995500  1
  O  3605  1  0.03572950  0.12021500  0.85938200  1
  O  3607  1  0.98784900  0.11612600  0.86300800  1
  O  3627  1  0.48604900  0.61221700  0.16737900  1
  O  3629  1  0.53386900  0.61656200  0.17131900  1
  O  3649  1  0.98603000  0.93113600  0.86561500  1
  O  3651  1  0.03384650  0.92678600  0.86166200  1
  O  3671  1  0.23428300  0.61985600  0.85919000  1
  O  3673  1  0.28209600  0.61524100  0.86282100  1
  O  3693  1  0.73430900  0.92342400  0.17383200  1
  O  3695  1  0.78212300  0.92802400  0.17020000  1
  O  3715  1  0.78544900  0.93155000  0.36438900  1
  O  3717  1  0.73778800  0.92705600  0.35932100  1
  O  3737  1  0.28545700  0.61174100  0.66856100  1
  O  3739  1  0.23779800  0.61623000  0.67362300  1
  O  3759  1  0.03502150  0.92350900  0.67665500  1
  O  3761  1  0.98736200  0.92833300  0.67187100  1
  O  3781  1  0.53499000  0.61982600  0.35628700  1
  O  3783  1  0.48733100  0.61501500  0.36107700  1
  O  3803  1  0.98472900  0.11293800  0.66857500  1
  O  3805  1  0.03245550  0.11697600  0.67352800  1
  O  3825  1  0.48474100  0.43039800  0.36443400  1
  O  3827  1  0.53246600  0.42635500  0.35948200  1
  O  3847  1  0.73573100  0.11997000  0.35670400  1
  O  3849  1  0.78345400  0.11557000  0.36142900  1
  O  3869  1  0.23574300  0.42330800  0.67631900  1
  O  3871  1  0.28346600  0.42770600  0.67158900  1
  O  3891  1  0.39989700  0.45394600  0.99363100  1
  O  3893  1  0.39913100  0.45503100  0.03693080  1
  O  3913  1  0.89996300  0.08934160  0.03934880  1
  O  3915  1  0.89921500  0.08825660  0.99605000  1
  O  3935  1  0.64960800  0.29465600  0.19699000  1
  O  3937  1  0.64899100  0.25113200  0.19810100  1
  O  3957  1  0.14951300  0.24868100  0.83601100  1
  O  3959  1  0.14889000  0.29220500  0.83490700  1
  O  3979  1  0.37076700  0.58710800  0.03920280  1
  O  3981  1  0.37137700  0.58609700  0.99589700  1
  O  4001  1  0.87070000  0.95623200  0.99379200  1
  O  4003  1  0.87130500  0.95723200  0.03709880  1
  O  4023  1  0.12002300  0.74861600  0.83641700  1
  O  4025  1  0.12046400  0.79213600  0.83524200  1
  O  4045  1  0.62013600  0.79467000  0.19655200  1
  O  4047  1  0.62058600  0.75114800  0.19770000  1
  O  4067  1  0.90161200  0.95578100  0.49358900  1
  O  4069  1  0.90145300  0.95691500  0.53689200  1
  O  4089  1  0.40169200  0.58752200  0.53939800  1
  O  4091  1  0.40153200  0.58638800  0.49609700  1
  O  4111  1  0.14968700  0.79449200  0.70140800  1
  O  4113  1  0.14955800  0.75096300  0.70243200  1
  O  4133  1  0.64959200  0.74882200  0.33155600  1
  O  4135  1  0.64945900  0.79235200  0.33054300  1
  O  4155  1  0.86883800  0.08933660  0.53957200  1
  O  4157  1  0.86908300  0.08811760  0.49627400  1
  O  4177  1  0.36877900  0.45399700  0.49341100  1
  O  4179  1  0.36901000  0.45521100  0.53670900  1
  O  4199  1  0.62147900  0.24883800  0.33153000  1
  O  4201  1  0.62182300  0.29236900  0.33054500  1
  O  4221  1  0.12158900  0.29442800  0.70147200  1
  O  4223  1  0.12193600  0.25089700  0.70243700  1
