# generated using pymatgen
data_H13C22(NO)6
_symmetry_space_group_name_H-M   'P 1'
_cell_length_a   67.27910000
_cell_length_b   67.27910000
_cell_length_c   67.27910000
_cell_angle_alpha   90.00000000
_cell_angle_beta   90.00000000
_cell_angle_gamma   90.00000000
_symmetry_Int_Tables_number   1
_chemical_formula_structural   H13C22(NO)6
_chemical_formula_sum   'H624 C1056 N288 O288'
_cell_volume   304537.31869981
_cell_formula_units_Z   48
loop_
 _symmetry_equiv_pos_site_id
 _symmetry_equiv_pos_as_xyz
  1  'x, y, z'
loop_
 _atom_site_type_symbol
 _atom_site_label
 _atom_site_symmetry_multiplicity
 _atom_site_fract_x
 _atom_site_fract_y
 _atom_site_fract_z
 _atom_site_occupancy
  H  9  1  0.35782400  0.34497000  0.94580400  1
  H  17  1  0.35789100  0.34403500  0.08164600  1
  H  19  1  0.32639200  0.38286000  0.03123400  1
  H  20  1  0.32634800  0.38306500  0.99676200  1
  H  21  1  0.39521600  0.31155600  0.03071900  1
  H  22  1  0.39519100  0.31178000  0.99625500  1
  H  39  1  0.66940100  0.65599500  0.94606600  1
  H  47  1  0.66907100  0.65505500  0.08191900  1
  H  49  1  0.70261600  0.61865400  0.03104600  1
  H  50  1  0.70271100  0.61888900  0.99659600  1
  H  51  1  0.63064100  0.68681000  0.03136800  1
  H  52  1  0.63078100  0.68709400  0.99686900  1
  H  69  1  0.66907200  0.34501600  0.08191600  1
  H  77  1  0.66973100  0.34435000  0.94607000  1
  H  79  1  0.70195800  0.38223100  0.99673800  1
  H  80  1  0.70179300  0.38238900  0.03119800  1
  H  81  1  0.63143100  0.31260800  0.99673300  1
  H  82  1  0.63124600  0.31278800  0.03121200  1
  H  99  1  0.35845000  0.65567100  0.08166900  1
  H  107  1  0.35846800  0.65607000  0.94585000  1
  H  109  1  0.32836300  0.61625500  0.99639800  1
  H  110  1  0.32826200  0.61625100  0.03092300  1
  H  111  1  0.39521300  0.68935800  0.99663000  1
  H  112  1  0.39521200  0.68926300  0.03107100  1
  H  129  1  0.94580300  0.34444900  0.35835300  1
  H  137  1  0.08164600  0.34454100  0.35740900  1
  H  139  1  0.03124200  0.31301500  0.39622400  1
  H  140  1  0.99677000  0.31296500  0.39643000  1
  H  141  1  0.03070900  0.38185200  0.32493100  1
  H  142  1  0.99624600  0.38182100  0.32515700  1
  H  159  1  0.94606400  0.65601200  0.66936700  1
  H  167  1  0.08191700  0.65570800  0.66843200  1
  H  169  1  0.03104000  0.68923700  0.63202200  1
  H  170  1  0.99658800  0.68932500  0.63225500  1
  H  171  1  0.03137100  0.61728500  0.70020500  1
  H  172  1  0.99687400  0.61742000  0.70048900  1
  H  189  1  0.08191900  0.65564900  0.35841300  1
  H  197  1  0.94607300  0.65634600  0.35773300  1
  H  199  1  0.99674700  0.68858500  0.39559700  1
  H  200  1  0.03120600  0.68841000  0.39575600  1
  H  201  1  0.99672700  0.61801300  0.32601800  1
  H  202  1  0.03120500  0.61781400  0.32620500  1
  H  219  1  0.08168100  0.34507900  0.66902200  1
  H  227  1  0.94586700  0.34506100  0.66947100  1
  H  229  1  0.99640600  0.31491000  0.62968100  1
  H  230  1  0.03093100  0.31481200  0.62967200  1
  H  231  1  0.99664600  0.38182900  0.70273200  1
  H  232  1  0.03108900  0.38183600  0.70262500  1
  H  249  1  0.35834600  0.93242600  0.35781500  1
  H  257  1  0.35740400  0.06827000  0.35791600  1
  H  259  1  0.39622500  0.01786800  0.32639800  1
  H  260  1  0.39643500  0.98339600  0.32634600  1
  H  261  1  0.32491100  0.01733000  0.39521200  1
  H  262  1  0.32513600  0.98286800  0.39517800  1
  H  279  1  0.66936500  0.93269900  0.66937800  1
  H  287  1  0.66841100  0.06855200  0.66905400  1
  H  289  1  0.63199500  0.01767400  0.70257700  1
  H  290  1  0.63223300  0.98322200  0.70267000  1
  H  291  1  0.70020500  0.01800600  0.63065000  1
  H  292  1  0.70049200  0.98350700  0.63079000  1
  H  309  1  0.35840100  0.06854400  0.66905400  1
  H  317  1  0.35773600  0.93269900  0.66969900  1
  H  319  1  0.39564100  0.98336400  0.70190400  1
  H  320  1  0.39579700  0.01782400  0.70174400  1
  H  321  1  0.32597500  0.98336400  0.63142000  1
  H  322  1  0.32615500  0.01784200  0.63123900  1
  H  339  1  0.66901400  0.06831000  0.35844200  1
  H  347  1  0.66949700  0.93249600  0.35840800  1
  H  349  1  0.62972000  0.98303000  0.32823500  1
  H  350  1  0.62970500  0.01755500  0.32813700  1
  H  351  1  0.70274500  0.98327800  0.39518300  1
  H  352  1  0.70262900  0.01772100  0.39519400  1
  H  369  1  0.85410300  0.84000300  0.44593800  1
  H  377  1  0.85294900  0.84057100  0.58181200  1
  H  379  1  0.81818200  0.87544200  0.53075400  1
  H  380  1  0.81850600  0.87534900  0.49613900  1
  H  381  1  0.88855500  0.80522100  0.53161500  1
  H  382  1  0.88881800  0.80506400  0.49698500  1
  H  399  1  0.17335100  0.16029300  0.44575300  1
  H  407  1  0.17473300  0.16179500  0.58161100  1
  H  409  1  0.20946600  0.12613000  0.53102500  1
  H  410  1  0.20903400  0.12566000  0.49640500  1
  H  411  1  0.13984600  0.19711000  0.53094000  1
  H  412  1  0.13940600  0.19664600  0.49632800  1
  H  429  1  0.17418900  0.84069300  0.58154100  1
  H  437  1  0.17389000  0.83995300  0.44565800  1
  H  439  1  0.20915700  0.87537100  0.49603300  1
  H  440  1  0.20924000  0.87553400  0.53065800  1
  H  441  1  0.13856600  0.80537500  0.49654300  1
  H  442  1  0.13862000  0.80556900  0.53116200  1
  H  459  1  0.85131900  0.16302500  0.58152500  1
  H  467  1  0.85496500  0.15929600  0.44572800  1
  H  469  1  0.81805300  0.12585000  0.49633400  1
  H  470  1  0.81694100  0.12700100  0.53092200  1
  H  471  1  0.88910900  0.19537700  0.49633800  1
  H  472  1  0.88798400  0.19647800  0.53087000  1
  H  489  1  0.44594400  0.84072000  0.85333700  1
  H  497  1  0.58181800  0.83955300  0.85392900  1
  H  499  1  0.53075100  0.80477700  0.88877600  1
  H  500  1  0.49613600  0.80510500  0.88868000  1
  H  501  1  0.53163000  0.87515700  0.81856100  1
  H  502  1  0.49700100  0.87542100  0.81839800  1
  H  519  1  0.44575500  0.16000400  0.17370300  1
  H  527  1  0.58161300  0.16135200  0.17512900  1
  H  529  1  0.53101600  0.19609300  0.13949200  1
  H  530  1  0.49639600  0.19567400  0.13904400  1
  H  531  1  0.53095400  0.12646400  0.21046200  1
  H  532  1  0.49634100  0.12603900  0.21002400  1
  H  549  1  0.58154400  0.16082500  0.85405800  1
  H  557  1  0.44566100  0.16053700  0.85331400  1
  H  559  1  0.49603600  0.19580800  0.88872400  1
  H  560  1  0.53066200  0.19588800  0.88888900  1
  H  561  1  0.49654500  0.12522700  0.81871700  1
  H  562  1  0.53116300  0.12527700  0.81891400  1
  H  579  1  0.58153400  0.83797200  0.17635900  1
  H  587  1  0.44573600  0.84158300  0.17268400  1
  H  589  1  0.49633500  0.80468200  0.13921900  1
  H  590  1  0.53092500  0.80357600  0.14035900  1
  H  591  1  0.49635000  0.87569900  0.20878800  1
  H  592  1  0.53088400  0.87457900  0.20988200  1
  H  609  1  0.85336400  0.43256200  0.85409100  1
  H  617  1  0.85395100  0.56843600  0.85294900  1
  H  619  1  0.88881000  0.51737600  0.81817500  1
  H  620  1  0.88871200  0.48276000  0.81849600  1
  H  621  1  0.81860000  0.51824100  0.88855800  1
  H  622  1  0.81843700  0.48361200  0.88881600  1
  H  639  1  0.17361000  0.43238100  0.17332400  1
  H  647  1  0.17525600  0.56823600  0.17477800  1
  H  649  1  0.13956100  0.51767000  0.20951100  1
  H  650  1  0.13904900  0.48305000  0.20905600  1
  H  651  1  0.21052600  0.51754700  0.13987800  1
  H  652  1  0.21001800  0.48293600  0.13940800  1
  H  669  1  0.85407000  0.56817300  0.17419400  1
  H  677  1  0.85333400  0.43229000  0.17389900  1
  H  679  1  0.88874200  0.48266700  0.20917200  1
  H  680  1  0.88890400  0.51729300  0.20925500  1
  H  681  1  0.81875200  0.48317200  0.13857400  1
  H  682  1  0.81894500  0.51779200  0.13862600  1
  H  699  1  0.17642000  0.56815800  0.85130000  1
  H  707  1  0.17267600  0.43236300  0.85496000  1
  H  709  1  0.13923800  0.48296700  0.81804100  1
  H  710  1  0.14039400  0.51755600  0.81692500  1
  H  711  1  0.20876200  0.48297100  0.88910000  1
  H  712  1  0.20986600  0.51750400  0.88797200  1
  H  727  1  0.43508400  0.23296100  0.86422300  1
  H  734  1  0.44134000  0.27517100  0.93471300  1
  H  735  1  0.38737900  0.24917500  0.91728700  1
  H  736  1  0.44096300  0.23341400  0.93594200  1
  H  738  1  0.44151900  0.30037000  0.95919600  1
  H  739  1  0.42104900  0.30899000  0.96966300  1
  H  743  1  0.41270300  0.26015500  0.86580800  1
  H  744  1  0.40603100  0.27075700  0.88696300  1
  H  750  1  0.46741800  0.21260200  0.86635900  1
  H  752  1  0.37479200  0.29344800  0.97057600  1
  H  759  1  0.59309800  0.76826300  0.86501700  1
  H  766  1  0.58514300  0.72420500  0.93429100  1
  H  767  1  0.63895100  0.75215300  0.91963700  1
  H  768  1  0.58426900  0.76599700  0.93640300  1
  H  770  1  0.58477300  0.69844400  0.95821500  1
  H  771  1  0.60508400  0.69019600  0.96929000  1
  H  775  1  0.61615500  0.74165800  0.86694500  1
  H  776  1  0.62220800  0.73072600  0.88811800  1
  H  782  1  0.55994000  0.78774200  0.86644800  1
  H  784  1  0.65100600  0.70675700  0.97200400  1
  H  791  1  0.59329500  0.23264100  0.16364500  1
  H  798  1  0.58531700  0.27641000  0.09408100  1
  H  799  1  0.63913400  0.24865700  0.10905600  1
  H  800  1  0.58440000  0.23474300  0.09226200  1
  H  802  1  0.58494500  0.30192000  0.06990100  1
  H  803  1  0.60525900  0.31009000  0.05877800  1
  H  807  1  0.61637400  0.25922000  0.16163300  1
  H  808  1  0.62240500  0.27010900  0.14043100  1
  H  814  1  0.55998500  0.21322400  0.16219100  1
  H  816  1  0.65131300  0.29377500  0.05648100  1
  H  823  1  0.43469000  0.76872600  0.16272100  1
  H  830  1  0.44122600  0.72636600  0.09229900  1
  H  831  1  0.38709500  0.75195700  0.10979700  1
  H  832  1  0.44078300  0.76791700  0.09103200  1
  H  834  1  0.44155700  0.70111600  0.06788700  1
  H  835  1  0.42113700  0.69227000  0.05751800  1
  H  839  1  0.41236900  0.74150500  0.16122800  1
  H  840  1  0.40577100  0.73077300  0.14011900  1
  H  846  1  0.46685400  0.78892400  0.16078700  1
  H  848  1  0.37471200  0.70732800  0.05675200  1
  H  855  1  0.86422900  0.42173600  0.24633300  1
  H  862  1  0.93472100  0.42796900  0.28854100  1
  H  863  1  0.91727000  0.37400600  0.26256400  1
  H  864  1  0.93595100  0.42757200  0.24678100  1
  H  866  1  0.95920400  0.42814500  0.31373900  1
  H  867  1  0.96966200  0.40767300  0.32236700  1
  H  871  1  0.86580000  0.39936500  0.27353800  1
  H  872  1  0.88695300  0.39268500  0.28414200  1
  H  878  1  0.86637900  0.45405600  0.22596200  1
  H  880  1  0.97056400  0.36141700  0.30682800  1
  H  887  1  0.86502500  0.57964900  0.78160500  1
  H  894  1  0.93434500  0.57176000  0.73761700  1
  H  895  1  0.91958400  0.62557700  0.76549100  1
  H  896  1  0.93642900  0.57094500  0.77941700  1
  H  898  1  0.95828700  0.57139900  0.71187200  1
  H  899  1  0.96933300  0.59171800  0.70360700  1
  H  903  1  0.86693600  0.60267300  0.75496800  1
  H  904  1  0.88810900  0.60874900  0.74404900  1
  H  910  1  0.86648600  0.54653600  0.80113400  1
  H  912  1  0.97198600  0.63764900  0.72013600  1
  H  919  1  0.16374600  0.57990200  0.24611000  1
  H  926  1  0.09414500  0.57187100  0.28984800  1
  H  927  1  0.10915200  0.62571000  0.26215600  1
  H  928  1  0.09236500  0.57098100  0.24818700  1
  H  930  1  0.06993200  0.57148000  0.31533000  1
  H  931  1  0.05879500  0.59178800  0.32349900  1
  H  935  1  0.16171700  0.60295200  0.27271300  1
  H  936  1  0.14051200  0.60896300  0.28360500  1
  H  942  1  0.16229500  0.54659600  0.22666000  1
  H  944  1  0.05650700  0.63785500  0.30716100  1
  H  951  1  0.16273700  0.42131900  0.78209400  1
  H  958  1  0.09231700  0.42785200  0.73972600  1
  H  959  1  0.10982400  0.37372100  0.76531200  1
  H  960  1  0.09104800  0.42740600  0.78127300  1
  H  962  1  0.06790300  0.42818200  0.71447700  1
  H  963  1  0.05753700  0.40775900  0.70562900  1
  H  967  1  0.16125100  0.39900000  0.75487100  1
  H  968  1  0.14014300  0.39240200  0.74413400  1
  H  974  1  0.16079900  0.45347800  0.80229500  1
  H  976  1  0.05677600  0.36133600  0.72068900  1
  H  983  1  0.24633200  0.85085100  0.43511700  1
  H  990  1  0.28852500  0.92135100  0.44133300  1
  H  991  1  0.26256100  0.90387800  0.38737000  1
  H  992  1  0.24676300  0.92257600  0.44092600  1
  H  994  1  0.31371800  0.94583900  0.44150500  1
  H  995  1  0.32235000  0.95629100  0.42103200  1
  H  999  1  0.27354100  0.85242000  0.41275100  1
  H  1000  1  0.28414200  0.87357200  0.40606600  1
  H  1006  1  0.22595300  0.85300700  0.46742900  1
  H  1008  1  0.30681600  0.95717900  0.37477400  1
  H  1015  1  0.78160500  0.85165500  0.59302600  1
  H  1022  1  0.73762500  0.92097800  0.58513400  1
  H  1023  1  0.76549300  0.90621700  0.63895600  1
  H  1024  1  0.77942700  0.92306000  0.58432500  1
  H  1026  1  0.71187900  0.94492000  0.58476800  1
  H  1027  1  0.70361300  0.95596800  0.60508700  1
  H  1031  1  0.75496800  0.85356900  0.61604500  1
  H  1032  1  0.74404900  0.87474400  0.62212300  1
  H  1038  1  0.80113500  0.85311700  0.55991200  1
  H  1040  1  0.72013400  0.95862100  0.65102100  1
  H  1047  1  0.24602700  0.15029800  0.59329400  1
  H  1054  1  0.28979100  0.08072600  0.58530500  1
  H  1055  1  0.26204600  0.09570500  0.63912500  1
  H  1056  1  0.24812400  0.07891500  0.58439100  1
  H  1058  1  0.31529500  0.05654000  0.58493200  1
  H  1059  1  0.32346600  0.04541400  0.60524400  1
  H  1063  1  0.27260900  0.14828000  0.61636800  1
  H  1064  1  0.28349800  0.12707800  0.62239500  1
  H  1070  1  0.22660500  0.14884300  0.55997900  1
  H  1072  1  0.30715300  0.04312000  0.65130100  1
  H  1079  1  0.78209200  0.14936600  0.43470100  1
  H  1086  1  0.73973000  0.07894100  0.44121400  1
  H  1087  1  0.76530100  0.09647100  0.38708400  1
  H  1088  1  0.78127800  0.07767400  0.44075800  1
  H  1090  1  0.71448600  0.05452400  0.44154300  1
  H  1091  1  0.70563300  0.04416300  0.42111900  1
  H  1095  1  0.75486400  0.14788700  0.41238800  1
  H  1096  1  0.74412800  0.12678200  0.40578300  1
  H  1102  1  0.80230100  0.14741700  0.46685200  1
  H  1104  1  0.72069000  0.04341500  0.37469400  1
  H  1111  1  0.24429000  0.41904200  0.16251100  1
  H  1118  1  0.28957700  0.42788700  0.09418900  1
  H  1119  1  0.26040500  0.37425600  0.10698400  1
  H  1120  1  0.24802500  0.42975100  0.09144100  1
  H  1122  1  0.31567300  0.42840500  0.07066700  1
  H  1123  1  0.32378200  0.40823400  0.05925000  1
  H  1127  1  0.27028100  0.39533100  0.16039700  1
  H  1128  1  0.28143900  0.38957200  0.13926200  1
  H  1134  1  0.22589300  0.45292600  0.16156300  1
  H  1136  1  0.30686200  0.36239800  0.05560000  1
  H  1143  1  0.78105600  0.57799000  0.16310700  1
  H  1150  1  0.73975700  0.57213100  0.09203500  1
  H  1151  1  0.76471300  0.62620800  0.11059700  1
  H  1152  1  0.78155400  0.57316900  0.09131300  1
  H  1154  1  0.71474000  0.57196800  0.06735000  1
  H  1155  1  0.70586400  0.59247800  0.05717400  1
  H  1159  1  0.75348600  0.59989800  0.16152600  1
  H  1160  1  0.74302200  0.60670100  0.14034400  1
  H  1166  1  0.80195000  0.54614600  0.16084900  1
  H  1168  1  0.72074600  0.63891600  0.05704200  1
  H  1175  1  0.24246900  0.58393600  0.86500800  1
  H  1182  1  0.29337000  0.57152500  0.93014000  1
  H  1183  1  0.26017600  0.62379500  0.92274400  1
  H  1184  1  0.25360200  0.56535800  0.93364800  1
  H  1186  1  0.31988700  0.57085000  0.95316000  1
  H  1187  1  0.32689500  0.59054600  0.96604800  1
  H  1191  1  0.26630800  0.60969100  0.86798700  1
  H  1192  1  0.27900600  0.61386900  0.88860500  1
  H  1198  1  0.22796700  0.54565200  0.86510200  1
  H  1200  1  0.30803500  0.63568300  0.97251800  1
  H  1207  1  0.78220200  0.42108000  0.86509400  1
  H  1214  1  0.73849900  0.42829300  0.93466900  1
  H  1215  1  0.76626600  0.37460400  0.91926600  1
  H  1216  1  0.78015400  0.42923700  0.93656400  1
  H  1218  1  0.71287900  0.42845500  0.95871200  1
  H  1219  1  0.70460200  0.40804600  0.96957000  1
  H  1223  1  0.75569900  0.39791200  0.86689100  1
  H  1224  1  0.74486200  0.39160900  0.88803900  1
  H  1230  1  0.80154700  0.45421500  0.86666400  1
  H  1232  1  0.72093200  0.36200700  0.97161200  1
  H  1239  1  0.43440500  0.85172200  0.78221700  1
  H  1246  1  0.44168100  0.92125000  0.73844300  1
  H  1247  1  0.38799700  0.90594700  0.76627300  1
  H  1248  1  0.44267400  0.92317600  0.78009000  1
  H  1250  1  0.44185300  0.94527700  0.71280600  1
  H  1251  1  0.42145000  0.95615700  0.70453900  1
  H  1255  1  0.41120900  0.85353100  0.75574100  1
  H  1256  1  0.40492800  0.87467700  0.74488900  1
  H  1262  1  0.46757600  0.85326600  0.80152000  1
  H  1264  1  0.37541800  0.95825700  0.72089800  1
  H  1271  1  0.59727700  0.85158300  0.24254500  1
  H  1278  1  0.58495800  0.91683400  0.29325100  1
  H  1279  1  0.63726300  0.90930300  0.26014000  1
  H  1280  1  0.57890800  0.92032200  0.25340500  1
  H  1282  1  0.58429400  0.93987400  0.31975300  1
  H  1283  1  0.60400300  0.95273200  0.32677600  1
  H  1287  1  0.62298500  0.85455500  0.26644100  1
  H  1288  1  0.62720300  0.87520400  0.27907500  1
  H  1294  1  0.55919100  0.85164300  0.22790300  1
  H  1296  1  0.64916000  0.95912800  0.30795000  1
  H  1303  1  0.59137900  0.14974500  0.78104500  1
  H  1310  1  0.58548800  0.07868200  0.73972900  1
  H  1311  1  0.63956800  0.09720900  0.76470100  1
  H  1312  1  0.58651300  0.07795200  0.78152600  1
  H  1314  1  0.58531700  0.05400100  0.71470700  1
  H  1315  1  0.60582400  0.04381600  0.70583400  1
  H  1319  1  0.61329100  0.14815500  0.75347900  1
  H  1320  1  0.62008400  0.12697200  0.74301000  1
  H  1326  1  0.55952600  0.14749800  0.80192900  1
  H  1328  1  0.65226000  0.04366000  0.72072400  1
  H  1335  1  0.43246500  0.14919000  0.24436600  1
  H  1342  1  0.44127400  0.08084100  0.28963200  1
  H  1343  1  0.38764600  0.09368600  0.26047300  1
  H  1344  1  0.44313600  0.07811300  0.24808900  1
  H  1346  1  0.44178000  0.05729600  0.31570600  1
  H  1347  1  0.42160600  0.04587800  0.32380300  1
  H  1351  1  0.40874800  0.14708200  0.27035600  1
  H  1352  1  0.40297800  0.12594800  0.28150600  1
  H  1358  1  0.46635000  0.14822500  0.22595600  1
  H  1360  1  0.37577000  0.04225800  0.30687800  1
  H  1367  1  0.86500500  0.22909600  0.59729500  1
  H  1374  1  0.93017000  0.27995300  0.58492600  1
  H  1375  1  0.92273000  0.24676600  0.63719500  1
  H  1376  1  0.93367000  0.24017000  0.57877700  1
  H  1378  1  0.95319900  0.30646200  0.58426400  1
  H  1379  1  0.96607700  0.31346700  0.60396700  1
  H  1383  1  0.86797900  0.25294300  0.62304500  1
  H  1384  1  0.88860400  0.26562600  0.62723600  1
  H  1390  1  0.86509700  0.21456700  0.55905300  1
  H  1392  1  0.97251100  0.29462500  0.64912100  1
  H  1399  1  0.86509900  0.76883400  0.43445100  1
  H  1406  1  0.93467500  0.72513100  0.44166400  1
  H  1407  1  0.91926400  0.75288400  0.38797000  1
  H  1408  1  0.93656800  0.76678500  0.44260100  1
  H  1410  1  0.95871900  0.69951300  0.44183100  1
  H  1411  1  0.96957600  0.69123100  0.42142200  1
  H  1415  1  0.86689300  0.74232800  0.41128700  1
  H  1416  1  0.88803900  0.73149100  0.40498300  1
  H  1422  1  0.86667000  0.78818000  0.46758300  1
  H  1424  1  0.97161200  0.70754900  0.37537800  1
  H  1431  1  0.16254800  0.23097100  0.43245700  1
  H  1438  1  0.09420100  0.27623400  0.44126600  1
  H  1439  1  0.10704900  0.24708600  0.38763300  1
  H  1440  1  0.09146900  0.23468900  0.44311800  1
  H  1442  1  0.07066000  0.30231100  0.44177700  1
  H  1443  1  0.05924600  0.31041600  0.42160300  1
  H  1447  1  0.16044400  0.25696700  0.40874600  1
  H  1448  1  0.13931000  0.26811900  0.40297500  1
  H  1454  1  0.16158200  0.21255800  0.46633300  1
  H  1456  1  0.05562900  0.29350100  0.37576300  1
  H  1463  1  0.16310300  0.76767900  0.59136000  1
  H  1470  1  0.09203100  0.72637800  0.58550000  1
  H  1471  1  0.11058700  0.75134100  0.63957400  1
  H  1472  1  0.09130800  0.76817700  0.58653300  1
  H  1474  1  0.06734600  0.70136200  0.58533700  1
  H  1475  1  0.05716800  0.69248800  0.60584800  1
  H  1479  1  0.16152000  0.74011100  0.61326900  1
  H  1480  1  0.14033700  0.72964700  0.62007000  1
  H  1486  1  0.16084600  0.78857300  0.55951400  1
  H  1488  1  0.05703200  0.70737700  0.65228400  1
  H  1495  1  0.59382900  0.76733300  0.16444200  1
  H  1502  1  0.58473900  0.72240500  0.09543500  1
  H  1503  1  0.63829300  0.75138300  0.10892300  1
  H  1504  1  0.58282700  0.76397100  0.09340100  1
  H  1506  1  0.58433000  0.69679000  0.07134900  1
  H  1507  1  0.60454100  0.68902800  0.05974900  1
  H  1511  1  0.61729400  0.74110900  0.16211700  1
  H  1512  1  0.62284500  0.72997500  0.14091200  1
  H  1518  1  0.55980800  0.78629000  0.16340600  1
  H  1520  1  0.65033700  0.70617700  0.05650500  1
  H  1527  1  0.43481100  0.23233100  0.16276700  1
  H  1534  1  0.44143400  0.27453200  0.09226100  1
  H  1535  1  0.38745300  0.24838900  0.10941800  1
  H  1536  1  0.44134500  0.23287600  0.09110600  1
  H  1538  1  0.44165300  0.29976800  0.06780400  1
  H  1539  1  0.42119700  0.30836200  0.05728000  1
  H  1543  1  0.41227300  0.25937000  0.16100700  1
  H  1544  1  0.40573100  0.26995900  0.13980700  1
  H  1550  1  0.46725600  0.21227200  0.16097600  1
  H  1552  1  0.37493300  0.29288300  0.05627900  1
  H  1559  1  0.43523000  0.76801200  0.86456700  1
  H  1566  1  0.44151600  0.72635600  0.93536900  1
  H  1567  1  0.38745700  0.75193100  0.91763200  1
  H  1568  1  0.44096000  0.76812700  0.93629500  1
  H  1570  1  0.44174900  0.70120700  0.95991100  1
  H  1571  1  0.42128400  0.69245400  0.97028200  1
  H  1575  1  0.41297800  0.74073500  0.86630400  1
  H  1576  1  0.40630600  0.73025900  0.88752200  1
  H  1582  1  0.46745300  0.78843900  0.86656300  1
  H  1584  1  0.37489300  0.70754900  0.97090600  1
  H  1591  1  0.59314800  0.23204400  0.86502600  1
  H  1598  1  0.58562700  0.27592200  0.93443200  1
  H  1599  1  0.63934400  0.24797900  0.91943100  1
  H  1600  1  0.58467200  0.23422300  0.93646000  1
  H  1602  1  0.58538200  0.30159600  0.95842800  1
  H  1603  1  0.60574700  0.30982600  0.96941100  1
  H  1607  1  0.61630800  0.25856200  0.86688400  1
  H  1608  1  0.62251200  0.26943000  0.88804500  1
  H  1614  1  0.55994200  0.21267400  0.86657000  1
  H  1616  1  0.65171900  0.29335100  0.97177500  1
  H  1623  1  0.16446700  0.58046200  0.78068300  1
  H  1630  1  0.09544600  0.57137600  0.73577300  1
  H  1631  1  0.10894100  0.62492600  0.76475600  1
  H  1632  1  0.09342700  0.56945400  0.77733800  1
  H  1634  1  0.07135200  0.57097000  0.71016700  1
  H  1635  1  0.05975000  0.59118300  0.70241100  1
  H  1639  1  0.16213300  0.60393500  0.75446600  1
  H  1640  1  0.14092500  0.60948600  0.74333900  1
  H  1646  1  0.16343800  0.54643500  0.79963400  1
  H  1648  1  0.05651400  0.63697800  0.71956200  1
  H  1655  1  0.16274300  0.42143200  0.24566500  1
  H  1662  1  0.09224400  0.42807300  0.28789800  1
  H  1663  1  0.10941100  0.37409100  0.26176500  1
  H  1664  1  0.09108600  0.42799500  0.24626400  1
  H  1666  1  0.06778300  0.42829300  0.31313000  1
  H  1667  1  0.05726200  0.40783700  0.32172700  1
  H  1671  1  0.16099500  0.39889500  0.27270400  1
  H  1672  1  0.13980100  0.39236100  0.28330900  1
  H  1678  1  0.16095800  0.45387300  0.22561400  1
  H  1680  1  0.05627300  0.36156800  0.30625800  1
  H  1687  1  0.86458900  0.42186000  0.78138900  1
  H  1694  1  0.93539100  0.42813400  0.73973000  1
  H  1695  1  0.91764700  0.37408000  0.76531300  1
  H  1696  1  0.93631700  0.42758000  0.78150200  1
  H  1698  1  0.95993400  0.42836200  0.71458100  1
  H  1699  1  0.97030200  0.40789500  0.70583100  1
  H  1703  1  0.86632400  0.39960700  0.75411000  1
  H  1704  1  0.88753800  0.39293200  0.74363500  1
  H  1710  1  0.86659000  0.45408300  0.80181900  1
  H  1712  1  0.97092500  0.36151000  0.72093700  1
  H  1719  1  0.86502600  0.57976200  0.24542100  1
  H  1726  1  0.93441700  0.57223200  0.28931600  1
  H  1727  1  0.91943100  0.62595300  0.26137200  1
  H  1728  1  0.93646000  0.57128700  0.24760900  1
  H  1730  1  0.95840900  0.57198100  0.31499400  1
  H  1731  1  0.96939400  0.59234300  0.32322500  1
  H  1735  1  0.86687800  0.60291700  0.27194600  1
  H  1736  1  0.88803800  0.60911800  0.28281900  1
  H  1742  1  0.86657500  0.54656200  0.22604000  1
  H  1744  1  0.97178000  0.63830900  0.30674300  1
  H  1751  1  0.78065500  0.15109600  0.59377500  1
  H  1758  1  0.73579300  0.08204500  0.58473100  1
  H  1759  1  0.76471600  0.09561500  0.63829400  1
  H  1760  1  0.77736400  0.08004000  0.58285800  1
  H  1762  1  0.71019300  0.05794100  0.58432800  1
  H  1763  1  0.70242300  0.04635800  0.60454600  1
  H  1767  1  0.75441200  0.14877900  0.61722000  1
  H  1768  1  0.74329300  0.12757000  0.62278700  1
  H  1774  1  0.79964800  0.15004200  0.55978300  1
  H  1776  1  0.71954700  0.04316400  0.65035000  1
  H  1783  1  0.24569000  0.14937500  0.43482400  1
  H  1790  1  0.28787500  0.07885500  0.44144000  1
  H  1791  1  0.26176200  0.09604700  0.38745600  1
  H  1792  1  0.24622900  0.07771300  0.44134000  1
  H  1794  1  0.31310300  0.05438900  0.44165700  1
  H  1795  1  0.32170300  0.04387300  0.42120000  1
  H  1799  1  0.27273500  0.14762000  0.41229400  1
  H  1800  1  0.28332400  0.12642100  0.40575000  1
  H  1806  1  0.22562300  0.14758100  0.46725800  1
  H  1808  1  0.30624500  0.04290000  0.37492900  1
  H  1815  1  0.78140600  0.85123000  0.43523300  1
  H  1822  1  0.73974200  0.92203000  0.44149800  1
  H  1823  1  0.76533700  0.90428800  0.38745000  1
  H  1824  1  0.78151600  0.92295900  0.44095200  1
  H  1826  1  0.71459000  0.94657000  0.44171800  1
  H  1827  1  0.70584100  0.95693600  0.42124800  1
  H  1831  1  0.75413100  0.85296400  0.41297500  1
  H  1832  1  0.74365600  0.87417900  0.40629800  1
  H  1838  1  0.80183000  0.85323200  0.46745700  1
  H  1840  1  0.72095800  0.95756000  0.37486700  1
  H  1847  1  0.24544600  0.85165200  0.59308700  1
  H  1854  1  0.28927700  0.92109100  0.58560500  1
  H  1855  1  0.26139500  0.90600900  0.63933200  1
  H  1856  1  0.24757200  0.92309600  0.58469500  1
  H  1858  1  0.31493700  0.94510000  0.58536300  1
  H  1859  1  0.32318000  0.95606500  0.60573200  1
  H  1863  1  0.27199100  0.85349800  0.61621800  1
  H  1864  1  0.28285300  0.87465800  0.62243700  1
  H  1870  1  0.22603600  0.85321700  0.55991400  1
  H  1872  1  0.30673300  0.95838600  0.65171000  1
  H  1879  1  0.78149900  0.57928500  0.86433900  1
  H  1886  1  0.73961900  0.57284800  0.93496000  1
  H  1887  1  0.76534900  0.62694500  0.91758200  1
  H  1888  1  0.78142800  0.57337400  0.93605100  1
  H  1890  1  0.71442800  0.57252800  0.95945500  1
  H  1891  1  0.70571700  0.59294900  0.96994600  1
  H  1895  1  0.75429200  0.60162800  0.86607200  1
  H  1896  1  0.74378000  0.60826900  0.88728100  1
  H  1902  1  0.80181900  0.54694100  0.86634300  1
  H  1904  1  0.72100400  0.63928400  0.97090700  1
  H  1911  1  0.24445200  0.42055800  0.86578100  1
  H  1918  1  0.28850100  0.42860100  0.93494200  1
  H  1919  1  0.26079300  0.37467000  0.92026500  1
  H  1920  1  0.24665200  0.42925200  0.93718800  1
  H  1922  1  0.31449400  0.42902500  0.95861100  1
  H  1923  1  0.32303500  0.40871100  0.96945100  1
  H  1927  1  0.27118700  0.39768100  0.86764800  1
  H  1928  1  0.28216200  0.39164400  0.88880000  1
  H  1934  1  0.22505000  0.45356100  0.86720600  1
  H  1936  1  0.30683100  0.36267300  0.97205200  1
  H  1943  1  0.78143400  0.42189200  0.16292900  1
  H  1950  1  0.73860000  0.42856800  0.09282600  1
  H  1951  1  0.76527000  0.37468700  0.10947000  1
  H  1952  1  0.78038500  0.42859200  0.09128200  1
  H  1954  1  0.71319600  0.42874200  0.06854800  1
  H  1955  1  0.70467900  0.40828900  0.05796100  1
  H  1959  1  0.75441400  0.39930400  0.16129400  1
  H  1960  1  0.74369700  0.39279600  0.14014400  1
  H  1966  1  0.80156700  0.45444400  0.16095600  1
  H  1968  1  0.72048300  0.36208600  0.05665600  1
  H  1975  1  0.24493000  0.58208800  0.16311300  1
  H  1982  1  0.29144700  0.57158300  0.09554900  1
  H  1983  1  0.26134600  0.62511200  0.10645600  1
  H  1984  1  0.25011500  0.56886700  0.09255800  1
  H  1986  1  0.31762000  0.57073600  0.07209400  1
  H  1987  1  0.32538500  0.59066300  0.06001400  1
  H  1991  1  0.27054300  0.60618200  0.16056700  1
  H  1992  1  0.28201300  0.61132200  0.13944000  1
  H  1998  1  0.22709100  0.54742400  0.16273200  1
  H  2000  1  0.30796500  0.63629700  0.05514700  1
  H  2007  1  0.59514300  0.14978800  0.24514100  1
  H  2014  1  0.58495800  0.08193000  0.29120800  1
  H  2015  1  0.63859300  0.09339700  0.26150300  1
  H  2016  1  0.58259700  0.07907200  0.24978500  1
  H  2018  1  0.58413700  0.05838600  0.31730500  1
  H  2019  1  0.60411000  0.04643800  0.32515400  1
  H  2023  1  0.61905700  0.14732300  0.27093200  1
  H  2024  1  0.62432700  0.12617300  0.28230100  1
  H  2030  1  0.56072100  0.14924200  0.22701500  1
  H  2032  1  0.64980800  0.04188000  0.30791100  1
  H  2039  1  0.43523000  0.14956000  0.78142800  1
  H  2046  1  0.44195600  0.07948100  0.73856000  1
  H  2047  1  0.38807300  0.09605700  0.76526800  1
  H  2048  1  0.44200600  0.07792200  0.78034400  1
  H  2050  1  0.44214000  0.05521400  0.71314400  1
  H  2051  1  0.42169200  0.04461000  0.70463500  1
  H  2055  1  0.41262600  0.14791100  0.75442000  1
  H  2056  1  0.40613600  0.12676000  0.74369900  1
  H  2062  1  0.46780300  0.14760800  0.80154000  1
  H  2064  1  0.37549400  0.04326300  0.72045700  1
  H  2071  1  0.43392200  0.85240400  0.24445600  1
  H  2078  1  0.44197800  0.92156700  0.28850500  1
  H  2079  1  0.38804900  0.90689800  0.26078800  1
  H  2080  1  0.44263800  0.92380800  0.24665700  1
  H  2082  1  0.44240200  0.94523700  0.31449700  1
  H  2083  1  0.42208800  0.95608100  0.32303300  1
  H  2087  1  0.41104100  0.85427700  0.27118500  1
  H  2088  1  0.40501000  0.87543200  0.28216000  1
  H  2094  1  0.46692900  0.85381900  0.22505800  1
  H  2096  1  0.37605000  0.95868400  0.30682800  1
  H  2103  1  0.59270400  0.85095200  0.78148900  1
  H  2110  1  0.58621600  0.92155000  0.73957800  1
  H  2111  1  0.64031900  0.90423600  0.76534100  1
  H  2112  1  0.58672300  0.92265800  0.78138800  1
  H  2114  1  0.58588400  0.94603900  0.71438000  1
  H  2115  1  0.60630100  0.95654600  0.70567500  1
  H  2119  1  0.61506000  0.85269500  0.75429300  1
  H  2120  1  0.62168500  0.87390700  0.74377600  1
  H  2126  1  0.56034000  0.85293800  0.80179100  1
  H  2128  1  0.65263300  0.95754900  0.72097700  1
  H  2135  1  0.16292100  0.76803300  0.43529100  1
  H  2142  1  0.09280300  0.72522200  0.44194500  1
  H  2143  1  0.10948600  0.75186300  0.38806100  1
  H  2144  1  0.09127100  0.76701000  0.44194700  1
  H  2146  1  0.06852500  0.69981700  0.44211600  1
  H  2147  1  0.05795200  0.69129000  0.42166000  1
  H  2151  1  0.16129100  0.74099900  0.41271800  1
  H  2152  1  0.14014300  0.73028600  0.40620500  1
  H  2158  1  0.16094000  0.78818500  0.46782600  1
  H  2160  1  0.05667200  0.70708100  0.37545100  1
  H  2167  1  0.16314600  0.23169600  0.59524500  1
  H  2174  1  0.09538900  0.27792000  0.58495400  1
  H  2175  1  0.10666700  0.24808100  0.63855500  1
  H  2176  1  0.09248300  0.23652700  0.58247500  1
  H  2178  1  0.07187600  0.30404400  0.58412300  1
  H  2179  1  0.05988400  0.31186500  0.60408200  1
  H  2183  1  0.16065600  0.25742900  0.61922000  1
  H  2184  1  0.13951500  0.26883500  0.62444600  1
  H  2190  1  0.16265200  0.21366500  0.56074300  1
  H  2192  1  0.05522100  0.29456200  0.64975700  1
  H  2199  1  0.86433300  0.76812200  0.59266100  1
  H  2206  1  0.93494500  0.72622800  0.58621700  1
  H  2207  1  0.91757900  0.75196700  0.64031400  1
  H  2208  1  0.93604400  0.76803600  0.58673900  1
  H  2210  1  0.95944000  0.70103600  0.58589600  1
  H  2211  1  0.96993200  0.69232500  0.60631900  1
  H  2215  1  0.86606300  0.74091600  0.61500500  1
  H  2216  1  0.88727100  0.73040200  0.62164400  1
  H  2222  1  0.86633700  0.78844100  0.56031300  1
  H  2224  1  0.97090100  0.70761900  0.65265100  1
  H  2231  1  0.86578800  0.23108900  0.43395200  1
  H  2238  1  0.93496900  0.27510800  0.44197500  1
  H  2239  1  0.92025300  0.24742900  0.38803900  1
  H  2240  1  0.93720100  0.23325200  0.44260100  1
  H  2242  1  0.95864300  0.30109500  0.44239700  1
  H  2243  1  0.96947300  0.30964300  0.42208200  1
  H  2247  1  0.86765200  0.25783600  0.41108900  1
  H  2248  1  0.88880600  0.26880500  0.40504400  1
  H  2254  1  0.86722100  0.21166900  0.46693800  1
  H  2256  1  0.97205200  0.29345500  0.37603900  1
  C  1  1  0.35824200  0.34493800  0.00305200  1
  C  2  1  0.34565000  0.35833800  0.99243300  1
  C  3  1  0.34538900  0.35831000  0.97125100  1
  C  4  1  0.35824800  0.34527600  0.96105300  1
  C  5  1  0.37113300  0.33211300  0.97104700  1
  C  6  1  0.37121900  0.33207200  0.99223300  1
  C  7  1  0.33447700  0.37221300  0.00354500  1
  C  8  1  0.38472800  0.32029200  0.00316900  1
  C  10  1  0.35824900  0.34479300  0.02440700  1
  C  11  1  0.34566100  0.35804700  0.03522100  1
  C  12  1  0.34540700  0.35771700  0.05640300  1
  C  13  1  0.35829100  0.34455400  0.06640200  1
  C  14  1  0.37119200  0.33155700  0.05621800  1
  C  15  1  0.37124900  0.33179200  0.03503600  1
  C  16  1  0.33448300  0.37207200  0.02430300  1
  C  18  1  0.38474500  0.32015900  0.02393000  1
  C  23  1  0.38338300  0.31965000  0.95900600  1
  C  24  1  0.33276300  0.37063500  0.95944000  1
  C  25  1  0.33281900  0.36989200  0.06841600  1
  C  26  1  0.38351000  0.31899600  0.06808400  1
  C  31  1  0.66909000  0.65543900  0.00331400  1
  C  32  1  0.68217700  0.64264400  0.99252900  1
  C  33  1  0.68228000  0.64278300  0.97134300  1
  C  34  1  0.66904400  0.65556600  0.96131400  1
  C  35  1  0.65580400  0.66825500  0.97146300  1
  C  36  1  0.65565200  0.66795700  0.99264800  1
  C  37  1  0.69402200  0.62921900  0.00349000  1
  C  38  1  0.64161900  0.67899100  0.00370900  1
  C  40  1  0.66902300  0.65529400  0.02467400  1
  C  41  1  0.68205000  0.64234500  0.03533400  1
  C  42  1  0.68204400  0.64220200  0.05651600  1
  C  43  1  0.66876500  0.65484200  0.06666600  1
  C  44  1  0.65555400  0.66767200  0.05664800  1
  C  45  1  0.65551800  0.66765400  0.03545600  1
  C  46  1  0.69395800  0.62907200  0.02424900  1
  C  48  1  0.64155000  0.67884000  0.02447600  1
  C  53  1  0.64333500  0.68066900  0.95957800  1
  C  54  1  0.69484500  0.63059200  0.95932400  1
  C  55  1  0.69459900  0.62989100  0.06840300  1
  C  56  1  0.64299300  0.67988100  0.06868400  1
  C  61  1  0.66904800  0.34502400  0.02466900  1
  C  62  1  0.68182400  0.35817300  0.03538600  1
  C  63  1  0.68185500  0.35819000  0.05656900  1
  C  64  1  0.66875900  0.34531800  0.06666500  1
  C  65  1  0.65574400  0.33235000  0.05658000  1
  C  66  1  0.65574900  0.33240200  0.03539300  1
  C  67  1  0.69342500  0.37176000  0.02435600  1
  C  68  1  0.64200100  0.32099400  0.02436300  1
  C  70  1  0.66916300  0.34491700  0.00331100  1
  C  71  1  0.68205000  0.35795900  0.99258600  1
  C  72  1  0.68229300  0.35777500  0.97140100  1
  C  73  1  0.66929500  0.34479200  0.96131700  1
  C  74  1  0.65618300  0.33192800  0.97140700  1
  C  75  1  0.65597200  0.33218500  0.99259000  1
  C  76  1  0.69352900  0.37166200  0.00359700  1
  C  78  1  0.64211400  0.32088600  0.00360000  1
  C  83  1  0.64333000  0.31994000  0.06853300  1
  C  84  1  0.69435300  0.37051500  0.06850400  1
  C  85  1  0.69483500  0.37004900  0.95944200  1
  C  86  1  0.64385500  0.31943800  0.95946200  1
  C  91  1  0.35898900  0.65528000  0.02443000  1
  C  92  1  0.34672300  0.64162700  0.03511600  1
  C  93  1  0.34636900  0.64183600  0.05630200  1
  C  94  1  0.35891400  0.65524000  0.06642100  1
  C  95  1  0.37157700  0.66857000  0.05637200  1
  C  96  1  0.37167200  0.66849100  0.03518900  1
  C  97  1  0.33602400  0.62733300  0.02406600  1
  C  98  1  0.38493200  0.68049900  0.02420400  1
  C  100  1  0.35898500  0.65533500  0.00307000  1
  C  101  1  0.34673300  0.64172200  0.99230600  1
  C  102  1  0.34635700  0.64205800  0.97111400  1
  C  103  1  0.35890500  0.65554500  0.96109600  1
  C  104  1  0.37159500  0.66879400  0.97121600  1
  C  105  1  0.37167400  0.66860700  0.99239400  1
  C  106  1  0.33606300  0.62735300  0.00329400  1
  C  108  1  0.38493800  0.68055000  0.00344600  1
  C  113  1  0.38366100  0.68125300  0.06836100  1
  C  114  1  0.33394800  0.62938100  0.06821700  1
  C  115  1  0.33401300  0.62959500  0.95908600  1
  C  116  1  0.38376100  0.68146100  0.95929000  1
  C  121  1  0.00305100  0.34487200  0.35831300  1
  C  122  1  0.99243400  0.33227500  0.37171400  1
  C  123  1  0.97125200  0.33201400  0.37168700  1
  C  124  1  0.96105100  0.34487400  0.35865800  1
  C  125  1  0.97104400  0.35775900  0.34549300  1
  C  126  1  0.99222900  0.35784900  0.34544900  1
  C  127  1  0.00355100  0.32110100  0.38558200  1
  C  128  1  0.00316200  0.37135900  0.33367000  1
  C  130  1  0.02440700  0.34488300  0.35816800  1
  C  131  1  0.03522400  0.33229600  0.37142000  1
  C  132  1  0.05640600  0.33204800  0.37109000  1
  C  133  1  0.06640200  0.34493600  0.35792800  1
  C  134  1  0.05621300  0.35783500  0.34493300  1
  C  135  1  0.03503200  0.35788500  0.34516600  1
  C  136  1  0.02430900  0.32111300  0.38544200  1
  C  138  1  0.02392300  0.37138000  0.33353400  1
  C  143  1  0.95899900  0.37000900  0.33303200  1
  C  144  1  0.95944600  0.31938600  0.38401200  1
  C  145  1  0.06842300  0.31946800  0.38326700  1
  C  146  1  0.06807600  0.37015300  0.33237100  1
  C  151  1  0.00331200  0.65571600  0.66881800  1
  C  152  1  0.99252500  0.66879900  0.65601800  1
  C  153  1  0.97134000  0.66889700  0.65615600  1
  C  154  1  0.96131300  0.65565900  0.66893800  1
  C  155  1  0.97146500  0.64242500  0.68163200  1
  C  156  1  0.99264800  0.64227900  0.68133900  1
  C  157  1  0.00348400  0.68064200  0.64258900  1
  C  158  1  0.00371100  0.62825400  0.69238000  1
  C  160  1  0.02467200  0.65565400  0.66867400  1
  C  161  1  0.03533000  0.66867800  0.65572000  1
  C  162  1  0.05651200  0.66867500  0.65557800  1
  C  163  1  0.06666400  0.65540100  0.66822100  1
  C  164  1  0.05664800  0.64219300  0.68105500  1
  C  165  1  0.03545600  0.64215500  0.68103700  1
  C  166  1  0.02424400  0.68058100  0.64244400  1
  C  168  1  0.02447800  0.62818900  0.69222900  1
  C  173  1  0.95958100  0.62995300  0.69404400  1
  C  174  1  0.95931800  0.68145900  0.64396300  1
  C  175  1  0.06839700  0.68122900  0.64326300  1
  C  176  1  0.06868700  0.62963400  0.69326200  1
  C  181  1  0.02467200  0.65564200  0.35841300  1
  C  182  1  0.03539100  0.66842300  0.37155500  1
  C  183  1  0.05657400  0.66844800  0.37157300  1
  C  184  1  0.06666700  0.65534000  0.35871200  1
  C  185  1  0.05658100  0.64232000  0.34574900  1
  C  186  1  0.03539300  0.64233100  0.34580000  1
  C  187  1  0.02436300  0.68003600  0.38513300  1
  C  188  1  0.02435900  0.62858000  0.33440100  1
  C  190  1  0.00331300  0.65576300  0.35830400  1
  C  191  1  0.99259000  0.66865900  0.37134000  1
  C  192  1  0.97140500  0.66890700  0.37115500  1
  C  193  1  0.96131900  0.65590800  0.35817500  1
  C  194  1  0.97140700  0.64278600  0.34532000  1
  C  195  1  0.99259000  0.64256900  0.34557800  1
  C  196  1  0.00360400  0.68014000  0.38503900  1
  C  198  1  0.00359600  0.62870000  0.33428900  1
  C  203  1  0.06853400  0.62988900  0.33333333  1
  C  204  1  0.06851100  0.68095100  0.38389200  1
  C  205  1  0.95944800  0.68145300  0.38342800  1
  C  206  1  0.95946100  0.63045700  0.33283100  1
  C  211  1  0.02444300  0.34559000  0.66866600  1
  C  212  1  0.03512700  0.33333333  0.65501900  1
  C  213  1  0.05631300  0.33297500  0.65521400  1
  C  214  1  0.06643600  0.34553400  0.66860300  1
  C  215  1  0.05638700  0.35819700  0.68193400  1
  C  216  1  0.03520500  0.35828300  0.68186400  1
  C  217  1  0.02407600  0.32259000  0.64074400  1
  C  218  1  0.02422000  0.37154800  0.69387000  1
  C  220  1  0.00308400  0.34558000  0.66872900  1
  C  221  1  0.99231800  0.33333333  0.65512700  1
  C  222  1  0.97112700  0.33294000  0.65546500  1
  C  223  1  0.96110900  0.34549800  0.66894600  1
  C  224  1  0.97123100  0.35819400  0.68218600  1
  C  225  1  0.99240900  0.35827600  0.68199500  1
  C  226  1  0.00330400  0.32262800  0.64077100  1
  C  228  1  0.00346300  0.37154900  0.69392700  1
  C  233  1  0.06837800  0.37028600  0.69461100  1
  C  234  1  0.06822400  0.32055600  0.64275500  1
  C  235  1  0.95909500  0.32059400  0.64300800  1
  C  236  1  0.95930600  0.37036700  0.69484800  1
  C  241  1  0.35830400  0.98967500  0.35824000  1
  C  242  1  0.37170800  0.97905800  0.34564700  1
  C  243  1  0.37168400  0.95787800  0.34538300  1
  C  244  1  0.35865100  0.94767600  0.35824000  1
  C  245  1  0.34548300  0.95766700  0.37112400  1
  C  246  1  0.34543700  0.97885200  0.37121300  1
  C  247  1  0.38558200  0.99017600  0.33447700  1
  C  248  1  0.33365300  0.98978400  0.38472000  1
  C  250  1  0.35815900  0.01103000  0.35825200  1
  C  251  1  0.37141400  0.02184900  0.34567000  1
  C  252  1  0.37108500  0.04303100  0.34542400  1
  C  253  1  0.35792100  0.05302500  0.35830900  1
  C  254  1  0.34492000  0.04283600  0.37120400  1
  C  255  1  0.34515300  0.02165400  0.37125200  1
  C  256  1  0.38543700  0.01093400  0.33448700  1
  C  258  1  0.33351600  0.01054500  0.38474000  1
  C  263  1  0.33302200  0.94562000  0.38337300  1
  C  264  1  0.38401100  0.94607000  0.33275800  1
  C  265  1  0.38326700  0.05504900  0.33284800  1
  C  266  1  0.33235700  0.05469800  0.38352200  1
  C  271  1  0.66880600  0.98994700  0.66907400  1
  C  272  1  0.65600400  0.97916100  0.68215400  1
  C  273  1  0.65614700  0.95797500  0.68225600  1
  C  274  1  0.66893500  0.94794800  0.66902300  1
  C  275  1  0.68162900  0.95809900  0.65579000  1
  C  276  1  0.68133300  0.97928300  0.65564200  1
  C  277  1  0.64256900  0.99012000  0.69398900  1
  C  278  1  0.69237800  0.99034600  0.64161900  1
  C  280  1  0.66865900  0.01130700  0.66900700  1
  C  281  1  0.65570000  0.02196500  0.68202700  1
  C  282  1  0.65555700  0.04314600  0.68202300  1
  C  283  1  0.66820000  0.05329900  0.66874800  1
  C  284  1  0.68103900  0.04328300  0.65554500  1
  C  285  1  0.68102500  0.02209100  0.65551100  1
  C  286  1  0.64242100  0.01087800  0.69392500  1
  C  288  1  0.69222700  0.01111200  0.64155100  1
  C  293  1  0.69404400  0.94621600  0.64332100  1
  C  294  1  0.64395600  0.94595300  0.69482000  1
  C  295  1  0.64324300  0.05503200  0.69457800  1
  C  296  1  0.69324600  0.05532100  0.64298500  1
  C  301  1  0.35841100  0.01129600  0.66902300  1
  C  302  1  0.37156700  0.02201200  0.68179400  1
  C  303  1  0.37158000  0.04319600  0.68183000  1
  C  304  1  0.35870300  0.05329200  0.66873900  1
  C  305  1  0.34573100  0.04320800  0.65572800  1
  C  306  1  0.34578200  0.02202200  0.65573100  1
  C  307  1  0.38516100  0.01098200  0.69338300  1
  C  308  1  0.33436700  0.01099300  0.64199000  1
  C  310  1  0.35830400  0.98993800  0.66913600  1
  C  311  1  0.37135300  0.97921100  0.68201700  1
  C  312  1  0.37116700  0.95802800  0.68226100  1
  C  313  1  0.35817900  0.94794500  0.66926700  1
  C  314  1  0.34531200  0.95803600  0.65615700  1
  C  315  1  0.34556600  0.97921900  0.65594900  1
  C  316  1  0.38506400  0.99022400  0.69348500  1
  C  318  1  0.33426000  0.99023000  0.64210000  1
  C  323  1  0.33333333  0.05516400  0.64331400  1
  C  324  1  0.38390500  0.05513000  0.69433000  1
  C  325  1  0.38344000  0.94606700  0.69480400  1
  C  326  1  0.33282200  0.94609300  0.64382800  1
  C  331  1  0.66868100  0.01107200  0.35893900  1
  C  332  1  0.65503700  0.02175400  0.34666000  1
  C  333  1  0.65522100  0.04293900  0.34632900  1
  C  334  1  0.66860300  0.05306500  0.35889400  1
  C  335  1  0.68193500  0.04301700  0.37155700  1
  C  336  1  0.68187300  0.02183500  0.37163800  1
  C  337  1  0.64077200  0.01070100  0.33592400  1
  C  338  1  0.69387900  0.01085100  0.38490200  1
  C  340  1  0.66875000  0.98971300  0.35892600  1
  C  341  1  0.65515600  0.97894500  0.34665400  1
  C  342  1  0.65549300  0.95775300  0.34628100  1
  C  343  1  0.66897100  0.94773700  0.35884200  1
  C  344  1  0.68220700  0.95786200  0.37154300  1
  C  345  1  0.68201400  0.97903900  0.37162500  1
  C  346  1  0.64080300  0.98993000  0.33595900  1
  C  348  1  0.69394200  0.99009400  0.38490100  1
  C  353  1  0.69460900  0.05500900  0.38364800  1
  C  354  1  0.64276200  0.05484800  0.33391000  1
  C  355  1  0.64303900  0.94572100  0.33393400  1
  C  356  1  0.69486800  0.94593800  0.38371800  1
  C  361  1  0.85225800  0.83888300  0.50320200  1
  C  362  1  0.83958600  0.85201000  0.49234000  1
  C  363  1  0.84024900  0.85236500  0.47118200  1
  C  364  1  0.85376000  0.83986700  0.46119400  1
  C  365  1  0.86619000  0.82655300  0.47151900  1
  C  366  1  0.86554900  0.82611100  0.49266800  1
  C  367  1  0.82727100  0.86514000  0.50316800  1
  C  368  1  0.87854400  0.81392400  0.50379800  1
  C  370  1  0.85208100  0.83895800  0.52453400  1
  C  371  1  0.83922900  0.85217200  0.53506900  1
  C  372  1  0.83956000  0.85271200  0.55622300  1
  C  373  1  0.85287400  0.84028400  0.56655500  1
  C  374  1  0.86545700  0.82685200  0.55656200  1
  C  375  1  0.86518800  0.82626700  0.53539900  1
  C  376  1  0.82707200  0.86519500  0.52394300  1
  C  378  1  0.87837600  0.81401000  0.52457600  1
  C  383  1  0.87903800  0.81437400  0.45996700  1
  C  384  1  0.82813300  0.86499500  0.45930300  1
  C  385  1  0.82727700  0.86547000  0.56776100  1
  C  386  1  0.87809700  0.81475000  0.56844500  1
  C  391  1  0.17552400  0.16243400  0.50298200  1
  C  392  1  0.18805700  0.14903600  0.49229800  1
  C  393  1  0.18727600  0.14831600  0.47115500  1
  C  394  1  0.17379200  0.16071000  0.46100200  1
  C  395  1  0.16152700  0.17429600  0.47115800  1
  C  396  1  0.16231000  0.17514800  0.49228500  1
  C  397  1  0.20035800  0.13603700  0.50329900  1
  C  398  1  0.14955800  0.18773300  0.50324500  1
  C  400  1  0.17576500  0.16269700  0.52430800  1
  C  401  1  0.18853100  0.14955300  0.53502900  1
  C  402  1  0.18819400  0.14931800  0.55619200  1
  C  403  1  0.17491600  0.16193100  0.56635100  1
  C  404  1  0.16246000  0.17530800  0.55614400  1
  C  405  1  0.16279300  0.17567000  0.53498900  1
  C  406  1  0.20059700  0.13629900  0.52407500  1
  C  408  1  0.14981800  0.18800900  0.52401400  1
  C  413  1  0.14872200  0.18637300  0.45948100  1
  C  414  1  0.19935500  0.13551200  0.45944700  1
  C  415  1  0.20040700  0.13664900  0.56789400  1
  C  416  1  0.14975800  0.18753200  0.56777900  1
  C  421  1  0.17530200  0.83911500  0.52427000  1
  C  422  1  0.18811300  0.85231800  0.53486600  1
  C  423  1  0.18765400  0.85287200  0.55601600  1
  C  424  1  0.17431600  0.84042600  0.56628400  1
  C  425  1  0.16176800  0.82701000  0.55622900  1
  C  426  1  0.16211400  0.82645200  0.53506800  1
  C  427  1  0.20036400  0.86530700  0.52380100  1
  C  428  1  0.14891400  0.81426900  0.52417700  1
  C  430  1  0.17526400  0.83900600  0.50294000  1
  C  431  1  0.18804500  0.85208000  0.49214200  1
  C  432  1  0.18752600  0.85238800  0.47098300  1
  C  433  1  0.17410300  0.83986100  0.46091900  1
  C  434  1  0.16156300  0.82660500  0.47118200  1
  C  435  1  0.16201900  0.82624300  0.49233800  1
  C  436  1  0.20031600  0.86520300  0.50302700  1
  C  438  1  0.14887500  0.81415700  0.50340300  1
  C  443  1  0.14917800  0.81479600  0.56804700  1
  C  444  1  0.19987500  0.86562600  0.56761600  1
  C  445  1  0.19975700  0.86494700  0.45916600  1
  C  446  1  0.14887700  0.81432500  0.45956300  1
  C  451  1  0.85143300  0.16280200  0.52420700  1
  C  452  1  0.83823900  0.15008500  0.53492200  1
  C  453  1  0.83818000  0.15023700  0.55609200  1
  C  454  1  0.85143600  0.16287700  0.56626800  1
  C  455  1  0.86427700  0.17590300  0.55606200  1
  C  456  1  0.86441800  0.17575300  0.53490000  1
  C  457  1  0.82616000  0.13684300  0.52396800  1
  C  458  1  0.87792000  0.18752000  0.52394100  1
  C  460  1  0.85207300  0.16214500  0.50289400  1
  C  461  1  0.83950100  0.14879100  0.49220600  1
  C  462  1  0.84060800  0.14774700  0.47108700  1
  C  463  1  0.85439300  0.15984200  0.46096800  1
  C  464  1  0.86671400  0.17338500  0.47111300  1
  C  465  1  0.86568300  0.17445200  0.49222100  1
  C  466  1  0.82679900  0.13618200  0.50320700  1
  C  468  1  0.87857600  0.18686800  0.50320100  1
  C  473  1  0.87686200  0.18829900  0.56768900  1
  C  474  1  0.82577600  0.13772500  0.56777800  1
  C  475  1  0.82848700  0.13498500  0.45936400  1
  C  476  1  0.87958600  0.18543500  0.45945200  1
  C  481  1  0.50321000  0.83886500  0.85222300  1
  C  482  1  0.49234300  0.82619200  0.86534700  1
  C  483  1  0.47118500  0.82685700  0.86569900  1
  C  484  1  0.46120100  0.84037200  0.85320200  1
  C  485  1  0.47153000  0.85280200  0.83989000  1
  C  486  1  0.49267900  0.85215700  0.83944900  1
  C  487  1  0.50316800  0.81387300  0.87847600  1
  C  488  1  0.50381000  0.86514900  0.82726200  1
  C  490  1  0.52454000  0.83868600  0.85230100  1
  C  491  1  0.53507200  0.82583400  0.86551600  1
  C  492  1  0.55622600  0.82616400  0.86606000  1
  C  493  1  0.56656100  0.83947700  0.85363800  1
  C  494  1  0.55657200  0.85206100  0.84020300  1
  C  495  1  0.53541000  0.85179300  0.83961100  1
  C  496  1  0.52394300  0.81367700  0.87853800  1
  C  498  1  0.52458800  0.86498000  0.82735200  1
  C  503  1  0.45998200  0.86565300  0.82771300  1
  C  504  1  0.45930300  0.81474400  0.87832700  1
  C  505  1  0.56776000  0.81388200  0.87882500  1
  C  506  1  0.56845700  0.86470000  0.82810400  1
  C  511  1  0.50298700  0.16216000  0.17581200  1
  C  512  1  0.49229700  0.17469800  0.16242200  1
  C  513  1  0.47115400  0.17392300  0.16171300  1
  C  514  1  0.46100300  0.16044200  0.17411200  1
  C  515  1  0.47116400  0.14817400  0.18769300  1
  C  516  1  0.49229200  0.14895000  0.18853100  1
  C  517  1  0.50329400  0.18699600  0.14941500  1
  C  518  1  0.50325700  0.13619000  0.20110700  1
  C  520  1  0.52431100  0.16239400  0.17606200  1
  C  521  1  0.53502800  0.17515800  0.16291200  1
  C  522  1  0.55619000  0.17481500  0.16266600  1
  C  523  1  0.56635400  0.16153600  0.17527300  1
  C  524  1  0.55615200  0.14908200  0.18865600  1
  C  525  1  0.53499800  0.14941900  0.18902700  1
  C  526  1  0.52406900  0.18722700  0.14966500  1
  C  528  1  0.52402600  0.13644200  0.20137000  1
  C  533  1  0.45949000  0.13536800  0.19977200  1
  C  534  1  0.45944300  0.18600100  0.14891100  1
  C  535  1  0.56788800  0.18702500  0.14999000  1
  C  536  1  0.56779400  0.13638100  0.20087700  1
  C  541  1  0.52427300  0.16195500  0.85246600  1
  C  542  1  0.53486900  0.17476100  0.86567300  1
  C  543  1  0.55601800  0.17429500  0.86623300  1
  C  544  1  0.56628700  0.16095600  0.85378600  1
  C  545  1  0.55623200  0.14841500  0.84036500  1
  C  546  1  0.53507100  0.14876500  0.83980400  1
  C  547  1  0.52380600  0.18701500  0.87865900  1
  C  548  1  0.52418000  0.13557000  0.82761600  1
  C  550  1  0.50294300  0.16191800  0.85235600  1
  C  551  1  0.49214500  0.17469900  0.86543000  1
  C  552  1  0.47098700  0.17417700  0.86574200  1
  C  553  1  0.46092000  0.16075300  0.85321700  1
  C  554  1  0.47118500  0.14821600  0.83995900  1
  C  555  1  0.49234100  0.14867500  0.83959300  1
  C  556  1  0.50303000  0.18697600  0.87854900  1
  C  558  1  0.50340400  0.13553400  0.82750300  1
  C  563  1  0.56804800  0.13582300  0.82815300  1
  C  564  1  0.56761900  0.18651100  0.87899200  1
  C  565  1  0.45917100  0.18640500  0.87830600  1
  C  566  1  0.45956600  0.13552700  0.82768200  1
  C  571  1  0.52421600  0.83805800  0.17617200  1
  C  572  1  0.53493000  0.82487100  0.16344600  1
  C  573  1  0.55610000  0.82481900  0.16358700  1
  C  574  1  0.56627700  0.83807900  0.17622100  1
  C  575  1  0.55607100  0.85091000  0.18925600  1
  C  576  1  0.53490900  0.85103900  0.18912400  1
  C  577  1  0.52397200  0.81279000  0.15020600  1
  C  578  1  0.52395300  0.86452400  0.20091200  1
  C  580  1  0.50290200  0.83869100  0.17552400  1
  C  581  1  0.49221200  0.82612400  0.16216600  1
  C  582  1  0.47109300  0.82723000  0.16112700  1
  C  583  1  0.46097500  0.84101100  0.17322800  1
  C  584  1  0.47112200  0.85332500  0.18677600  1
  C  585  1  0.49223000  0.85229400  0.18784100  1
  C  586  1  0.50321100  0.81342600  0.14955200  1
  C  588  1  0.50321100  0.86517600  0.20026700  1
  C  593  1  0.56769600  0.86350400  0.20164100  1
  C  594  1  0.56778200  0.81241700  0.15107100  1
  C  595  1  0.45937000  0.81511500  0.14836200  1
  C  596  1  0.45946300  0.86619900  0.19882700  1
  C  601  1  0.85225100  0.48982800  0.85225200  1
  C  602  1  0.86537700  0.47896300  0.83957700  1
  C  603  1  0.86572900  0.45780600  0.84023800  1
  C  604  1  0.85323000  0.44781800  0.85374900  1
  C  605  1  0.83992000  0.45814400  0.86618200  1
  C  606  1  0.83948000  0.47929400  0.86554500  1
  C  607  1  0.87850600  0.48979100  0.82726200  1
  C  608  1  0.82729700  0.49042400  0.87854100  1
  C  610  1  0.85233100  0.51115800  0.85207800  1
  C  611  1  0.86554300  0.52169200  0.83922500  1
  C  612  1  0.86608600  0.54284600  0.83955700  1
  C  613  1  0.85366300  0.55317700  0.85287400  1
  C  614  1  0.84023100  0.54318800  0.86545700  1
  C  615  1  0.83964200  0.52202500  0.86518800  1
  C  616  1  0.87856500  0.51056500  0.82706500  1
  C  618  1  0.82738600  0.51120200  0.87837600  1
  C  623  1  0.82774100  0.44659300  0.87902900  1
  C  624  1  0.87835600  0.44592600  0.82812200  1
  C  625  1  0.87884300  0.55438400  0.82727300  1
  C  626  1  0.82813200  0.55507100  0.87809800  1
  C  631  1  0.17581700  0.48960600  0.17553400  1
  C  632  1  0.16241000  0.47893000  0.18806600  1
  C  633  1  0.16166500  0.45778800  0.18727100  1
  C  634  1  0.17404200  0.44762900  0.17377500  1
  C  635  1  0.18763800  0.45777600  0.16151400  1
  C  636  1  0.18851500  0.47890300  0.16231200  1
  C  637  1  0.14943000  0.48993800  0.20038000  1
  C  638  1  0.20111100  0.48985800  0.14956500  1
  C  640  1  0.17610400  0.51093100  0.17578900  1
  C  641  1  0.16297800  0.52166100  0.18856800  1
  C  642  1  0.16276700  0.54282500  0.18824300  1
  C  643  1  0.17538100  0.55297700  0.17495900  1
  C  644  1  0.18874200  0.54276000  0.16249300  1
  C  645  1  0.18908400  0.52160600  0.16282000  1
  C  646  1  0.14971700  0.51071300  0.20063300  1
  C  648  1  0.20141300  0.51062500  0.14984000  1
  C  653  1  0.19970500  0.44609500  0.14870300  1
  C  654  1  0.14885700  0.44608800  0.19935200  1
  C  655  1  0.15011000  0.55453300  0.20046300  1
  C  656  1  0.20096400  0.55438300  0.14978000  1
  C  661  1  0.85249000  0.51090100  0.17531000  1
  C  662  1  0.86569200  0.52149900  0.18812200  1
  C  663  1  0.86624800  0.54264800  0.18766000  1
  C  664  1  0.85380300  0.55291600  0.17432000  1
  C  665  1  0.84038700  0.54286100  0.16177200  1
  C  666  1  0.83982900  0.52170000  0.16212000  1
  C  667  1  0.87867800  0.51043500  0.20037600  1
  C  668  1  0.82764600  0.51080800  0.14892100  1
  C  670  1  0.85238300  0.48957200  0.17527300  1
  C  671  1  0.86545600  0.47877500  0.18805500  1
  C  672  1  0.86576600  0.45761600  0.18753700  1
  C  673  1  0.85324100  0.44754900  0.17411200  1
  C  674  1  0.83998600  0.45781400  0.16157000  1
  C  675  1  0.83962100  0.47896900  0.16202600  1
  C  676  1  0.87857600  0.48966000  0.20033000  1
  C  678  1  0.82753400  0.49003200  0.14888400  1
  C  683  1  0.82817400  0.55467700  0.14918100  1
  C  684  1  0.87900100  0.55424800  0.19988100  1
  C  685  1  0.87832600  0.44579900  0.19976800  1
  C  686  1  0.82770800  0.44619300  0.14888400  1
  C  691  1  0.17619100  0.51084000  0.85142000  1
  C  692  1  0.16347600  0.52155500  0.83822600  1
  C  693  1  0.16362900  0.54272500  0.83816500  1
  C  694  1  0.17627000  0.55290100  0.85142000  1
  C  695  1  0.18929800  0.54269600  0.86426100  1
  C  696  1  0.18914300  0.52153300  0.86440300  1
  C  697  1  0.15023400  0.51060100  0.82614500  1
  C  698  1  0.20090900  0.51057400  0.87790700  1
  C  700  1  0.17553300  0.48952800  0.85206200  1
  C  701  1  0.16217700  0.47883900  0.83949100  1
  C  702  1  0.16113000  0.45772000  0.84060100  1
  C  703  1  0.17322300  0.44760100  0.85438700  1
  C  704  1  0.18676800  0.45774700  0.86670700  1
  C  705  1  0.18783800  0.47885400  0.86567400  1
  C  706  1  0.14957100  0.48984000  0.82678700  1
  C  708  1  0.20025500  0.48983400  0.87856500  1
  C  713  1  0.20169700  0.55432300  0.87684100  1
  C  714  1  0.15111200  0.55441100  0.82576600  1
  C  715  1  0.14836700  0.44599900  0.82848300  1
  C  716  1  0.19881800  0.44608600  0.87957900  1
  C  721  1  0.44869600  0.21912400  0.88872900  1
  C  722  1  0.45066900  0.21947200  0.90968300  1
  C  723  1  0.43946300  0.23334100  0.92078800  1
  C  724  1  0.42650200  0.24704500  0.91151000  1
  C  725  1  0.42481700  0.24704500  0.89040500  1
  C  726  1  0.43606800  0.23305700  0.87941700  1
  C  728  1  0.41589000  0.26053200  0.92387600  1
  C  729  1  0.42614100  0.27462500  0.93552500  1
  C  730  1  0.41602300  0.28780700  0.94841600  1
  C  731  1  0.39485300  0.28703100  0.94930900  1
  C  732  1  0.38439700  0.27263300  0.93794000  1
  C  733  1  0.39502900  0.25953500  0.92539800  1
  C  753  1  0.57812400  0.78116300  0.88923100  1
  C  754  1  0.57530800  0.78030000  0.91007000  1
  C  755  1  0.58637800  0.76644300  0.92132700  1
  C  756  1  0.60006400  0.75328300  0.91230200  1
  C  757  1  0.60263900  0.75383400  0.89129300  1
  C  758  1  0.59148400  0.76777700  0.88014800  1
  C  760  1  0.61055300  0.73981900  0.92480200  1
  C  761  1  0.60027700  0.72515900  0.93570600  1
  C  762  1  0.61027500  0.71194400  0.94866300  1
  C  763  1  0.63136800  0.71326700  0.95037600  1
  C  764  1  0.64182200  0.72826100  0.93979800  1
  C  765  1  0.63130000  0.74137700  0.92718600  1
  C  785  1  0.57829200  0.21969700  0.13947500  1
  C  786  1  0.57545200  0.22051600  0.11863900  1
  C  787  1  0.58652400  0.23433600  0.10733800  1
  C  788  1  0.60023200  0.24750600  0.11631500  1
  C  789  1  0.60282900  0.24699800  0.13732500  1
  C  790  1  0.59167200  0.23309000  0.14851400  1
  C  792  1  0.61073000  0.26091900  0.10376100  1
  C  793  1  0.60045800  0.27547800  0.09271700  1
  C  794  1  0.61046300  0.28860400  0.07967400  1
  C  795  1  0.63156600  0.28732500  0.07803700  1
  C  796  1  0.64201300  0.27242000  0.08874500  1
  C  797  1  0.63148300  0.25937300  0.10142300  1
  C  817  1  0.44838900  0.78244300  0.13819800  1
  C  818  1  0.45042900  0.78197800  0.11724900  1
  C  819  1  0.43922500  0.76807800  0.10618100  1
  C  820  1  0.42622700  0.75442100  0.11548400  1
  C  821  1  0.42449000  0.75452400  0.13658400  1
  C  822  1  0.43570700  0.76857100  0.14753100  1
  C  824  1  0.41568800  0.74083400  0.10315900  1
  C  825  1  0.42601900  0.72678700  0.09152800  1
  C  826  1  0.41598000  0.71346800  0.07871700  1
  C  827  1  0.39480000  0.71404000  0.07790100  1
  C  828  1  0.38425400  0.72838900  0.08925100  1
  C  829  1  0.39481200  0.74163900  0.10169500  1
  C  849  1  0.88874100  0.43532800  0.23249000  1
  C  850  1  0.90969700  0.43728700  0.23283600  1
  C  851  1  0.92079500  0.42608200  0.24671100  1
  C  852  1  0.91151100  0.41313300  0.26042100  1
  C  853  1  0.89040500  0.41145900  0.26042200  1
  C  854  1  0.87942300  0.42271200  0.24642900  1
  C  856  1  0.92387200  0.40251900  0.27391100  1
  C  857  1  0.93552500  0.41276800  0.28799900  1
  C  858  1  0.94841300  0.40265100  0.30118400  1
  C  859  1  0.94929900  0.38147900  0.30041400  1
  C  860  1  0.93792200  0.37102300  0.28602000  1
  C  861  1  0.92538300  0.38165600  0.27292100  1
  C  881  1  0.88925300  0.56473800  0.79454900  1
  C  882  1  0.91009800  0.56195700  0.79371000  1
  C  883  1  0.92134800  0.57302800  0.77984700  1
  C  884  1  0.91231100  0.58668000  0.76666000  1
  C  885  1  0.89129600  0.58921700  0.76718700  1
  C  886  1  0.88015800  0.57806200  0.78113700  1
  C  888  1  0.92480500  0.59717300  0.75319500  1
  C  889  1  0.93573700  0.58689800  0.73855600  1
  C  890  1  0.94868900  0.59690100  0.72533900  1
  C  891  1  0.95037000  0.61799700  0.72664300  1
  C  892  1  0.93976200  0.62845200  0.74161500  1
  C  893  1  0.92715400  0.61792600  0.75473000  1
  C  913  1  0.13958300  0.56490500  0.23314400  1
  C  914  1  0.11874800  0.56205700  0.23395800  1
  C  915  1  0.10744000  0.57310900  0.24778700  1
  C  916  1  0.11640800  0.58680700  0.26097400  1
  C  917  1  0.13741800  0.58941200  0.26047300  1
  C  918  1  0.14861500  0.57827300  0.24655500  1
  C  920  1  0.10384500  0.59729500  0.27438800  1
  C  921  1  0.09278100  0.58701300  0.28892500  1
  C  922  1  0.07971400  0.59700500  0.30203700  1
  C  923  1  0.07807000  0.61810800  0.30076800  1
  C  924  1  0.08880400  0.62856900  0.28588800  1
  C  925  1  0.10150600  0.61804900  0.27285600  1
  C  945  1  0.13821000  0.43501600  0.79580800  1
  C  946  1  0.11726200  0.43705400  0.79534000  1
  C  947  1  0.10619700  0.42584800  0.78143700  1
  C  948  1  0.11550300  0.41285300  0.76778200  1
  C  949  1  0.13660300  0.41111900  0.76788700  1
  C  950  1  0.14754700  0.42233600  0.78193600  1
  C  952  1  0.10318100  0.40231200  0.75419200  1
  C  953  1  0.09154800  0.41264500  0.74014500  1
  C  954  1  0.07873800  0.40260500  0.72682700  1
  C  955  1  0.07792500  0.38142400  0.72739600  1
  C  956  1  0.08927700  0.37087900  0.74174400  1
  C  957  1  0.10172000  0.38143800  0.75499500  1
  C  977  1  0.23247900  0.87536500  0.44869600  1
  C  978  1  0.23282100  0.89632100  0.45064800  1
  C  979  1  0.24669600  0.90741800  0.43944100  1
  C  980  1  0.26041100  0.89813100  0.42649800  1
  C  981  1  0.26041700  0.87702500  0.42483300  1
  C  982  1  0.24642400  0.86604400  0.43608600  1
  C  984  1  0.27390100  0.91049200  0.41588200  1
  C  985  1  0.28798500  0.92215100  0.42613200  1
  C  986  1  0.30117100  0.93503700  0.41601200  1
  C  987  1  0.30040400  0.93591600  0.39484200  1
  C  988  1  0.28601400  0.92453500  0.38438500  1
  C  989  1  0.27291700  0.91199600  0.39502000  1
  C  1009  1  0.79455500  0.87588400  0.57811700  1
  C  1010  1  0.79371700  0.89672800  0.57533700  1
  C  1011  1  0.77985500  0.90798000  0.58640800  1
  C  1012  1  0.76666600  0.89894400  0.60005800  1
  C  1013  1  0.76719000  0.87792900  0.60259400  1
  C  1014  1  0.78114000  0.86679000  0.59143900  1
  C  1016  1  0.75319900  0.91143900  0.61055000  1
  C  1017  1  0.73856200  0.92237100  0.60027200  1
  C  1018  1  0.72534500  0.93532300  0.61027400  1
  C  1019  1  0.72664400  0.93700400  0.63137000  1
  C  1020  1  0.74161500  0.92639600  0.64182600  1
  C  1021  1  0.75473300  0.91378900  0.63130100  1
  C  1041  1  0.23308000  0.12612900  0.57829100  1
  C  1042  1  0.23389900  0.10529300  0.57544700  1
  C  1043  1  0.24772000  0.09399000  0.58651500  1
  C  1044  1  0.26089200  0.10296500  0.60022300  1
  C  1045  1  0.26038500  0.12397500  0.60282100  1
  C  1046  1  0.24647600  0.13516600  0.59166900  1
  C  1048  1  0.27430500  0.09040900  0.61072000  1
  C  1049  1  0.28886100  0.07936200  0.60044600  1
  C  1050  1  0.30198500  0.06631600  0.61044900  1
  C  1051  1  0.30070800  0.06467800  0.63155200  1
  C  1052  1  0.28580500  0.07538900  0.64200100  1
  C  1053  1  0.27276100  0.08807000  0.63147200  1
  C  1073  1  0.79581100  0.12483400  0.44838400  1
  C  1074  1  0.79534500  0.10388400  0.45041200  1
  C  1075  1  0.78143800  0.09282300  0.43920600  1
  C  1076  1  0.76778000  0.10213400  0.42621800  1
  C  1077  1  0.76788400  0.12323500  0.42449300  1
  C  1078  1  0.78193600  0.13417500  0.43571000  1
  C  1080  1  0.75418900  0.08981700  0.41567600  1
  C  1081  1  0.74014600  0.07817800  0.42600700  1
  C  1082  1  0.72682700  0.06536900  0.41596600  1
  C  1083  1  0.72739300  0.06456200  0.39478500  1
  C  1084  1  0.74173500  0.07592100  0.38423900  1
  C  1085  1  0.75498600  0.08836300  0.39480000  1
  C  1105  1  0.23223500  0.43502000  0.13850500  1
  C  1106  1  0.23351500  0.43837700  0.11777000  1
  C  1107  1  0.24725200  0.42723500  0.10644100  1
  C  1108  1  0.25988600  0.41296200  0.11530700  1
  C  1109  1  0.25890000  0.40981800  0.13622400  1
  C  1110  1  0.24507300  0.42104100  0.14743900  1
  C  1112  1  0.27335700  0.40253500  0.10277100  1
  C  1113  1  0.28839800  0.41280900  0.09240100  1
  C  1114  1  0.30169400  0.40288900  0.07947200  1
  C  1115  1  0.30010300  0.38185400  0.07730300  1
  C  1116  1  0.28468700  0.37142900  0.08728900  1
  C  1117  1  0.27146900  0.38188800  0.09984300  1
  C  1137  1  0.79543100  0.56498500  0.13858200  1
  C  1138  1  0.79535200  0.56331000  0.11759600  1
  C  1139  1  0.78142700  0.57444700  0.10648800  1
  C  1140  1  0.76739800  0.58704100  0.11578600  1
  C  1141  1  0.76711300  0.58840200  0.13691100  1
  C  1142  1  0.78116500  0.57723400  0.14790100  1
  C  1144  1  0.75389200  0.59763000  0.10342000  1
  C  1145  1  0.74007800  0.58734900  0.09146700  1
  C  1146  1  0.72684300  0.59746900  0.07862900  1
  C  1147  1  0.72729700  0.61866000  0.07808100  1
  C  1148  1  0.74141700  0.62915500  0.08975700  1
  C  1149  1  0.75456200  0.61852800  0.10225100  1
  C  1169  1  0.23430000  0.56407500  0.88767900  1
  C  1170  1  0.23772500  0.55843900  0.90763400  1
  C  1171  1  0.25137400  0.56948600  0.91916000  1
  C  1172  1  0.26183900  0.58592200  0.91122900  1
  C  1173  1  0.25859300  0.59141400  0.89101300  1
  C  1174  1  0.24484100  0.58028200  0.87959500  1
  C  1176  1  0.27520100  0.59627000  0.92402800  1
  C  1177  1  0.29127000  0.58631300  0.93311500  1
  C  1178  1  0.30428900  0.59606400  0.94646000  1
  C  1179  1  0.30152700  0.61675300  0.95023800  1
  C  1180  1  0.28505700  0.62679600  0.94162200  1
  C  1181  1  0.27203800  0.61642000  0.92878900  1
  C  1201  1  0.79511300  0.43590200  0.88939600  1
  C  1202  1  0.79431000  0.43851800  0.91026300  1
  C  1203  1  0.78056000  0.42726300  0.92146800  1
  C  1204  1  0.76743400  0.41359200  0.91236800  1
  C  1205  1  0.76791700  0.41122400  0.89133000  1
  C  1206  1  0.78176700  0.42255000  0.88024200  1
  C  1208  1  0.75402000  0.40296700  0.92481300  1
  C  1209  1  0.73942400  0.41314000  0.93589600  1
  C  1210  1  0.72623100  0.40301800  0.94877900  1
  C  1211  1  0.72748400  0.38189800  0.95021100  1
  C  1212  1  0.74242600  0.37154300  0.93946400  1
  C  1213  1  0.75553600  0.38219000  0.92694600  1
  C  1233  1  0.44928000  0.87601300  0.79508800  1
  C  1234  1  0.45192800  0.89687500  0.79426300  1
  C  1235  1  0.44067600  0.90808500  0.78051200  1
  C  1236  1  0.42697500  0.89899300  0.76741000  1
  C  1237  1  0.42457400  0.87796000  0.76791700  1
  C  1238  1  0.43589900  0.86686800  0.78176500  1
  C  1240  1  0.41635500  0.91144200  0.75399500  1
  C  1241  1  0.42653000  0.92250000  0.73938100  1
  C  1242  1  0.41641400  0.93538500  0.72618700  1
  C  1243  1  0.39529600  0.93684500  0.72745400  1
  C  1244  1  0.38494100  0.92612500  0.74241700  1
  C  1245  1  0.39558200  0.91360600  0.75552800  1
  C  1265  1  0.57752200  0.87429900  0.23423900  1
  C  1266  1  0.57194900  0.89428500  0.23758300  1
  C  1267  1  0.58299200  0.90581400  0.25123100  1
  C  1268  1  0.59936900  0.89785900  0.26176900  1
  C  1269  1  0.60480100  0.87761500  0.25860300  1
  C  1270  1  0.59366500  0.86619000  0.24486000  1
  C  1272  1  0.60972000  0.91066000  0.27512500  1
  C  1273  1  0.59975400  0.91978100  0.29116900  1
  C  1274  1  0.60951300  0.93312100  0.30418800  1
  C  1275  1  0.63021200  0.93686100  0.30144700  1
  C  1276  1  0.64026200  0.92821100  0.28499900  1
  C  1277  1  0.62988300  0.91537700  0.27198500  1
  C  1297  1  0.57835600  0.12522300  0.79541000  1
  C  1298  1  0.57666800  0.10423900  0.79532700  1
  C  1299  1  0.58780000  0.09312700  0.78140100  1
  C  1300  1  0.60040300  0.10242000  0.76737800  1
  C  1301  1  0.60177800  0.12354500  0.76709700  1
  C  1302  1  0.59061300  0.13453900  0.78115000  1
  C  1304  1  0.61098900  0.09005000  0.75387100  1
  C  1305  1  0.60070500  0.07810600  0.74005300  1
  C  1306  1  0.61081900  0.06526500  0.72681800  1
  C  1307  1  0.63201000  0.06470600  0.72727600  1
  C  1308  1  0.64250800  0.07637300  0.74140100  1
  C  1309  1  0.63188500  0.08887000  0.75454700  1
  C  1329  1  0.44843200  0.12517700  0.23231000  1
  C  1330  1  0.45177800  0.10444000  0.23358700  1
  C  1331  1  0.44062800  0.09311500  0.24732000  1
  C  1332  1  0.42635800  0.10198500  0.25995400  1
  C  1333  1  0.42322600  0.12290400  0.25897200  1
  C  1334  1  0.43445700  0.13411600  0.24514700  1
  C  1336  1  0.41592400  0.08945000  0.27341900  1
  C  1337  1  0.42619200  0.07906200  0.28845300  1
  C  1338  1  0.41626900  0.06612300  0.30173400  1
  C  1339  1  0.39523200  0.06396400  0.30014200  1
  C  1340  1  0.38481000  0.07396900  0.28473600  1
  C  1341  1  0.39527600  0.08653300  0.27153100  1
  C  1361  1  0.88769000  0.22090100  0.57745800  1
  C  1362  1  0.90765100  0.22430700  0.57184000  1
  C  1363  1  0.91917700  0.23795300  0.58289100  1
  C  1364  1  0.91123800  0.24843200  0.59931400  1
  C  1365  1  0.89101500  0.24520200  0.60478900  1
  C  1366  1  0.87959700  0.23145500  0.59365200  1
  C  1368  1  0.92403700  0.26178800  0.60966900  1
  C  1369  1  0.93313500  0.27785400  0.59971500  1
  C  1370  1  0.94647600  0.29087000  0.60947600  1
  C  1371  1  0.95024000  0.28810900  0.63016700  1
  C  1372  1  0.94161600  0.27164100  0.64020400  1
  C  1373  1  0.92878400  0.25862600  0.62982200  1
  C  1393  1  0.88940200  0.78174800  0.44926900  1
  C  1394  1  0.91027000  0.78094300  0.45188300  1
  C  1395  1  0.92147300  0.76719000  0.44062800  1
  C  1396  1  0.91237100  0.75406300  0.42696000  1
  C  1397  1  0.89133300  0.75454700  0.42459400  1
  C  1398  1  0.88024600  0.76839900  0.43592000  1
  C  1400  1  0.92481400  0.74064600  0.41633600  1
  C  1401  1  0.93590100  0.72605300  0.42651100  1
  C  1402  1  0.94878200  0.71285700  0.41639100  1
  C  1403  1  0.95021300  0.71410400  0.39527100  1
  C  1404  1  0.93946200  0.72904300  0.38491300  1
  C  1405  1  0.92694400  0.74215600  0.39555800  1
  C  1425  1  0.13853300  0.21891000  0.44841700  1
  C  1426  1  0.11779600  0.22018400  0.45176000  1
  C  1427  1  0.10647100  0.23391900  0.44061100  1
  C  1428  1  0.11534400  0.24655800  0.42634600  1
  C  1429  1  0.13626400  0.24557800  0.42321700  1
  C  1430  1  0.14747400  0.23175100  0.43444500  1
  C  1432  1  0.10281000  0.26002700  0.41591300  1
  C  1433  1  0.09242400  0.27505900  0.42618400  1
  C  1434  1  0.07948800  0.28834500  0.41626300  1
  C  1435  1  0.07733200  0.28675800  0.39522500  1
  C  1436  1  0.08733600  0.27135300  0.38480100  1
  C  1437  1  0.09989600  0.25814400  0.39526400  1
  C  1457  1  0.13857800  0.78205200  0.57835300  1
  C  1458  1  0.11759200  0.78197400  0.57667500  1
  C  1459  1  0.10648300  0.76804900  0.58781100  1
  C  1460  1  0.11578000  0.75402100  0.60040600  1
  C  1461  1  0.13690600  0.75373700  0.60177100  1
  C  1462  1  0.14789700  0.76778900  0.59060200  1
  C  1464  1  0.10341300  0.74051600  0.61099600  1
  C  1465  1  0.09146200  0.72670200  0.60071700  1
  C  1466  1  0.07862200  0.71346900  0.61083700  1
  C  1467  1  0.07807200  0.71392600  0.63202800  1
  C  1468  1  0.08974700  0.72804700  0.64252300  1
  C  1469  1  0.10224200  0.74119100  0.63189400  1
  C  1489  1  0.57789700  0.77965800  0.14054900  1
  C  1490  1  0.57444700  0.77845500  0.11982600  1
  C  1491  1  0.58537600  0.76461600  0.10840200  1
  C  1492  1  0.59957400  0.75180800  0.11714100  1
  C  1493  1  0.60279000  0.75270400  0.13805700  1
  C  1494  1  0.59174500  0.76660600  0.14937800  1
  C  1496  1  0.61003600  0.73847700  0.10444000  1
  C  1497  1  0.59982200  0.72363600  0.09371600  1
  C  1498  1  0.60978800  0.71064700  0.08049800  1
  C  1499  1  0.63081800  0.71233400  0.07834700  1
  C  1500  1  0.64118700  0.72754200  0.08871000  1
  C  1501  1  0.63068600  0.74044500  0.10156300  1
  C  1521  1  0.44875300  0.21861500  0.13838000  1
  C  1522  1  0.45091700  0.21899200  0.11744500  1
  C  1523  1  0.43970200  0.23277900  0.10624700  1
  C  1524  1  0.42655400  0.24638100  0.11541300  1
  C  1525  1  0.42467800  0.24635600  0.13650300  1
  C  1526  1  0.43592700  0.23243900  0.14758300  1
  C  1528  1  0.41597000  0.25981500  0.10296500  1
  C  1529  1  0.42624100  0.27394100  0.09137600  1
  C  1530  1  0.41614800  0.28712600  0.07846900  1
  C  1531  1  0.39498400  0.28632100  0.07750300  1
  C  1532  1  0.38450900  0.27187800  0.08879800  1
  C  1533  1  0.39511700  0.25877000  0.10134500  1
  C  1553  1  0.44873200  0.78210400  0.88898400  1
  C  1554  1  0.45066100  0.78191400  0.90994800  1
  C  1555  1  0.43948200  0.76808700  0.92113700  1
  C  1556  1  0.42659000  0.75426100  0.91194200  1
  C  1557  1  0.42495800  0.75409400  0.89083300  1
  C  1558  1  0.43617400  0.76804800  0.87976200  1
  C  1560  1  0.41601900  0.74080000  0.92438200  1
  C  1561  1  0.42631000  0.72681400  0.93612200  1
  C  1562  1  0.41622300  0.71358100  0.94898800  1
  C  1563  1  0.39504200  0.71419800  0.94977400  1
  C  1564  1  0.38454400  0.72851000  0.93833700  1
  C  1565  1  0.39514300  0.74165600  0.92581800  1
  C  1585  1  0.57823100  0.21917300  0.88929400  1
  C  1586  1  0.57551600  0.22001000  0.91014700  1
  C  1587  1  0.58670800  0.23379000  0.92137300  1
  C  1588  1  0.60040900  0.24690400  0.91230200  1
  C  1589  1  0.60287600  0.24638700  0.89127900  1
  C  1590  1  0.59160800  0.23251200  0.88016600  1
  C  1592  1  0.61098300  0.26032300  0.92477100  1
  C  1593  1  0.60077000  0.27496000  0.93576300  1
  C  1594  1  0.61084200  0.28814000  0.94869200  1
  C  1595  1  0.63194600  0.28681800  0.95027100  1
  C  1596  1  0.64233700  0.27183800  0.93961400  1
  C  1597  1  0.63174000  0.25874400  0.92704100  1
  C  1617  1  0.14058000  0.56452600  0.79301000  1
  C  1618  1  0.11985600  0.56107300  0.79181200  1
  C  1619  1  0.10842700  0.57200500  0.77797800  1
  C  1620  1  0.11716200  0.58620800  0.76517200  1
  C  1621  1  0.13807800  0.58942500  0.76606400  1
  C  1622  1  0.14940300  0.57837800  0.77996000  1
  C  1624  1  0.10445600  0.59667200  0.75184800  1
  C  1625  1  0.09372800  0.58646000  0.73700900  1
  C  1626  1  0.08050600  0.59642700  0.72402200  1
  C  1627  1  0.07835500  0.61745700  0.72571400  1
  C  1628  1  0.08872200  0.62782300  0.74092100  1
  C  1629  1  0.10157900  0.61732200  0.75381900  1
  C  1649  1  0.13835200  0.43538600  0.23196900  1
  C  1650  1  0.11741800  0.43756100  0.23236300  1
  C  1651  1  0.10622600  0.42634800  0.24615500  1
  C  1652  1  0.11539700  0.41319200  0.25974800  1
  C  1653  1  0.13648500  0.41130900  0.25970800  1
  C  1654  1  0.14755900  0.42255400  0.24578500  1
  C  1656  1  0.10295300  0.40260800  0.27318400  1
  C  1657  1  0.09136100  0.41287800  0.28731000  1
  C  1658  1  0.07845500  0.40278800  0.30049600  1
  C  1659  1  0.07749300  0.38162400  0.29969300  1
  C  1660  1  0.08879100  0.37114500  0.28525500  1
  C  1661  1  0.10133700  0.38175400  0.27214500  1
  C  1681  1  0.88900800  0.43535900  0.79548000  1
  C  1682  1  0.90997200  0.43728700  0.79529000  1
  C  1683  1  0.92115900  0.42610500  0.78146200  1
  C  1684  1  0.91196300  0.41321400  0.76763600  1
  C  1685  1  0.89085400  0.41158500  0.76747000  1
  C  1686  1  0.87978400  0.42280300  0.78142400  1
  C  1688  1  0.92440000  0.40264000  0.75417700  1
  C  1689  1  0.93614200  0.41292900  0.74018900  1
  C  1690  1  0.94900900  0.40283800  0.72695900  1
  C  1691  1  0.94979400  0.38165800  0.72758100  1
  C  1692  1  0.93835300  0.37116100  0.74189300  1
  C  1693  1  0.92583400  0.38176500  0.75503800  1
  C  1713  1  0.88929500  0.56485100  0.23255100  1
  C  1714  1  0.91014800  0.56213600  0.23339000  1
  C  1715  1  0.92137200  0.57332300  0.24717600  1
  C  1716  1  0.91229800  0.58702000  0.26029200  1
  C  1717  1  0.89127500  0.58948700  0.25977300  1
  C  1718  1  0.88016400  0.57822200  0.24589100  1
  C  1720  1  0.92476500  0.59759100  0.27371500  1
  C  1721  1  0.93575200  0.58737500  0.28835400  1
  C  1722  1  0.94868200  0.59744200  0.30153600  1
  C  1723  1  0.95026600  0.61854700  0.30021300  1
  C  1724  1  0.93961400  0.62894100  0.28523300  1
  C  1725  1  0.92703900  0.61834800  0.27213800  1
  C  1745  1  0.79301600  0.12719500  0.57788500  1
  C  1746  1  0.79183200  0.10646600  0.57445700  1
  C  1747  1  0.77799500  0.09504400  0.58539000  1
  C  1748  1  0.76516600  0.10379000  0.59956600  1
  C  1749  1  0.76604100  0.12471000  0.60275600  1
  C  1750  1  0.77994300  0.13602900  0.59171100  1
  C  1752  1  0.75183800  0.09109000  0.61003200  1
  C  1753  1  0.73701300  0.08034300  0.59981700  1
  C  1754  1  0.72402500  0.06712600  0.60978800  1
  C  1755  1  0.72569900  0.06499800  0.63082100  1
  C  1756  1  0.74088900  0.07538400  0.64119000  1
  C  1757  1  0.75378900  0.08823800  0.63068700  1
  C  1777  1  0.23196800  0.12498500  0.44875600  1
  C  1778  1  0.23234500  0.10405000  0.45091500  1
  C  1779  1  0.24613300  0.09285400  0.43970200  1
  C  1780  1  0.25973900  0.10202300  0.42655900  1
  C  1781  1  0.25971500  0.12311200  0.42468700  1
  C  1782  1  0.24579700  0.13419000  0.43593800  1
  C  1784  1  0.27317200  0.08957600  0.41597300  1
  C  1785  1  0.28729100  0.07797700  0.42624500  1
  C  1786  1  0.30047700  0.06507100  0.41615300  1
  C  1787  1  0.29967800  0.06411600  0.39498700  1
  C  1788  1  0.28524600  0.07542100  0.38451000  1
  C  1789  1  0.27213600  0.08796700  0.39512000  1
  C  1809  1  0.79549300  0.87565000  0.44873300  1
  C  1810  1  0.79530200  0.89661400  0.45066100  1
  C  1811  1  0.78147700  0.90780200  0.43947800  1
  C  1812  1  0.76765400  0.89860400  0.42658400  1
  C  1813  1  0.76748800  0.87749500  0.42495500  1
  C  1814  1  0.78144000  0.86642600  0.43617500  1
  C  1816  1  0.75419500  0.91104000  0.41600700  1
  C  1817  1  0.74020400  0.92278200  0.42629100  1
  C  1818  1  0.72697600  0.93564700  0.41619700  1
  C  1819  1  0.72760000  0.93643000  0.39501800  1
  C  1820  1  0.74191500  0.92499000  0.38452500  1
  C  1821  1  0.75506000  0.91247300  0.39513100  1
  C  1841  1  0.23254300  0.87592800  0.57821500  1
  C  1842  1  0.23336500  0.89678600  0.57552500  1
  C  1843  1  0.24715100  0.90800700  0.58671500  1
  C  1844  1  0.26028400  0.89892700  0.60039000  1
  C  1845  1  0.25978500  0.87790100  0.60283000  1
  C  1846  1  0.24590200  0.86679300  0.59156500  1
  C  1848  1  0.27370700  0.91139300  0.61096500  1
  C  1849  1  0.28832900  0.92240500  0.60075100  1
  C  1850  1  0.30151000  0.93533200  0.61082400  1
  C  1851  1  0.30020500  0.93688800  0.63193000  1
  C  1852  1  0.28524100  0.92620800  0.64232400  1
  C  1853  1  0.27214800  0.91363700  0.63172600  1
  C  1873  1  0.79550200  0.56568800  0.88875400  1
  C  1874  1  0.79526600  0.56371900  0.90971300  1
  C  1875  1  0.78142800  0.57489300  0.92089800  1
  C  1876  1  0.76764200  0.58783000  0.91170600  1
  C  1877  1  0.76754400  0.58952800  0.89060200  1
  C  1878  1  0.78149600  0.57830400  0.87953300  1
  C  1880  1  0.75414600  0.59837000  0.92414400  1
  C  1881  1  0.74010300  0.58804900  0.93579200  1
  C  1882  1  0.72687000  0.59809000  0.94869700  1
  C  1883  1  0.72753600  0.61926500  0.94962000  1
  C  1884  1  0.74189000  0.62979300  0.93825700  1
  C  1885  1  0.75503500  0.61923500  0.92569600  1
  C  1905  1  0.23145200  0.43539800  0.89002600  1
  C  1906  1  0.23229800  0.43819500  0.91087100  1
  C  1907  1  0.24619700  0.42715800  0.92211100  1
  C  1908  1  0.25942100  0.41355800  0.91305100  1
  C  1909  1  0.25890300  0.41102600  0.89203700  1
  C  1910  1  0.24490200  0.42212200  0.88091900  1
  C  1912  1  0.27296900  0.40312600  0.92549200  1
  C  1913  1  0.28765800  0.41345400  0.93630100  1
  C  1914  1  0.30109000  0.40347600  0.94904600  1
  C  1915  1  0.29995200  0.38236100  0.95062000  1
  C  1916  1  0.28490900  0.37185800  0.94016200  1
  C  1917  1  0.27157500  0.38235900  0.92777100  1
  C  1937  1  0.79496300  0.43589400  0.13847300  1
  C  1938  1  0.79445000  0.43810500  0.11754800  1
  C  1939  1  0.78057600  0.42692900  0.10642000  1
  C  1940  1  0.76704900  0.41375200  0.11565500  1
  C  1941  1  0.76722500  0.41182000  0.13673800  1
  C  1942  1  0.78120400  0.42305500  0.14775000  1
  C  1944  1  0.75357400  0.40314900  0.10327600  1
  C  1945  1  0.73928100  0.41338200  0.09186100  1
  C  1946  1  0.72606600  0.40326600  0.07900300  1
  C  1947  1  0.72701100  0.38211100  0.07792000  1
  C  1948  1  0.74163300  0.37168100  0.08903000  1
  C  1949  1  0.75476000  0.38231600  0.10153300  1
  C  1969  1  0.23357800  0.56505500  0.13950100  1
  C  1970  1  0.23527800  0.56097900  0.11893000  1
  C  1971  1  0.24906200  0.57189900  0.10744500  1
  C  1972  1  0.26132500  0.58668600  0.11599000  1
  C  1973  1  0.25988000  0.59058700  0.13675800  1
  C  1974  1  0.24603200  0.57955100  0.14814200  1
  C  1976  1  0.27478700  0.59692800  0.10327000  1
  C  1977  1  0.29004700  0.58657900  0.09329100  1
  C  1978  1  0.30323100  0.59628900  0.08008500  1
  C  1979  1  0.30133100  0.61721500  0.07723200  1
  C  1980  1  0.28569800  0.62769800  0.08681900  1
  C  1981  1  0.27258400  0.61743400  0.09964300  1
  C  2001  1  0.57844100  0.12607800  0.23350200  1
  C  2002  1  0.57455900  0.10545600  0.23504500  1
  C  2003  1  0.58548900  0.09399500  0.24884200  1
  C  2004  1  0.60009100  0.10261300  0.26127300  1
  C  2005  1  0.60379000  0.12342700  0.25999100  1
  C  2006  1  0.59274800  0.13478500  0.24612700  1
  C  2008  1  0.61035000  0.08991600  0.27474200  1
  C  2009  1  0.59998100  0.07979200  0.28989200  1
  C  2010  1  0.60971100  0.06660800  0.30308200  1
  C  2011  1  0.63066700  0.06391400  0.30129100  1
  C  2012  1  0.64117800  0.07365800  0.28577500  1
  C  2013  1  0.63089800  0.08646900  0.27265800  1
  C  2033  1  0.44926600  0.12511400  0.79493900  1
  C  2034  1  0.45149800  0.10419200  0.79441600  1
  C  2035  1  0.44032700  0.09305700  0.78054400  1
  C  2036  1  0.42713400  0.10228400  0.76702700  1
  C  2037  1  0.42517800  0.12336400  0.76721300  1
  C  2038  1  0.43640900  0.13438300  0.78119000  1
  C  2040  1  0.41653600  0.08989900  0.75355200  1
  C  2041  1  0.42677300  0.07850100  0.73924900  1
  C  2042  1  0.41666100  0.06564000  0.72603200  1
  C  2043  1  0.39550700  0.06453700  0.72698900  1
  C  2044  1  0.38507500  0.07562700  0.74162200  1
  C  2045  1  0.39570500  0.08813400  0.75475000  1
  C  2065  1  0.44877400  0.87664500  0.23146000  1
  C  2066  1  0.45157700  0.89748800  0.23230500  1
  C  2067  1  0.44054100  0.90873000  0.24620300  1
  C  2068  1  0.42693500  0.89967600  0.25942400  1
  C  2069  1  0.42439800  0.87866200  0.25890600  1
  C  2070  1  0.43549200  0.86754200  0.24490700  1
  C  2072  1  0.41650400  0.91212100  0.27296900  1
  C  2073  1  0.42683100  0.92292800  0.28766000  1
  C  2074  1  0.41685300  0.93567500  0.30108900  1
  C  2075  1  0.39573800  0.93725300  0.29994700  1
  C  2076  1  0.38523700  0.92679700  0.28490300  1
  C  2077  1  0.39573600  0.91440200  0.27157000  1
  C  2097  1  0.57907700  0.87535800  0.79547800  1
  C  2098  1  0.57708800  0.89631500  0.79523300  1
  C  2099  1  0.58825700  0.90750600  0.78139500  1
  C  2100  1  0.60121000  0.89832200  0.76761700  1
  C  2101  1  0.60292800  0.87721800  0.76752900  1
  C  2102  1  0.59170800  0.86614400  0.78148200  1
  C  2104  1  0.61174200  0.91076400  0.75412100  1
  C  2105  1  0.60141700  0.92239700  0.74006900  1
  C  2106  1  0.61145300  0.93530800  0.72683600  1
  C  2107  1  0.63262600  0.93625000  0.72751100  1
  C  2108  1  0.64315800  0.92490300  0.74187500  1
  C  2109  1  0.63260600  0.91233800  0.75502000  1
  C  2129  1  0.13846200  0.78157800  0.44927000  1
  C  2130  1  0.11753500  0.78107300  0.45146800  1
  C  2131  1  0.10640900  0.76719600  0.44029400  1
  C  2132  1  0.11564800  0.75365900  0.42713100  1
  C  2133  1  0.13673200  0.75382500  0.42521100  1
  C  2134  1  0.14774200  0.76780900  0.43644600  1
  C  2136  1  0.10327200  0.74018200  0.41652600  1
  C  2137  1  0.09184800  0.72589500  0.42675800  1
  C  2138  1  0.07899700  0.71267600  0.41663900  1
  C  2139  1  0.07792800  0.71361200  0.39548400  1
  C  2140  1  0.08904500  0.72822700  0.38505400  1
  C  2141  1  0.10154200  0.74135800  0.39569000  1
  C  2161  1  0.13946700  0.22015400  0.57843300  1
  C  2162  1  0.11886100  0.22175200  0.57448700  1
  C  2163  1  0.10739300  0.23554700  0.58541300  1
  C  2164  1  0.11598900  0.24792100  0.60007800  1
  C  2165  1  0.13678800  0.24658300  0.60384400  1
  C  2166  1  0.14815300  0.23272300  0.59280500  1
  C  2168  1  0.10328600  0.26138900  0.61033000  1
  C  2169  1  0.09321100  0.27657600  0.59996800  1
  C  2170  1  0.08002000  0.28976600  0.60969000  1
  C  2171  1  0.07727200  0.28793800  0.63063700  1
  C  2172  1  0.08696300  0.27238200  0.64113900  1
  C  2173  1  0.09977800  0.25926500  0.63086400  1
  C  2193  1  0.88874800  0.78212100  0.57905900  1
  C  2194  1  0.90970600  0.78188000  0.57708700  1
  C  2195  1  0.92089000  0.76804100  0.58826000  1
  C  2196  1  0.91169900  0.75425600  0.60120000  1
  C  2197  1  0.89059300  0.75416300  0.60290000  1
  C  2198  1  0.87952500  0.76811600  0.59167800  1
  C  2200  1  0.92413500  0.74075900  0.61173800  1
  C  2201  1  0.93578000  0.72671400  0.60141700  1
  C  2202  1  0.94868500  0.71348100  0.61146000  1
  C  2203  1  0.94961100  0.71414900  0.63263400  1
  C  2204  1  0.93825200  0.72850700  0.64316100  1
  C  2205  1  0.92569000  0.74165000  0.63260300  1
  C  2225  1  0.89003700  0.21806900  0.44876900  1
  C  2226  1  0.91088300  0.21890400  0.45155500  1
  C  2227  1  0.92212200  0.23280500  0.44051700  1
  C  2228  1  0.91306000  0.24604100  0.42692900  1
  C  2229  1  0.89204500  0.24553500  0.42441200  1
  C  2230  1  0.88092800  0.23153200  0.43550600  1
  C  2232  1  0.92550100  0.25958900  0.41649800  1
  C  2233  1  0.93632000  0.27427100  0.42682600  1
  C  2234  1  0.94906200  0.28770300  0.41684800  1
  C  2235  1  0.95062600  0.28657300  0.39573200  1
  C  2236  1  0.94015800  0.27153900  0.38522800  1
  C  2237  1  0.92776600  0.25820300  0.39572900  1
  N  737  1  0.42706100  0.30034300  0.95983500  1
  N  740  1  0.36338800  0.27186000  0.93908300  1
  N  741  1  0.46439200  0.20653700  0.91901700  1
  N  742  1  0.41332400  0.26026500  0.88026500  1
  N  749  1  0.45972200  0.20658700  0.87709400  1
  N  751  1  0.38420500  0.29956400  0.96139200  1
  N  769  1  0.59919300  0.69884100  0.95938100  1
  N  772  1  0.66273900  0.72961600  0.94178200  1
  N  773  1  0.56093900  0.79274800  0.91908600  1
  N  774  1  0.61491700  0.74117900  0.88135500  1
  N  781  1  0.56727500  0.79371300  0.87745500  1
  N  783  1  0.64193500  0.70066300  0.96246800  1
  N  801  1  0.59937200  0.30156600  0.06879400  1
  N  804  1  0.66293700  0.27107500  0.08681900  1
  N  805  1  0.56105800  0.20806600  0.10966900  1
  N  806  1  0.61512500  0.25966700  0.14722200  1
  N  813  1  0.56742600  0.20720100  0.15128500  1
  N  815  1  0.64215900  0.29989200  0.06592200  1
  N  833  1  0.42709700  0.70099900  0.06730200  1
  N  836  1  0.36323400  0.72894800  0.08820300  1
  N  837  1  0.46425100  0.79478700  0.10788400  1
  N  838  1  0.41300800  0.74133100  0.14677200  1
  N  845  1  0.45945700  0.79494300  0.14984300  1
  N  847  1  0.38422200  0.70134100  0.06592300  1
  N  865  1  0.95983700  0.41368700  0.31371700  1
  N  868  1  0.93905600  0.35001300  0.28525500  1
  N  869  1  0.91903800  0.45100200  0.21989600  1
  N  870  1  0.88026000  0.39997800  0.27364700  1
  N  877  1  0.87711100  0.44635500  0.21994900  1
  N  879  1  0.96138100  0.37083100  0.31294500  1
  N  897  1  0.95943000  0.58582100  0.71225500  1
  N  900  1  0.94171200  0.64937400  0.74294500  1
  N  901  1  0.91912700  0.54762000  0.80618300  1
  N  902  1  0.88134900  0.60146000  0.75450400  1
  N  909  1  0.87748300  0.55388600  0.80710200  1
  N  911  1  0.96246000  0.62856600  0.71404200  1
  N  929  1  0.06881900  0.58590500  0.31497900  1
  N  932  1  0.08687200  0.64949300  0.28455200  1
  N  933  1  0.10978500  0.54767400  0.22149100  1
  N  934  1  0.14730700  0.60169800  0.27315600  1
  N  941  1  0.15139900  0.55405300  0.22063900  1
  N  943  1  0.06590500  0.62867900  0.31331100  1
  N  961  1  0.06732000  0.41372100  0.71436000  1
  N  964  1  0.08823200  0.34985900  0.74230100  1
  N  965  1  0.10789300  0.45087400  0.80815000  1
  N  966  1  0.14679400  0.39963800  0.75469500  1
  N  973  1  0.14985300  0.44608500  0.80831200  1
  N  975  1  0.06594500  0.37084500  0.71469900  1
  N  993  1  0.31369900  0.94646700  0.42704600  1
  N  996  1  0.28525300  0.92566100  0.36337400  1
  N  997  1  0.21987600  0.90566600  0.46435500  1
  N  998  1  0.27364700  0.86687800  0.41335800  1
  N  1005  1  0.21993900  0.86373600  0.45972500  1
  N  1007  1  0.31293400  0.94799800  0.38419000  1
  N  1025  1  0.71226100  0.94606400  0.59919200  1
  N  1028  1  0.74294400  0.92834600  0.66274800  1
  N  1029  1  0.80619300  0.90575800  0.56100200  1
  N  1030  1  0.75450600  0.86798400  0.61483600  1
  N  1037  1  0.80710600  0.86411200  0.56726400  1
  N  1039  1  0.71404200  0.94909500  0.64193800  1
  N  1057  1  0.31494300  0.05543200  0.59935700  1
  N  1060  1  0.28446000  0.07346200  0.66292500  1
  N  1061  1  0.22144600  0.09632600  0.56105500  1
  N  1062  1  0.27305600  0.13387000  0.61511800  1
  N  1069  1  0.22058300  0.13794100  0.56742600  1
  N  1071  1  0.31327200  0.05256000  0.64214600  1
  N  1089  1  0.71436400  0.05394500  0.42708200  1
  N  1092  1  0.74228800  0.07488400  0.36322000  1
  N  1093  1  0.80815700  0.09451000  0.46422600  1
  N  1094  1  0.75468900  0.13343000  0.41302000  1
  N  1101  1  0.80831600  0.13647200  0.45945400  1
  N  1103  1  0.71469900  0.05258200  0.38420500  1
  N  1121  1  0.31512100  0.41401700  0.06920900  1
  N  1124  1  0.28300300  0.35059000  0.08479000  1
  N  1125  1  0.22162900  0.45333500  0.10895700  1
  N  1126  1  0.27105100  0.39694300  0.14603600  1
  N  1133  1  0.21985100  0.44592600  0.15037800  1
  N  1135  1  0.31285600  0.37132600  0.06533100  1
  N  1153  1  0.71455900  0.58643300  0.06694000  1
  N  1156  1  0.74184800  0.65019000  0.08897400  1
  N  1157  1  0.80860100  0.54992100  0.10821500  1
  N  1158  1  0.75356600  0.59949900  0.14706000  1
  N  1165  1  0.80798500  0.55398000  0.15022600  1
  N  1167  1  0.71469900  0.62930700  0.06606600  1
  N  1185  1  0.31857000  0.58504900  0.95564000  1
  N  1188  1  0.28206800  0.64722400  0.94576300  1
  N  1189  1  0.22782200  0.54160500  0.91541500  1
  N  1190  1  0.26856300  0.60650300  0.88192300  1
  N  1197  1  0.22185600  0.55342900  0.87570700  1
  N  1199  1  0.31415500  0.62728400  0.96240800  1
  N  1217  1  0.71322000  0.41402000  0.95969000  1
  N  1220  1  0.74373000  0.35059900  0.94117700  1
  N  1221  1  0.80669600  0.45288800  0.91936400  1
  N  1222  1  0.75527100  0.39899700  0.88131600  1
  N  1229  1  0.80756500  0.44691400  0.87766600  1
  N  1231  1  0.71486400  0.37121300  0.96219000  1
  N  1249  1  0.42741900  0.94627300  0.71315700  1
  N  1252  1  0.36400000  0.92787000  0.74373900  1
  N  1253  1  0.46632400  0.90596600  0.80662500  1
  N  1254  1  0.41231700  0.86795300  0.75529700  1
  N  1261  1  0.46029000  0.86428000  0.80753900  1
  N  1263  1  0.38461600  0.94882500  0.71483100  1
  N  1281  1  0.59849800  0.94232900  0.31844900  1
  N  1284  1  0.66070000  0.93231600  0.28203100  1
  N  1285  1  0.55516600  0.90209200  0.22761300  1
  N  1286  1  0.61983400  0.86850900  0.26864200  1
  N  1293  1  0.56687400  0.86231900  0.22180000  1
  N  1295  1  0.64074500  0.94903000  0.31407400  1
  N  1313  1  0.59978200  0.05358400  0.71452800  1
  N  1316  1  0.66354300  0.07557800  0.74183600  1
  N  1317  1  0.56327000  0.09486300  0.80857000  1
  N  1318  1  0.61288500  0.13369000  0.75355500  1
  N  1325  1  0.56735400  0.13687200  0.80796400  1
  N  1327  1  0.64265400  0.05268900  0.71467800  1
  N  1345  1  0.42739300  0.05584300  0.31515100  1
  N  1348  1  0.36397000  0.07148100  0.28305100  1
  N  1349  1  0.46673000  0.09562000  0.22169900  1
  N  1350  1  0.41035500  0.13272000  0.27112300  1
  N  1357  1  0.45934000  0.13704300  0.21992000  1
  N  1359  1  0.38470200  0.05198100  0.31288200  1
  N  1377  1  0.95566800  0.30514700  0.59846500  1
  N  1380  1  0.94574300  0.26865100  0.66063600  1
  N  1381  1  0.91544100  0.21439200  0.55501800  1
  N  1382  1  0.88192000  0.25518600  0.61986500  1
  N  1389  1  0.87571700  0.20845800  0.56681000  1
  N  1391  1  0.96240500  0.30073200  0.64070500  1
  N  1409  1  0.95969600  0.69984800  0.42739600  1
  N  1412  1  0.94117400  0.73034100  0.36396900  1
  N  1413  1  0.91937300  0.79333100  0.46625000  1
  N  1414  1  0.88131800  0.74190000  0.41237000  1
  N  1421  1  0.87767300  0.79420000  0.46028400  1
  N  1423  1  0.96219300  0.70148200  0.38458700  1
  N  1441  1  0.06920800  0.30176100  0.42738800  1
  N  1444  1  0.08485000  0.26967400  0.36396000  1
  N  1445  1  0.10897400  0.20829300  0.46670800  1
  N  1446  1  0.14608100  0.25773200  0.41035000  1
  N  1453  1  0.15039900  0.20652000  0.45932500  1
  N  1455  1  0.06535200  0.29950100  0.38469600  1
  N  1473  1  0.06693400  0.70118200  0.59980300  1
  N  1476  1  0.08896200  0.72848100  0.66355600  1
  N  1477  1  0.10821300  0.79522300  0.56328500  1
  N  1478  1  0.14705300  0.74019100  0.61287100  1
  N  1485  1  0.15022300  0.79460700  0.56734800  1
  N  1487  1  0.06605700  0.70132900  0.64267500  1
  N  1505  1  0.59871800  0.69742100  0.06991600  1
  N  1508  1  0.66201800  0.72935500  0.08624600  1
  N  1509  1  0.55964300  0.79059400  0.11111000  1
  N  1510  1  0.61561000  0.74041100  0.14776100  1
  N  1517  1  0.56723700  0.79224700  0.15246000  1
  N  1519  1  0.64140400  0.69990200  0.06605500  1
  N  1537  1  0.42719600  0.29971600  0.06711800  1
  N  1540  1  0.36350300  0.27109100  0.08759700  1
  N  1541  1  0.46484100  0.20618400  0.10823500  1
  N  1542  1  0.41301500  0.25949400  0.14655500  1
  N  1549  1  0.45979300  0.20618900  0.15011500  1
  N  1551  1  0.38435800  0.29893800  0.06549100  1
  N  1569  1  0.42728800  0.70113300  0.96047600  1
  N  1572  1  0.36352400  0.72912500  0.93936900  1
  N  1573  1  0.46433900  0.79494900  0.91921200  1
  N  1574  1  0.41355900  0.74074100  0.88076500  1
  N  1581  1  0.45977900  0.79455100  0.87725900  1
  N  1583  1  0.38441800  0.70154400  0.96176200  1
  N  1601  1  0.59981000  0.30120800  0.95950700  1
  N  1604  1  0.66326500  0.27047500  0.94147600  1
  N  1605  1  0.56112200  0.20762600  0.91921200  1
  N  1606  1  0.61515100  0.25901500  0.88130300  1
  N  1613  1  0.56730100  0.20667600  0.87754700  1
  N  1615  1  0.64258300  0.29942700  0.96229100  1
  N  1633  1  0.06992000  0.58535800  0.71080000  1
  N  1636  1  0.08625800  0.64865400  0.74273700  1
  N  1637  1  0.11114500  0.54626600  0.80395100  1
  N  1638  1  0.14777700  0.60225100  0.75377200  1
  N  1645  1  0.15249500  0.55386400  0.80559400  1
  N  1647  1  0.06606200  0.62804500  0.71328400  1
  N  1665  1  0.06710000  0.41383600  0.31308100  1
  N  1668  1  0.08759600  0.35014000  0.28447500  1
  N  1669  1  0.10820400  0.45149400  0.21956700  1
  N  1670  1  0.14654300  0.39964100  0.27283800  1
  N  1677  1  0.15008200  0.44642500  0.21953800  1
  N  1679  1  0.06548200  0.37099800  0.31231200  1
  N  1697  1  0.96049800  0.41390100  0.71451000  1
  N  1700  1  0.93938300  0.35014300  0.74251100  1
  N  1701  1  0.91923700  0.45096300  0.80832300  1
  N  1702  1  0.88078300  0.40018600  0.75411600  1
  N  1709  1  0.87728500  0.44640700  0.80792800  1
  N  1711  1  0.96178100  0.37103000  0.71493000  1
  N  1729  1  0.95949100  0.58640800  0.31460600  1
  N  1732  1  0.94148100  0.64986900  0.28387100  1
  N  1733  1  0.91921700  0.54774800  0.22100300  1
  N  1734  1  0.88129700  0.60175700  0.27240200  1
  N  1741  1  0.87755100  0.55392400  0.22004700  1
  N  1743  1  0.96229100  0.62918000  0.31282200  1
  N  1761  1  0.71081600  0.05652300  0.59871800  1
  N  1764  1  0.74268600  0.07294500  0.66202500  1
  N  1765  1  0.80399200  0.09774300  0.55967400  1
  N  1766  1  0.75372800  0.13441900  0.61555300  1
  N  1773  1  0.80560600  0.13910400  0.56722200  1
  N  1775  1  0.71327000  0.05270400  0.64140800  1
  N  1793  1  0.31305700  0.05371000  0.42720100  1
  N  1796  1  0.28447000  0.07423200  0.36350300  1
  N  1797  1  0.21953500  0.09483600  0.46483700  1
  N  1798  1  0.27285700  0.13316700  0.41303100  1
  N  1805  1  0.21954100  0.13671800  0.45979800  1
  N  1807  1  0.31229900  0.05210600  0.38436100  1
  N  1825  1  0.71452200  0.94713300  0.42725700  1
  N  1828  1  0.74253800  0.92601800  0.36350600  1
  N  1829  1  0.80833400  0.90588000  0.46433900  1
  N  1830  1  0.75413700  0.86742300  0.41355500  1
  N  1837  1  0.80794000  0.86392800  0.45978300  1
  N  1839  1  0.71495000  0.94841400  0.38438700  1
  N  1857  1  0.31456100  0.94616400  0.59979100  1
  N  1860  1  0.28389800  0.92804700  0.66325600  1
  N  1861  1  0.22096000  0.90586200  0.56115500  1
  N  1862  1  0.27243400  0.86791700  0.61507800  1
  N  1869  1  0.22004100  0.86418800  0.56728400  1
  N  1871  1  0.31281000  0.94890900  0.64256800  1
  N  1889  1  0.71438500  0.58698600  0.96010600  1
  N  1892  1  0.74256500  0.65080400  0.93941900  1
  N  1893  1  0.80826700  0.55000700  0.91897100  1
  N  1894  1  0.75425200  0.60099600  0.88053000  1
  N  1901  1  0.80793700  0.55461900  0.87703000  1
  N  1903  1  0.71493800  0.62984900  0.96171400  1
  N  1921  1  0.31422800  0.41459400  0.95968200  1
  N  1924  1  0.28374000  0.35091700  0.94201300  1
  N  1925  1  0.21983000  0.45254000  0.91990300  1
  N  1926  1  0.27164900  0.39887000  0.88206200  1
  N  1933  1  0.21899400  0.44628800  0.87821000  1
  N  1935  1  0.31277600  0.37180000  0.96247400  1
  N  1953  1  0.71333300  0.41429000  0.06779100  1
  N  1956  1  0.74259400  0.35069300  0.08767800  1
  N  1957  1  0.80724400  0.45200800  0.10828800  1
  N  1958  1  0.75418300  0.40009600  0.14684500  1
  N  1965  1  0.80753300  0.44685200  0.15012100  1
  N  1967  1  0.71441200  0.37144800  0.06592200  1
  N  1985  1  0.31685500  0.58506300  0.07019400  1
  N  1988  1  0.28367300  0.64841500  0.08364000  1
  N  1989  1  0.22371100  0.54558500  0.11045800  1
  N  1990  1  0.27161800  0.60404000  0.14629400  1
  N  1997  1  0.22110600  0.55439000  0.15150000  1
  N  1999  1  0.31402300  0.62757800  0.06502700  1
  N  2017  1  0.59848000  0.05658800  0.31660800  1
  N  2020  1  0.66193000  0.07064900  0.28387400  1
  N  2021  1  0.55933400  0.09690000  0.22331700  1
  N  2022  1  0.61705200  0.13302400  0.27189700  1
  N  2029  1  0.56775300  0.13805400  0.22102400  1
  N  2031  1  0.64103400  0.05170900  0.31397400  1
  N  2049  1  0.42768800  0.05444400  0.71328800  1
  N  2052  1  0.36408800  0.07425300  0.74259700  1
  N  2053  1  0.46541900  0.09494200  0.80720000  1
  N  2054  1  0.41343400  0.13346400  0.75418300  1
  N  2061  1  0.46021800  0.13676900  0.80750700  1
  N  2063  1  0.38484900  0.05253700  0.71438600  1
  N  2081  1  0.42797100  0.94631100  0.31422800  1
  N  2084  1  0.36429600  0.92865200  0.28373100  1
  N  2085  1  0.46592600  0.90651600  0.21984200  1
  N  2086  1  0.41223500  0.86869300  0.27164900  1
  N  2093  1  0.45966100  0.86482500  0.21900100  1
  N  2095  1  0.38517900  0.94910600  0.31277300  1
  N  2113  1  0.60034200  0.94670400  0.71434300  1
  N  2116  1  0.66416600  0.92608800  0.74255900  1
  N  2117  1  0.56336200  0.90556500  0.80822400  1
  N  2118  1  0.61441300  0.86715300  0.75424700  1
  N  2125  1  0.56801300  0.86362900  0.80791000  1
  N  2127  1  0.64320400  0.94834900  0.71491300  1
  N  2145  1  0.06777700  0.69994800  0.42766300  1
  N  2148  1  0.08770700  0.72918000  0.36406400  1
  N  2149  1  0.10827100  0.79387800  0.46536000  1
  N  2150  1  0.14684200  0.74077500  0.41350100  1
  N  2157  1  0.15010900  0.79415100  0.46022900  1
  N  2159  1  0.06593300  0.70101100  0.38481900  1
  N  2177  1  0.07004400  0.30332300  0.59846200  1
  N  2180  1  0.08389700  0.27043900  0.66188000  1
  N  2181  1  0.11033200  0.21007900  0.55920600  1
  N  2182  1  0.14636600  0.25843200  0.61716900  1
  N  2189  1  0.15144800  0.20767700  0.56775400  1
  N  2191  1  0.06506700  0.30062400  0.64100300  1
  N  2209  1  0.96009300  0.70099400  0.60035400  1
  N  2212  1  0.93941800  0.72918300  0.66417200  1
  N  2213  1  0.91896500  0.79487800  0.56337400  1
  N  2214  1  0.88052100  0.74087300  0.61437200  1
  N  2221  1  0.87702500  0.79455500  0.56799200  1
  N  2223  1  0.96170700  0.70155300  0.64321700  1
  N  2241  1  0.95970800  0.30083300  0.42796600  1
  N  2244  1  0.94199600  0.27038000  0.36428500  1
  N  2245  1  0.91992000  0.20642700  0.46588600  1
  N  2246  1  0.88206800  0.25829300  0.41226900  1
  N  2253  1  0.87822200  0.20561100  0.45966000  1
  N  2255  1  0.96247700  0.29939900  0.38517300  1
  O  27  1  0.39320400  0.32824100  0.94365200  1
  O  28  1  0.34094800  0.38000200  0.94359000  1
  O  29  1  0.34103000  0.37889000  0.08446800  1
  O  30  1  0.39334300  0.32745500  0.08350300  1
  O  57  1  0.63409000  0.67226000  0.94377100  1
  O  58  1  0.68632300  0.62072400  0.94396300  1
  O  59  1  0.68606100  0.61974600  0.08357500  1
  O  60  1  0.63393400  0.67125600  0.08448300  1
  O  87  1  0.63394500  0.32843500  0.08421200  1
  O  88  1  0.68586600  0.38023100  0.08398300  1
  O  89  1  0.68642100  0.37953200  0.94378000  1
  O  90  1  0.63450000  0.32784200  0.94371800  1
  O  117  1  0.39361500  0.67283700  0.08372700  1
  O  118  1  0.34216600  0.62075600  0.08447100  1
  O  119  1  0.34219700  0.62152300  0.94253100  1
  O  120  1  0.39377100  0.67301800  0.94397600  1
  O  147  1  0.94364900  0.37983200  0.34162700  1
  O  148  1  0.94359900  0.32757100  0.39338800  1
  O  149  1  0.08446500  0.32769000  0.39227300  1
  O  150  1  0.08349300  0.37999300  0.34082800  1
  O  177  1  0.94378700  0.62069000  0.68563000  1
  O  178  1  0.94395500  0.67293500  0.63409900  1
  O  179  1  0.08357000  0.67269100  0.63312200  1
  O  180  1  0.08448300  0.62057300  0.68463400  1
  O  207  1  0.08420400  0.62050400  0.34186500  1
  O  208  1  0.08398400  0.67246400  0.39361800  1
  O  209  1  0.94378700  0.67303900  0.39291500  1
  O  210  1  0.94371000  0.62111100  0.34123500  1
  O  237  1  0.08374100  0.38024100  0.68619200  1
  O  238  1  0.08443600  0.32879300  0.63406900  1
  O  239  1  0.94254900  0.32878400  0.63492200  1
  O  240  1  0.94399300  0.38037500  0.68640300  1
  O  267  1  0.34161900  0.93027500  0.39320100  1
  O  268  1  0.39337800  0.93021900  0.34094400  1
  O  269  1  0.39226900  0.07109100  0.34107500  1
  O  270  1  0.34081300  0.07011100  0.39336700  1
  O  297  1  0.68563200  0.93042200  0.63405700  1
  O  298  1  0.63410000  0.93058300  0.68629900  1
  O  299  1  0.63310600  0.07020900  0.68604200  1
  O  300  1  0.68461500  0.07110800  0.63391100  1
  O  327  1  0.34181900  0.07084000  0.63392800  1
  O  328  1  0.39360900  0.07061800  0.68584700  1
  O  329  1  0.39290600  0.93039200  0.68639600  1
  O  330  1  0.34123100  0.93035700  0.63446000  1
  O  357  1  0.68618600  0.07036700  0.39360600  1
  O  358  1  0.63404500  0.07103900  0.34215800  1
  O  359  1  0.63494300  0.92918100  0.34212500  1
  O  360  1  0.68642200  0.93062300  0.39372400  1
  O  387  1  0.89127000  0.82354400  0.44686100  1
  O  388  1  0.83733200  0.87668500  0.44572800  1
  O  389  1  0.83633400  0.87775100  0.58090200  1
  O  390  1  0.88979400  0.82397300  0.58199600  1
  O  417  1  0.13604700  0.17708200  0.44689200  1
  O  418  1  0.19013200  0.12359700  0.44608500  1
  O  419  1  0.19127800  0.12444700  0.58105500  1
  O  420  1  0.13683400  0.17835700  0.58019600  1
  O  447  1  0.13767100  0.82385600  0.58187000  1
  O  448  1  0.19075000  0.87784000  0.58077300  1
  O  449  1  0.19067900  0.87669100  0.44555600  1
  O  450  1  0.13696600  0.82334300  0.44605800  1
  O  477  1  0.88940200  0.17935700  0.58065600  1
  O  478  1  0.83477900  0.12522800  0.58074600  1
  O  479  1  0.83768900  0.12304800  0.44600600  1
  O  480  1  0.89185000  0.17619300  0.44642700  1
  O  507  1  0.44689600  0.87790700  0.83688400  1
  O  508  1  0.44573000  0.82394500  0.89001700  1
  O  509  1  0.58087500  0.82294300  0.89112800  1
  O  510  1  0.58199900  0.87640700  0.83733200  1
  O  537  1  0.44690100  0.12269200  0.19048400  1
  O  538  1  0.44608000  0.17677800  0.13699800  1
  O  539  1  0.58104800  0.17789500  0.13778600  1
  O  540  1  0.58025100  0.12349700  0.19170100  1
  O  567  1  0.58186500  0.12430900  0.83721400  1
  O  568  1  0.58075700  0.17738000  0.89122000  1
  O  569  1  0.44557200  0.17732200  0.89005900  1
  O  570  1  0.44608200  0.12359800  0.83670400  1
  O  597  1  0.58058900  0.87610800  0.19268100  1
  O  598  1  0.58073300  0.82142300  0.13855800  1
  O  599  1  0.44601600  0.82432100  0.13642200  1
  O  600  1  0.44645200  0.87847600  0.18958300  1
  O  627  1  0.83690700  0.43348500  0.89126300  1
  O  628  1  0.89004400  0.43235000  0.83731900  1
  O  629  1  0.89112600  0.56752400  0.83632800  1
  O  630  1  0.83735600  0.56862400  0.88979400  1
  O  657  1  0.19040400  0.43351900  0.13602200  1
  O  658  1  0.13692600  0.43273900  0.19013200  1
  O  659  1  0.13791100  0.56770400  0.19134200  1
  O  660  1  0.19178500  0.56671500  0.13678000  1
  O  687  1  0.83723400  0.56850200  0.13767500  1
  O  688  1  0.89122900  0.56739100  0.19075800  1
  O  689  1  0.89007400  0.43219500  0.19068900  1
  O  690  1  0.83672700  0.43269600  0.13696700  1
  O  717  1  0.19276100  0.56731000  0.88936500  1
  O  718  1  0.13860200  0.56736200  0.83477400  1
  O  719  1  0.13642400  0.43264500  0.83768600  1
  O  720  1  0.18957600  0.43306900  0.89185200  1
  O  745  1  0.35549100  0.27520700  0.92249000  1
  O  746  1  0.47791500  0.21606100  0.92769500  1
  O  747  1  0.35749400  0.25526500  0.94530900  1
  O  748  1  0.45598700  0.19543100  0.93146400  1
  O  777  1  0.67137000  0.72696400  0.92543100  1
  O  778  1  0.54730500  0.78276100  0.92703900  1
  O  779  1  0.66788200  0.74619400  0.94868300  1
  O  780  1  0.56859800  0.80378700  0.93206200  1
  O  809  1  0.67152900  0.27383700  0.10317200  1
  O  810  1  0.54742500  0.21805100  0.10171000  1
  O  811  1  0.66811100  0.25445800  0.08003400  1
  O  812  1  0.56868600  0.19698400  0.09671500  1
  O  841  1  0.35545000  0.72558500  0.10484700  1
  O  842  1  0.47778100  0.78514800  0.09934800  1
  O  843  1  0.35714600  0.74546100  0.08194700  1
  O  844  1  0.45595400  0.80583200  0.09530900  1
  O  873  1  0.92246000  0.34212500  0.28860700  1
  O  874  1  0.92772400  0.46452300  0.22941400  1
  O  875  1  0.94527700  0.34411100  0.26866000  1
  O  876  1  0.93148000  0.44258400  0.20879300  1
  O  905  1  0.92535100  0.65797700  0.74026800  1
  O  906  1  0.92711200  0.53398600  0.79622000  1
  O  907  1  0.94858800  0.65454600  0.75952500  1
  O  908  1  0.93208100  0.55531500  0.81722200  1
  O  937  1  0.10321800  0.65808800  0.28734900  1
  O  938  1  0.10182900  0.53402700  0.23146000  1
  O  939  1  0.08011500  0.65467400  0.26792700  1
  O  940  1  0.09683000  0.55530900  0.21041300  1
  O  969  1  0.10487700  0.34207800  0.73893500  1
  O  970  1  0.09935800  0.46440400  0.79850900  1
  O  971  1  0.08197800  0.34376900  0.75881300  1
  O  972  1  0.09531700  0.44257400  0.81919200  1
  O  1001  1  0.28861100  0.90906200  0.35549200  1
  O  1002  1  0.22939100  0.91435800  0.47787500  1
  O  1003  1  0.26865800  0.93187600  0.35746700  1
  O  1004  1  0.20877300  0.91810300  0.45593200  1
  O  1033  1  0.74026400  0.91198400  0.67135100  1
  O  1034  1  0.79623300  0.91374500  0.54736700  1
  O  1035  1  0.75952100  0.93522200  0.66792300  1
  O  1036  1  0.81723400  0.91871000  0.56869900  1
  O  1065  1  0.28722700  0.08981400  0.67151900  1
  O  1066  1  0.23142800  0.08836800  0.54741900  1
  O  1067  1  0.26784200  0.06668000  0.66809900  1
  O  1068  1  0.21036400  0.08337100  0.56868300  1
  O  1097  1  0.73891700  0.09153000  0.35544500  1
  O  1098  1  0.79852100  0.08596900  0.47775400  1
  O  1099  1  0.75880100  0.06863500  0.35712400  1
  O  1100  1  0.81919800  0.08193800  0.45591800  1
  O  1129  1  0.28509400  0.34153400  0.10099300  1
  O  1130  1  0.23212400  0.46689700  0.10154900  1
  O  1131  1  0.26651100  0.34591900  0.07737000  1
  O  1132  1  0.21059700  0.44635100  0.09560100  1
  O  1161  1  0.73820100  0.65774600  0.10566200  1
  O  1162  1  0.79938600  0.53637000  0.09925300  1
  O  1163  1  0.75840500  0.65646200  0.08302300  1
  O  1164  1  0.81970100  0.55866900  0.09600200  1
  O  1193  1  0.28285100  0.65758000  0.93023600  1
  O  1194  1  0.23994100  0.52830000  0.92044000  1
  O  1195  1  0.26563200  0.65015700  0.95414000  1
  O  1196  1  0.21732700  0.54604200  0.93020700  1
  O  1225  1  0.74101300  0.34218300  0.92472500  1
  O  1226  1  0.79664800  0.46639300  0.92746000  1
  O  1227  1  0.76031400  0.34532500  0.94796400  1
  O  1228  1  0.81782000  0.44519000  0.93224300  1
  O  1257  1  0.35555900  0.91142700  0.74104700  1
  O  1258  1  0.47983100  0.91403200  0.79655600  1
  O  1259  1  0.35875300  0.93468200  0.76032200  1
  O  1260  1  0.45865800  0.91886600  0.81774500  1
  O  1289  1  0.67103000  0.91677600  0.28284500  1
  O  1290  1  0.54184400  0.90719500  0.23968100  1
  O  1291  1  0.66366600  0.94067100  0.26558900  1
  O  1292  1  0.55967900  0.91684000  0.21708800  1
  O  1321  1  0.67110900  0.09226300  0.73819500  1
  O  1322  1  0.54971600  0.08591100  0.79935000  1
  O  1323  1  0.66980800  0.06962000  0.75839400  1
  O  1324  1  0.57200900  0.08264300  0.81967200  1
  O  1353  1  0.35492100  0.08768500  0.28515800  1
  O  1354  1  0.48028600  0.08820100  0.23219100  1
  O  1355  1  0.35929600  0.06407900  0.26654900  1
  O  1356  1  0.45973800  0.08227100  0.21066300  1
  O  1385  1  0.93021300  0.26943700  0.67098200  1
  O  1386  1  0.92048600  0.22650000  0.54171200  1
  O  1387  1  0.95411600  0.25221200  0.66357300  1
  O  1388  1  0.93022200  0.20388800  0.55947200  1
  O  1417  1  0.92472100  0.72762100  0.35555600  1
  O  1418  1  0.92746900  0.78328400  0.47975500  1
  O  1419  1  0.94795800  0.74692400  0.35869100  1
  O  1420  1  0.93225200  0.80445300  0.45854900  1
  O  1449  1  0.10105600  0.27178100  0.35491400  1
  O  1450  1  0.10155300  0.21878400  0.48026600  1
  O  1451  1  0.07744700  0.25317500  0.35928100  1
  O  1452  1  0.09562600  0.19726000  0.45971300  1
  O  1481  1  0.10565000  0.72483400  0.67111400  1
  O  1482  1  0.09925200  0.78600600  0.54973400  1
  O  1483  1  0.08301000  0.74503900  0.66982600  1
  O  1484  1  0.09599900  0.80632400  0.57203000  1
  O  1513  1  0.67108600  0.72692500  0.10239300  1
  O  1514  1  0.54592300  0.78032500  0.10367700  1
  O  1515  1  0.66666667  0.74602900  0.07920000  1
  O  1516  1  0.56675100  0.80160100  0.09780200  1
  O  1545  1  0.35555900  0.27440200  0.10417600  1
  O  1546  1  0.47836800  0.21583400  0.09970300  1
  O  1547  1  0.35764000  0.25450400  0.08132500  1
  O  1548  1  0.45665400  0.19502500  0.09569100  1
  O  1577  1  0.35574000  0.72568600  0.92274100  1
  O  1578  1  0.47787800  0.78552100  0.92797000  1
  O  1579  1  0.35747600  0.74568900  0.94552900  1
  O  1580  1  0.45588900  0.80611500  0.93157400  1
  O  1609  1  0.67180400  0.27314600  0.92508000  1
  O  1610  1  0.54757500  0.21767400  0.92723700  1
  O  1611  1  0.66844200  0.25388600  0.94832200  1
  O  1612  1  0.56878000  0.19653000  0.93214000  1
  O  1641  1  0.10240400  0.65772400  0.74030500  1
  O  1642  1  0.10371000  0.53254800  0.79368000  1
  O  1643  1  0.07921600  0.65326300  0.75941400  1
  O  1644  1  0.09784000  0.55337100  0.81496300  1
  O  1673  1  0.10417700  0.34220300  0.28778800  1
  O  1674  1  0.09968700  0.46502200  0.22922700  1
  O  1675  1  0.08132800  0.34427000  0.26788700  1
  O  1676  1  0.09564700  0.44331600  0.20841500  1
  O  1705  1  0.92275600  0.34236000  0.73907200  1
  O  1706  1  0.92799800  0.46449900  0.79889600  1
  O  1707  1  0.94554100  0.34409600  0.75907600  1
  O  1708  1  0.93159900  0.44251000  0.81948900  1
  O  1737  1  0.92508600  0.65841100  0.28654200  1
  O  1738  1  0.92724000  0.53419700  0.23104600  1
  O  1739  1  0.94833000  0.65504400  0.26728200  1
  O  1740  1  0.93214600  0.55540800  0.20991200  1
  O  1769  1  0.74023500  0.08910000  0.67107400  1
  O  1770  1  0.79374100  0.09028500  0.54595500  1
  O  1771  1  0.75936300  0.06591900  0.66666667  1
  O  1772  1  0.81500300  0.08445200  0.56680900  1
  O  1801  1  0.28778900  0.09081400  0.35557100  1
  O  1802  1  0.22918100  0.08630200  0.47836400  1
  O  1803  1  0.26788200  0.06797000  0.35762800  1
  O  1804  1  0.20837700  0.08229400  0.45664500  1
  O  1833  1  0.73910100  0.90939000  0.35572400  1
  O  1834  1  0.79890300  0.91464000  0.47787500  1
  O  1835  1  0.75910300  0.93217900  0.35746100  1
  O  1836  1  0.81950100  0.91824200  0.45588900  1
  O  1865  1  0.28659100  0.91164400  0.67177400  1
  O  1866  1  0.23098800  0.91390700  0.54760700  1
  O  1867  1  0.26730700  0.93487400  0.66845500  1
  O  1868  1  0.20986700  0.91877500  0.56883900  1
  O  1897  1  0.73917700  0.65869900  0.92283400  1
  O  1898  1  0.79880800  0.53646600  0.92769200  1
  O  1899  1  0.75913400  0.65676700  0.94564500  1
  O  1900  1  0.81942600  0.55842100  0.93136500  1
  O  1929  1  0.28626900  0.34242100  0.92557100  1
  O  1930  1  0.22979600  0.46620000  0.92784200  1
  O  1931  1  0.26728200  0.34559900  0.94906500  1
  O  1932  1  0.20882700  0.44485900  0.93289500  1
  O  1961  1  0.73951500  0.34260400  0.10423100  1
  O  1962  1  0.79758200  0.46556200  0.09981400  1
  O  1963  1  0.75917400  0.34502200  0.08120600  1
  O  1964  1  0.81832500  0.44380600  0.09568500  1
  O  1993  1  0.28551500  0.65802600  0.09955000  1
  O  1994  1  0.23448300  0.53191700  0.10367100  1
  O  1995  1  0.26714700  0.65255700  0.07598200  1
  O  1996  1  0.21279300  0.55197400  0.09671900  1
  O  2025  1  0.67140400  0.08662300  0.28586400  1
  O  2026  1  0.54565400  0.08991900  0.23394900  1
  O  2027  1  0.66624400  0.06311200  0.26733500  1
  O  2028  1  0.56593500  0.08328500  0.21237000  1
  O  2057  1  0.35598100  0.09080000  0.73953100  1
  O  2058  1  0.47897600  0.08648600  0.79752800  1
  O  2059  1  0.35843500  0.06776500  0.75917400  1
  O  2060  1  0.45723500  0.08232700  0.81828000  1
  O  2089  1  0.35579700  0.91221200  0.28625700  1
  O  2090  1  0.47958600  0.91445100  0.22981000  1
  O  2091  1  0.35898200  0.93570600  0.26727200  1
  O  2092  1  0.45825200  0.91951200  0.20883700  1
  O  2121  1  0.67208100  0.90950800  0.73918300  1
  O  2122  1  0.54981700  0.91426900  0.79875600  1
  O  2123  1  0.67011600  0.93232800  0.75912800  1
  O  2124  1  0.57176000  0.91797000  0.81938300  1
  O  2153  1  0.10426400  0.72609400  0.35598700  1
  O  2154  1  0.09978600  0.78422500  0.47891500  1
  O  2155  1  0.08123900  0.74575700  0.35838300  1
  O  2156  1  0.09567600  0.80495700  0.45714500  1
  O  2185  1  0.09984900  0.27237900  0.67140000  1
  O  2186  1  0.10341600  0.22075800  0.54552900  1
  O  2187  1  0.07631800  0.25390500  0.66613700  1
  O  2188  1  0.09667400  0.19914200  0.56573700  1
  O  2217  1  0.92283300  0.72579900  0.67207200  1
  O  2218  1  0.92768100  0.78541600  0.54983200  1
  O  2219  1  0.94564700  0.74575300  0.67013200  1
  O  2220  1  0.93136200  0.80603400  0.57178500  1
  O  2249  1  0.92555100  0.27291800  0.35580000  1
  O  2250  1  0.92787200  0.21638200  0.47954500  1
  O  2251  1  0.94904000  0.25392100  0.35895500  1
  O  2252  1  0.93290300  0.19542200  0.45819100  1
