# generated using pymatgen
data_H18C29N3
_symmetry_space_group_name_H-M   'P 1'
_cell_length_a   39.07710000
_cell_length_b   39.07700000
_cell_length_c   39.67760000
_cell_angle_alpha   89.97420000
_cell_angle_beta   89.87120000
_cell_angle_gamma   89.99970000
_symmetry_Int_Tables_number   1
_chemical_formula_structural   H18C29N3
_chemical_formula_sum   'H288 C464 N48'
_cell_volume   60588.16432968
_cell_formula_units_Z   16
loop_
 _symmetry_equiv_pos_site_id
 _symmetry_equiv_pos_as_xyz
  1  'x, y, z'
loop_
 _atom_site_type_symbol
 _atom_site_label
 _atom_site_symmetry_multiplicity
 _atom_site_fract_x
 _atom_site_fract_y
 _atom_site_fract_z
 _atom_site_occupancy
  H  73  1  0.94263100  0.26431500  0.18674500  1
  H  74  1  0.94165500  0.30847000  0.14554800  1
  H  75  1  0.02425100  0.31382800  0.23665700  1
  H  76  1  0.02253200  0.35883700  0.19587900  1
  H  77  1  0.03810100  0.36097100  0.13445600  1
  H  78  1  0.04150900  0.40096700  0.08895600  1
  H  79  1  0.93030100  0.37093100  0.13519400  1
  H  80  1  0.93382300  0.41014400  0.08903200  1
  H  81  1  0.99269500  0.36997900  0.02686100  1
  H  82  1  0.99575700  0.37248700  0.96297600  1
  H  83  1  0.99240100  0.47046200  0.99855900  1
  H  84  1  0.98956700  0.53035000  0.00086200  1
  H  85  1  0.98794600  0.46303500  0.12682200  1
  H  86  1  0.98937600  0.52781300  0.12926900  1
  H  87  1  0.04848200  0.57779900  0.10019400  1
  H  88  1  0.05201600  0.61583900  0.14717300  1
  H  89  1  0.94295300  0.59911600  0.09108600  1
  H  90  1  0.94659200  0.63822300  0.13726600  1
  H  91  1  0.99582700  0.62822700  0.03636700  1
  H  92  1  0.99381100  0.63069800  0.97245500  1
  H  93  1  0.99252500  0.47288700  0.87009400  1
  H  94  1  0.98956300  0.53769200  0.87252300  1
  H  95  1  0.93321400  0.59270800  0.91443800  1
  H  96  1  0.92792300  0.63313300  0.86947400  1
  H  97  1  0.04090300  0.59805700  0.90682800  1
  H  98  1  0.03577400  0.63904200  0.86227300  1
  H  99  1  0.01458100  0.64213800  0.80163700  1
  H  100  1  0.01350300  0.68678000  0.76039100  1
  H  101  1  0.94006000  0.73997100  0.81865800  1
  H  102  1  0.94177500  0.69597700  0.86010400  1
  H  103  1  0.05038200  0.41624100  0.90239300  1
  H  104  1  0.05225700  0.37602300  0.85691500  1
  H  105  1  0.95881100  0.36006600  0.79896400  1
  H  106  1  0.95488800  0.31110000  0.76317700  1
  H  107  1  0.03550600  0.26434400  0.81713100  1
  H  108  1  0.03892500  0.31262200  0.85297500  1
  H  109  1  0.94446200  0.36688300  0.86098100  1
  H  110  1  0.94268800  0.40763100  0.90587000  1
  H  111  1  0.95640000  0.64148000  0.19947000  1
  H  112  1  0.95685500  0.68801900  0.23856300  1
  H  113  1  0.04783600  0.67866500  0.15557400  1
  H  114  1  0.04895100  0.72411600  0.19520300  1
  H  119  1  0.96421000  0.24549100  0.76769800  1
  H  120  1  0.98845700  0.25770400  0.26028500  1
  H  121  1  0.99566000  0.73964900  0.26374600  1
  H  122  1  0.97822800  0.74223600  0.73933600  1
  H  195  1  0.26694100  0.06319400  0.68844000  1
  H  196  1  0.31085200  0.06414600  0.64688000  1
  H  197  1  0.31612400  0.98077000  0.73751600  1
  H  198  1  0.36086500  0.98244900  0.69638200  1
  H  199  1  0.36236400  0.96728600  0.63491600  1
  H  200  1  0.40210600  0.96379400  0.58915200  1
  H  201  1  0.37332500  0.07498100  0.63596000  1
  H  202  1  0.41227500  0.07138600  0.58953000  1
  H  203  1  0.37151000  0.01287900  0.52725800  1
  H  204  1  0.37396200  0.00983000  0.46337800  1
  H  205  1  0.47197500  0.01265600  0.49872800  1
  H  206  1  0.53185100  0.01482000  0.50089300  1
  H  207  1  0.46463400  0.01661500  0.62702000  1
  H  208  1  0.52941100  0.01489400  0.62932600  1
  H  209  1  0.57986600  0.95606800  0.59989900  1
  H  210  1  0.61827600  0.95247200  0.64653500  1
  H  211  1  0.60032000  0.06182400  0.59111000  1
  H  212  1  0.63975000  0.05814100  0.63696300  1
  H  213  1  0.62977700  0.00913700  0.53619500  1
  H  214  1  0.63221100  0.01113400  0.47228000  1
  H  215  1  0.47433800  0.01219800  0.37024400  1
  H  216  1  0.53915900  0.01486600  0.37252000  1
  H  217  1  0.59467700  0.07116600  0.41403800  1
  H  218  1  0.63519500  0.07597200  0.36899400  1
  H  219  1  0.59911300  0.96340700  0.40702900  1
  H  220  1  0.64014600  0.96805200  0.36237400  1
  H  221  1  0.64312800  0.98923100  0.30153300  1
  H  222  1  0.68770400  0.98970200  0.26012200  1
  H  223  1  0.74203600  0.06235000  0.31805100  1
  H  224  1  0.69806400  0.06126900  0.35964200  1
  H  225  1  0.41767400  0.95453100  0.40340200  1
  H  226  1  0.37724200  0.95215700  0.35823300  1
  H  227  1  0.36059000  0.04486400  0.29912600  1
  H  228  1  0.31145000  0.04789500  0.26352400  1
  H  229  1  0.26542200  0.96786500  0.31923300  1
  H  230  1  0.31385700  0.96531900  0.35484300  1
  H  231  1  0.36802100  0.05997300  0.36096700  1
  H  232  1  0.40901000  0.06224700  0.40556400  1
  H  233  1  0.64358200  0.04775100  0.69917400  1
  H  234  1  0.69044000  0.04727500  0.73781100  1
  H  235  1  0.68123600  0.95716000  0.65415600  1
  H  236  1  0.72701800  0.95601200  0.69331500  1
  H  241  1  0.24572000  0.03789200  0.26847400  1
  H  242  1  0.25998500  0.01800300  0.76161800  1
  H  243  1  0.74238900  0.00911500  0.76225200  1
  H  244  1  0.74373900  0.02479300  0.23886800  1
  H  293  1  0.97926800  0.80085900  0.71515100  1
  H  294  1  0.98519200  0.86066800  0.70177000  1
  H  295  1  0.00194500  0.82224500  0.81705000  1
  H  296  1  0.00765600  0.88173500  0.80382800  1
  H  297  1  0.06589800  0.88506600  0.74068700  1
  H  298  1  0.11332800  0.92931100  0.73802300  1
  H  299  1  0.02204900  0.97988500  0.74389000  1
  H  300  1  0.98117600  0.02350000  0.74167500  1
  H  301  1  0.92839600  0.88936800  0.75084300  1
  H  302  1  0.88408600  0.93675000  0.74685600  1
  H  303  1  0.87654500  0.00314500  0.68149200  1
  H  304  1  0.81562200  0.00263900  0.67504200  1
  H  305  1  0.86476600  0.00710700  0.78735000  1
  H  306  1  0.80349900  0.00644800  0.78082000  1
  H  307  1  0.89008500  0.07339000  0.73017700  1
  H  308  1  0.93745800  0.11770400  0.73012400  1
  H  309  1  0.11896700  0.06703900  0.74317200  1
  H  310  1  0.07464700  0.11443800  0.74304800  1
  H  311  1  0.99053200  0.12371400  0.79467300  1
  H  312  1  0.99337300  0.18385900  0.80573200  1
  H  313  1  0.02182800  0.14133000  0.69406800  1
  H  314  1  0.02521300  0.20196900  0.70558600  1
  H  315  1  0.12678500  0.99185800  0.68352800  1
  H  316  1  0.18736200  0.99694000  0.67618900  1
  H  317  1  0.19933900  0.01110600  0.78105800  1
  H  318  1  0.13844300  0.00560800  0.78853300  1
  H  371  1  0.80228900  0.02248600  0.21462700  1
  H  372  1  0.86205300  0.01600400  0.20125200  1
  H  373  1  0.82306800  0.99810400  0.31629400  1
  H  374  1  0.88251300  0.99186400  0.30308000  1
  H  375  1  0.88622000  0.93465900  0.23848000  1
  H  376  1  0.93047900  0.88726900  0.23548500  1
  H  377  1  0.98098200  0.97831400  0.24439200  1
  H  378  1  0.02459500  0.01923200  0.24187400  1
  H  379  1  0.89028500  0.07189500  0.24981800  1
  H  380  1  0.93752100  0.11624200  0.24638300  1
  H  381  1  0.01031300  0.12339200  0.18252800  1
  H  382  1  0.00537900  0.18392000  0.17482900  1
  H  383  1  0.00052900  0.13631100  0.28787000  1
  H  384  1  0.99512700  0.19716600  0.28004000  1
  H  385  1  0.07473000  0.11055800  0.23347400  1
  H  386  1  0.11903600  0.06317700  0.23330800  1
  H  387  1  0.06789700  0.88138700  0.24392600  1
  H  388  1  0.11546600  0.92571900  0.24452300  1
  H  389  1  0.12428800  0.00810600  0.29659300  1
  H  390  1  0.18444400  0.00585300  0.30777800  1
  H  391  1  0.14291100  0.98049500  0.19516500  1
  H  392  1  0.20356500  0.97778800  0.20676100  1
  H  393  1  0.99966300  0.87348100  0.18249300  1
  H  394  1  0.00014500  0.81252600  0.17625000  1
  H  395  1  0.99890600  0.80097800  0.28213200  1
  H  396  1  0.99832000  0.86228700  0.28846300  1
  H  473  1  0.73790800  0.05959100  0.95991680  1
  H  474  1  0.73693200  0.10374600  0.91871980  1
  H  475  1  0.81952800  0.10910400  0.00982900  1
  H  476  1  0.81780900  0.15411300  0.96905080  1
  H  477  1  0.83337800  0.15624700  0.90762780  1
  H  478  1  0.83678600  0.19624300  0.86212800  1
  H  479  1  0.72557800  0.16620700  0.90836580  1
  H  480  1  0.72910000  0.20542000  0.86220400  1
  H  481  1  0.78797200  0.16525500  0.80003300  1
  H  482  1  0.79103400  0.16776300  0.73614800  1
  H  483  1  0.78767800  0.26573800  0.77173100  1
  H  484  1  0.78484400  0.32562600  0.77403400  1
  H  485  1  0.78322300  0.25831100  0.89999400  1
  H  486  1  0.78465300  0.32308900  0.90244080  1
  H  487  1  0.84375900  0.37307500  0.87336600  1
  H  488  1  0.84729300  0.41111500  0.92034480  1
  H  489  1  0.73823000  0.39439200  0.86425800  1
  H  490  1  0.74186900  0.43349900  0.91043780  1
  H  491  1  0.79110400  0.42350300  0.80953900  1
  H  492  1  0.78908800  0.42597400  0.74562700  1
  H  493  1  0.78780200  0.26816300  0.64326600  1
  H  494  1  0.78484000  0.33296800  0.64569500  1
  H  495  1  0.72849100  0.38798400  0.68761000  1
  H  496  1  0.72320000  0.42840900  0.64264600  1
  H  497  1  0.83618000  0.39333300  0.68000000  1
  H  498  1  0.83105100  0.43431800  0.63544500  1
  H  499  1  0.80985800  0.43741400  0.57480900  1
  H  500  1  0.80878000  0.48205600  0.53356300  1
  H  501  1  0.73533700  0.53524700  0.59183000  1
  H  502  1  0.73705200  0.49125300  0.63327600  1
  H  503  1  0.84565900  0.21151700  0.67556500  1
  H  504  1  0.84753400  0.17129900  0.63008700  1
  H  505  1  0.75408800  0.15534200  0.57213600  1
  H  506  1  0.75016500  0.10637600  0.53634900  1
  H  507  1  0.83078300  0.05962000  0.59030300  1
  H  508  1  0.83420200  0.10789800  0.62614700  1
  H  509  1  0.73973900  0.16215900  0.63415300  1
  H  510  1  0.73796500  0.20290700  0.67904200  1
  H  511  1  0.75167700  0.43675600  0.97264180  1
  H  512  1  0.75213200  0.48329500  0.01173500  1
  H  513  1  0.84311300  0.47394100  0.92874580  1
  H  514  1  0.84422800  0.51939200  0.96837480  1
  H  519  1  0.75948700  0.04076700  0.54087000  1
  H  520  1  0.78373400  0.05298000  0.03345700  1
  H  521  1  0.79093700  0.53492500  0.03691800  1
  H  522  1  0.77350500  0.53751200  0.51250800  1
  H  595  1  0.06221800  0.85847000  0.46161200  1
  H  596  1  0.10612900  0.85942200  0.42005200  1
  H  597  1  0.11140100  0.77604600  0.51068800  1
  H  598  1  0.15614200  0.77772500  0.46955400  1
  H  599  1  0.15764100  0.76256200  0.40808800  1
  H  600  1  0.19738300  0.75907000  0.36232400  1
  H  601  1  0.16860200  0.87025700  0.40913200  1
  H  602  1  0.20755200  0.86666200  0.36270200  1
  H  603  1  0.16678700  0.80815500  0.30043000  1
  H  604  1  0.16923900  0.80510600  0.23655000  1
  H  605  1  0.26725200  0.80793200  0.27190000  1
  H  606  1  0.32712800  0.81009600  0.27406500  1
  H  607  1  0.25991100  0.81189100  0.40019200  1
  H  608  1  0.32468800  0.81017000  0.40249800  1
  H  609  1  0.37514300  0.75134400  0.37307100  1
  H  610  1  0.41355300  0.74774800  0.41970700  1
  H  611  1  0.39559700  0.85710000  0.36428200  1
  H  612  1  0.43502700  0.85341700  0.41013500  1
  H  613  1  0.42505400  0.80441300  0.30936700  1
  H  614  1  0.42748800  0.80641000  0.24545200  1
  H  615  1  0.26961500  0.80747400  0.14341600  1
  H  616  1  0.33443600  0.81014200  0.14569200  1
  H  617  1  0.38995400  0.86644200  0.18721000  1
  H  618  1  0.43047200  0.87124800  0.14216600  1
  H  619  1  0.39439000  0.75868300  0.18020100  1
  H  620  1  0.43542300  0.76332800  0.13554600  1
  H  621  1  0.43840500  0.78450700  0.07470500  1
  H  622  1  0.48298100  0.78497800  0.03329400  1
  H  623  1  0.53731300  0.85762600  0.09122300  1
  H  624  1  0.49334100  0.85654500  0.13281400  1
  H  625  1  0.21295100  0.74980700  0.17657400  1
  H  626  1  0.17251900  0.74743300  0.13140500  1
  H  627  1  0.15586700  0.84014000  0.07229800  1
  H  628  1  0.10672700  0.84317100  0.03669600  1
  H  629  1  0.06069900  0.76314100  0.09240500  1
  H  630  1  0.10913400  0.76059500  0.12801500  1
  H  631  1  0.16329800  0.85524900  0.13413900  1
  H  632  1  0.20428700  0.85752300  0.17873600  1
  H  633  1  0.43885900  0.84302700  0.47234600  1
  H  634  1  0.48571700  0.84255100  0.51098300  1
  H  635  1  0.47651300  0.75243600  0.42732800  1
  H  636  1  0.52229500  0.75128800  0.46648700  1
  H  641  1  0.04099700  0.83316800  0.04164600  1
  H  642  1  0.05526200  0.81327900  0.53479000  1
  H  643  1  0.53766600  0.80439100  0.53542400  1
  H  644  1  0.53901600  0.82006900  0.01204000  1
  H  693  1  0.77454500  0.59613500  0.48832300  1
  H  694  1  0.78046900  0.65594400  0.47494200  1
  H  695  1  0.79722200  0.61752100  0.59022200  1
  H  696  1  0.80293300  0.67701100  0.57700000  1
  H  697  1  0.86117500  0.68034200  0.51385900  1
  H  698  1  0.90860450  0.72458700  0.51119500  1
  H  699  1  0.81732600  0.77516100  0.51706200  1
  H  700  1  0.77645300  0.81877600  0.51484700  1
  H  701  1  0.72367300  0.68464400  0.52401500  1
  H  702  1  0.67936300  0.73202600  0.52002800  1
  H  703  1  0.67182200  0.79842100  0.45466400  1
  H  704  1  0.61089900  0.79791500  0.44821400  1
  H  705  1  0.66004300  0.80238300  0.56052200  1
  H  706  1  0.59877600  0.80172400  0.55399200  1
  H  707  1  0.68536200  0.86866600  0.50334900  1
  H  708  1  0.73273500  0.91298000  0.50329600  1
  H  709  1  0.91424350  0.86231500  0.51634400  1
  H  710  1  0.86992400  0.90971400  0.51622000  1
  H  711  1  0.78580900  0.91899000  0.56784500  1
  H  712  1  0.78865000  0.97913500  0.57890400  1
  H  713  1  0.81710500  0.93660600  0.46724000  1
  H  714  1  0.82049000  0.99724499  0.47875800  1
  H  715  1  0.92206150  0.78713400  0.45670000  1
  H  716  1  0.98263850  0.79221600  0.44936100  1
  H  717  1  0.99461552  0.80638200  0.55423000  1
  H  718  1  0.93371950  0.80088400  0.56170500  1
  H  771  1  0.59756600  0.81776200  0.98779880  1
  H  772  1  0.65733000  0.81128000  0.97442380  1
  H  773  1  0.61834500  0.79338000  0.08946600  1
  H  774  1  0.67779000  0.78714000  0.07625200  1
  H  775  1  0.68149700  0.72993500  0.01165200  1
  H  776  1  0.72575600  0.68254500  0.00865700  1
  H  777  1  0.77625900  0.77359000  0.01756400  1
  H  778  1  0.81987200  0.81450800  0.01504600  1
  H  779  1  0.68556200  0.86717100  0.02299000  1
  H  780  1  0.73279800  0.91151800  0.01955500  1
  H  781  1  0.80559000  0.91866800  0.95569980  1
  H  782  1  0.80065600  0.97919600  0.94800080  1
  H  783  1  0.79580600  0.93158700  0.06104200  1
  H  784  1  0.79040400  0.99244199  0.05321200  1
  H  785  1  0.87000700  0.90583400  0.00664600  1
  H  786  1  0.91431250  0.85845300  0.00648000  1
  H  787  1  0.86317400  0.67666300  0.01709800  1
  H  788  1  0.91074250  0.72099500  0.01769500  1
  H  789  1  0.91956450  0.80338200  0.06976500  1
  H  790  1  0.97972050  0.80112900  0.08095000  1
  H  791  1  0.93818750  0.77577100  0.96833680  1
  H  792  1  0.99884152  0.77306400  0.97993280  1
  H  793  1  0.79494000  0.66875700  0.95566480  1
  H  794  1  0.79542200  0.60780200  0.94942180  1
  H  795  1  0.79418300  0.59625400  0.05530400  1
  H  796  1  0.79359700  0.65756300  0.06163500  1
  C  1  1  0.99319300  0.39208600  0.01308700  1
  C  2  1  0.99499300  0.39346100  0.97833800  1
  C  3  1  0.99469600  0.42783900  0.96859100  1
  C  5  1  0.99214000  0.42559600  0.02530300  1
  C  6  1  0.99012600  0.43492600  0.05986200  1
  C  7  1  0.99020700  0.46896800  0.07227400  1
  C  9  1  0.99172700  0.52607300  0.07445700  1
  C  10  1  0.99003400  0.51383800  0.10751100  1
  C  11  1  0.98907600  0.47863100  0.10616500  1
  C  12  1  0.99318100  0.56095900  0.06466800  1
  C  13  1  0.99310400  0.57292600  0.03082300  1
  C  15  1  0.99154400  0.57513000  0.97408600  1
  C  16  1  0.99315800  0.60862800  0.98627500  1
  C  17  1  0.99446400  0.60726200  0.02103900  1
  C  18  1  0.99031300  0.56579800  0.93949600  1
  C  19  1  0.99127100  0.53177600  0.92706400  1
  C  21  1  0.99389000  0.47470500  0.92491000  1
  C  22  1  0.99262700  0.48690400  0.89183500  1
  C  23  1  0.99081000  0.52209500  0.89316900  1
  C  24  1  0.99523600  0.43983800  0.93475800  1
  C  25  1  0.99640400  0.41520700  0.90846000  1
  C  26  1  0.96585900  0.40110200  0.89563600  1
  C  27  1  0.96696700  0.37756900  0.86888000  1
  C  28  1  0.99852500  0.36772000  0.85416400  1
  C  29  1  0.02897500  0.38240600  0.86696300  1
  C  30  1  0.02797200  0.40597000  0.89371300  1
  C  31  1  0.99961800  0.34149400  0.82923500  1
  C  32  1  0.02235500  0.31360900  0.83305000  1
  C  33  1  0.02030000  0.28498300  0.81179100  1
  C  34  1  0.99560900  0.28337200  0.78577500  1
  C  35  1  0.97374800  0.31178200  0.78105000  1
  C  36  1  0.97588600  0.34051100  0.80233500  1
  C  37  1  0.98753900  0.59229500  0.91513300  1
  C  38  1  0.95493900  0.60279300  0.90392100  1
  C  39  1  0.95191500  0.62648100  0.87743100  1
  C  40  1  0.98131700  0.64001300  0.86131900  1
  C  41  1  0.01390900  0.62941000  0.87288100  1
  C  42  1  0.01703700  0.60575500  0.89941000  1
  C  43  1  0.97825700  0.66458200  0.83495400  1
  C  44  1  0.95614600  0.69299600  0.83870500  1
  C  45  1  0.95522900  0.71904000  0.81432900  1
  C  46  1  0.97644900  0.71742600  0.78544700  1
  C  47  1  0.99746700  0.68841800  0.78078100  1
  C  48  1  0.99839100  0.66239200  0.80530100  1
  C  49  1  0.99551300  0.58544800  0.09105300  1
  C  50  1  0.02693500  0.59059400  0.10777800  1
  C  51  1  0.02890700  0.61293500  0.13543900  1
  C  52  1  0.99962700  0.63075800  0.14710500  1
  C  53  1  0.96819900  0.62526700  0.13019400  1
  C  54  1  0.96607100  0.60276500  0.10262900  1
  C  55  1  0.00212900  0.65526700  0.17363900  1
  C  56  1  0.97644900  0.65831100  0.19873400  1
  C  57  1  0.97691500  0.68541100  0.22210500  1
  C  58  1  0.00317000  0.71019800  0.22089000  1
  C  59  1  0.02991000  0.70619400  0.19714900  1
  C  60  1  0.02933800  0.67917600  0.17386600  1
  C  61  1  0.98792600  0.40845200  0.08432400  1
  C  62  1  0.01795500  0.39421700  0.09815300  1
  C  63  1  0.95584800  0.39937100  0.09808700  1
  C  64  1  0.95388300  0.37642400  0.12531200  1
  C  65  1  0.98385300  0.36216400  0.13959200  1
  C  66  1  0.01587100  0.37120900  0.12532500  1
  C  67  1  0.98188500  0.33821400  0.16664800  1
  C  68  1  0.00503000  0.33945000  0.19406600  1
  C  69  1  0.00574200  0.31327000  0.21843000  1
  C  70  1  0.98325400  0.28514500  0.21585700  1
  C  71  1  0.95876300  0.28476300  0.18967100  1
  C  72  1  0.95810600  0.31094000  0.16543600  1
  C  115  1  0.98861700  0.25259100  0.76995000  1
  C  116  1  0.97927100  0.74522900  0.76417300  1
  C  117  1  0.00038000  0.74011500  0.23914200  1
  C  118  1  0.98827800  0.25634900  0.23529400  1
  C  123  1  0.39360400  0.01232000  0.51343400  1
  C  124  1  0.39495200  0.01051100  0.47868600  1
  C  125  1  0.42932500  0.01062800  0.46885700  1
  C  127  1  0.42712700  0.01316600  0.52556900  1
  C  128  1  0.43648900  0.01502600  0.56010800  1
  C  129  1  0.47053700  0.01469300  0.57245000  1
  C  131  1  0.52763700  0.01290800  0.57451200  1
  C  132  1  0.51542200  0.01439700  0.60759800  1
  C  133  1  0.48021700  0.01553700  0.60632800  1
  C  134  1  0.56251700  0.01146600  0.56464200  1
  C  135  1  0.57446300  0.01165300  0.53077100  1
  C  137  1  0.57663200  0.01319900  0.47402100  1
  C  138  1  0.61014300  0.01170400  0.48614200  1
  C  139  1  0.60880000  0.01043700  0.52091200  1
  C  140  1  0.56728100  0.01433600  0.43944800  1
  C  141  1  0.53325300  0.01347200  0.42708800  1
  C  143  1  0.47616600  0.01113600  0.42506700  1
  C  144  1  0.48836100  0.01216700  0.39195700  1
  C  145  1  0.52356500  0.01381000  0.39320700  1
  C  146  1  0.44130100  0.00996000  0.43499900  1
  C  147  1  0.41665400  0.00857000  0.40877000  1
  C  148  1  0.40248400  0.03897200  0.39563400  1
  C  149  1  0.37878900  0.03756700  0.36906500  1
  C  150  1  0.36886400  0.00584900  0.35484800  1
  C  151  1  0.38367400  0.97555400  0.36791300  1
  C  152  1  0.40737700  0.97685100  0.39448000  1
  C  153  1  0.34240300  0.00441900  0.33022700  1
  C  154  1  0.31463800  0.98163500  0.33466000  1
  C  155  1  0.28592200  0.98315100  0.31353000  1
  C  156  1  0.28409200  0.00736700  0.28704100  1
  C  157  1  0.31233000  0.02933900  0.28174100  1
  C  158  1  0.34112200  0.02777000  0.30295400  1
  C  159  1  0.59378200  0.01685000  0.41500800  1
  C  160  1  0.60456100  0.04932700  0.40360600  1
  C  161  1  0.62829800  0.05206700  0.37707700  1
  C  162  1  0.64157200  0.02249400  0.36111600  1
  C  163  1  0.63069000  0.99003100  0.37287100  1
  C  164  1  0.60701700  0.98718400  0.39946300  1
  C  165  1  0.66613000  0.02524100  0.33466800  1
  C  166  1  0.69482700  0.04699700  0.33825700  1
  C  167  1  0.72088200  0.04748600  0.31383000  1
  C  168  1  0.71890400  0.02630500  0.28500500  1
  C  169  1  0.68961000  0.00569200  0.28047800  1
  C  170  1  0.66362100  0.00512000  0.30509200  1
  C  171  1  0.58704100  0.00916400  0.59095900  1
  C  172  1  0.59252600  0.97766000  0.60749800  1
  C  173  1  0.61507800  0.97565400  0.63495600  1
  C  174  1  0.63277000  0.00497700  0.64660000  1
  C  175  1  0.62690900  0.03649200  0.62989600  1
  C  176  1  0.60419400  0.03865400  0.60254000  1
  C  177  1  0.65757100  0.00244900  0.67282400  1
  C  178  1  0.66061500  0.02789000  0.69807800  1
  C  179  1  0.68792900  0.02741900  0.72115700  1
  C  180  1  0.71293400  0.00139400  0.71950800  1
  C  181  1  0.70894300  0.97486100  0.69561300  1
  C  182  1  0.68175700  0.97548900  0.67256500  1
  C  183  1  0.41004700  0.01733100  0.58463300  1
  C  184  1  0.39557400  0.98735500  0.59843400  1
  C  185  1  0.40131900  0.04940500  0.59856100  1
  C  186  1  0.37854500  0.05141400  0.62595600  1
  C  187  1  0.36409200  0.02148700  0.64023700  1
  C  188  1  0.37273900  0.98948000  0.62577500  1
  C  189  1  0.34038200  0.02349400  0.66752700  1
  C  190  1  0.34162500  0.00014000  0.69483200  1
  C  191  1  0.31559700  0.99944000  0.71939700  1
  C  192  1  0.28768300  0.02222300  0.71720200  1
  C  193  1  0.28729200  0.04689600  0.69112700  1
  C  194  1  0.31328600  0.04749800  0.66666667  1
  C  237  1  0.25329400  0.01365700  0.27096900  1
  C  238  1  0.74663700  0.02308500  0.26367500  1
  C  239  1  0.74287000  0.00412100  0.73771000  1
  C  240  1  0.25889300  0.01708800  0.73663400  1
  C  245  1  0.06202700  0.91093400  0.74057300  1
  C  246  1  0.08781000  0.93500900  0.73881900  1
  C  247  1  0.07282200  0.96747000  0.73973900  1
  C  249  1  0.03075900  0.92820600  0.74233500  1
  C  250  1  0.99820300  0.91223100  0.74502900  1
  C  251  1  0.96635600  0.92965700  0.74464300  1
  C  253  1  0.92736100  0.97137400  0.74148300  1
  C  254  1  0.90994400  0.94041200  0.74541200  1
  C  255  1  0.93401900  0.91471500  0.74774300  1
  C  256  1  0.91222100  0.00418100  0.73818900  1
  C  257  1  0.93050200  0.03551000  0.73575900  1
  C  259  1  0.97252200  0.07487300  0.73594600  1
  C  260  1  0.94132100  0.09191600  0.73217800  1
  C  261  1  0.91556300  0.06777700  0.73194900  1
  C  262  1  0.00497300  0.09112700  0.73814600  1
  C  263  1  0.03680500  0.07374300  0.73947900  1
  C  265  1  0.07583900  0.03190700  0.74018200  1
  C  266  1  0.09315200  0.06315000  0.74179000  1
  C  267  1  0.06905800  0.08892400  0.74188100  1
  C  268  1  0.09105300  0.99892900  0.73981700  1
  C  269  1  0.12725500  0.99763100  0.73677500  1
  C  270  1  0.14873500  0.00264500  0.76497000  1
  C  271  1  0.18435900  0.00590200  0.76060300  1
  C  272  1  0.19884100  0.00394400  0.72799900  1
  C  273  1  0.17744000  0.99781100  0.70009700  1
  C  274  1  0.14192600  0.99476700  0.70436600  1
  C  275  1  0.00535300  0.12715600  0.74317400  1
  C  276  1  0.99711100  0.13996500  0.77546200  1
  C  277  1  0.99865000  0.17519500  0.78192800  1
  C  278  1  0.00843200  0.19823800  0.75627200  1
  C  279  1  0.01716300  0.18559800  0.72410300  1
  C  280  1  0.01518000  0.15023000  0.71743400  1
  C  281  1  0.87606000  0.00541400  0.73499800  1
  C  282  1  0.86139200  0.00428200  0.70255400  1
  C  283  1  0.82569700  0.00401800  0.69881600  1
  C  284  1  0.80409200  0.00487000  0.72730900  1
  C  285  1  0.81870300  0.00630900  0.75982300  1
  C  286  1  0.85452300  0.00661100  0.76363600  1
  C  287  1  0.99741700  0.87646900  0.75150300  1
  C  288  1  0.98946100  0.85259600  0.72594300  1
  C  289  1  0.00244100  0.86482400  0.78480800  1
  C  290  1  0.99900100  0.82995200  0.79254500  1
  C  291  1  0.99053700  0.80611100  0.76725000  1
  C  292  1  0.98600100  0.81760700  0.73377300  1
  C  323  1  0.91209000  0.93849900  0.23888000  1
  C  324  1  0.93618100  0.91275000  0.23695200  1
  C  325  1  0.96862800  0.92768600  0.23876400  1
  C  327  1  0.92935800  0.96968500  0.24154900  1
  C  328  1  0.91334900  0.00217000  0.24457400  1
  C  329  1  0.93078100  0.03401000  0.24458100  1
  C  331  1  0.97249900  0.07308300  0.24208100  1
  C  332  1  0.94138300  0.09040900  0.24528900  1
  C  333  1  0.91570900  0.06629900  0.24734900  1
  C  334  1  0.00536200  0.08830200  0.23936900  1
  C  335  1  0.03673800  0.07003400  0.23731800  1
  C  337  1  0.07609000  0.02797800  0.23746400  1
  C  338  1  0.09320700  0.05926100  0.23466600  1
  C  339  1  0.06907500  0.08503900  0.23445000  1
  C  340  1  0.09227500  0.99545700  0.23937400  1
  C  341  1  0.07488900  0.96360100  0.24020800  1
  C  343  1  0.03303600  0.92460800  0.24005000  1
  C  344  1  0.06418000  0.90722200  0.24228800  1
  C  345  1  0.08998700  0.93130500  0.24279400  1
  C  346  1  0.00007400  0.90944900  0.23905900  1
  C  347  1  0.99866600  0.87328300  0.23604200  1
  C  348  1  0.99818000  0.85191100  0.26478200  1
  C  349  1  0.99844700  0.81607100  0.26108900  1
  C  350  1  0.99913000  0.80128800  0.22860000  1
  C  351  1  0.99927200  0.82273100  0.20001700  1
  C  352  1  0.99899500  0.85844400  0.20363100  1
  C  353  1  0.12823500  0.99496500  0.24472500  1
  C  354  1  0.14073800  0.00228500  0.27729800  1
  C  355  1  0.17595600  0.00107000  0.28384300  1
  C  356  1  0.19926900  0.99261100  0.25795900  1
  C  357  1  0.18695000  0.98477800  0.22549200  1
  C  358  1  0.15157900  0.98631800  0.21879600  1
  C  359  1  0.00647800  0.12448400  0.23595200  1
  C  360  1  0.00821000  0.13877600  0.20332100  1
  C  361  1  0.00525200  0.17426200  0.19883700  1
  C  362  1  0.00031300  0.19601800  0.22675500  1
  C  363  1  0.99944700  0.18191600  0.25954200  1
  C  364  1  0.00264400  0.14632000  0.26411400  1
  C  365  1  0.87754000  0.00285600  0.25085400  1
  C  366  1  0.85383800  0.01139500  0.22534100  1
  C  367  1  0.86572400  0.99749200  0.28408500  1
  C  368  1  0.83086700  0.00119800  0.29181200  1
  C  369  1  0.80723200  0.01039600  0.26660100  1
  C  370  1  0.81887100  0.01517900  0.23317200  1
  C  401  1  0.78847000  0.18736200  0.78625900  1
  C  402  1  0.79027000  0.18873700  0.75151000  1
  C  403  1  0.78997300  0.22311500  0.74176300  1
  C  405  1  0.78741700  0.22087200  0.79847500  1
  C  406  1  0.78540300  0.23020200  0.83303400  1
  C  407  1  0.78548400  0.26424400  0.84544600  1
  C  409  1  0.78700400  0.32134900  0.84762900  1
  C  410  1  0.78531100  0.30911400  0.88068300  1
  C  411  1  0.78435300  0.27390700  0.87933700  1
  C  412  1  0.78845800  0.35623500  0.83784000  1
  C  413  1  0.78838100  0.36820200  0.80399500  1
  C  415  1  0.78682100  0.37040600  0.74725800  1
  C  416  1  0.78843500  0.40390400  0.75944700  1
  C  417  1  0.78974100  0.40253800  0.79421100  1
  C  418  1  0.78559000  0.36107400  0.71266800  1
  C  419  1  0.78654800  0.32705200  0.70023600  1
  C  421  1  0.78916700  0.26998100  0.69808200  1
  C  422  1  0.78790400  0.28218000  0.66500700  1
  C  423  1  0.78608700  0.31737100  0.66634100  1
  C  424  1  0.79051300  0.23511400  0.70793000  1
  C  425  1  0.79168100  0.21048300  0.68163200  1
  C  426  1  0.76113600  0.19637800  0.66880800  1
  C  427  1  0.76224400  0.17284500  0.64205200  1
  C  428  1  0.79380200  0.16299600  0.62733600  1
  C  429  1  0.82425200  0.17768200  0.64013500  1
  C  430  1  0.82324900  0.20124600  0.66688500  1
  C  431  1  0.79489500  0.13677000  0.60240700  1
  C  432  1  0.81763200  0.10888500  0.60622200  1
  C  433  1  0.81557700  0.08025900  0.58496300  1
  C  434  1  0.79088600  0.07864800  0.55894700  1
  C  435  1  0.76902500  0.10705800  0.55422200  1
  C  436  1  0.77116300  0.13578700  0.57550700  1
  C  437  1  0.78281600  0.38757100  0.68830500  1
  C  438  1  0.75021600  0.39806900  0.67709300  1
  C  439  1  0.74719200  0.42175700  0.65060300  1
  C  440  1  0.77659400  0.43528900  0.63449100  1
  C  441  1  0.80918600  0.42468600  0.64605300  1
  C  442  1  0.81231400  0.40103100  0.67258200  1
  C  443  1  0.77353400  0.45985800  0.60812600  1
  C  444  1  0.75142300  0.48827200  0.61187700  1
  C  445  1  0.75050600  0.51431600  0.58750100  1
  C  446  1  0.77172600  0.51270200  0.55861900  1
  C  447  1  0.79274400  0.48369400  0.55395300  1
  C  448  1  0.79366800  0.45766800  0.57847300  1
  C  449  1  0.79079000  0.38072400  0.86422500  1
  C  450  1  0.82221200  0.38587000  0.88095000  1
  C  451  1  0.82418400  0.40821100  0.90861080  1
  C  452  1  0.79490400  0.42603400  0.92027680  1
  C  453  1  0.76347600  0.42054300  0.90336580  1
  C  454  1  0.76134800  0.39804100  0.87580100  1
  C  455  1  0.79740600  0.45054300  0.94681080  1
  C  456  1  0.77172600  0.45358700  0.97190580  1
  C  457  1  0.77219200  0.48068700  0.99527676  1
  C  458  1  0.79844700  0.50547400  0.99406176  1
  C  459  1  0.82518700  0.50147000  0.97032080  1
  C  460  1  0.82461500  0.47445200  0.94703780  1
  C  461  1  0.78320300  0.20372800  0.85749600  1
  C  462  1  0.81323200  0.18949300  0.87132500  1
  C  463  1  0.75112500  0.19464700  0.87125900  1
  C  464  1  0.74916000  0.17170000  0.89848400  1
  C  465  1  0.77913000  0.15744000  0.91276380  1
  C  466  1  0.81114800  0.16648500  0.89849700  1
  C  467  1  0.77716200  0.13349000  0.93981980  1
  C  468  1  0.80030700  0.13472600  0.96723780  1
  C  469  1  0.80101900  0.10854600  0.99160176  1
  C  470  1  0.77853100  0.08042100  0.98902880  1
  C  471  1  0.75404000  0.08003900  0.96284280  1
  C  472  1  0.75338300  0.10621600  0.93860780  1
  C  515  1  0.78389400  0.04786700  0.54312200  1
  C  516  1  0.77454800  0.54050500  0.53734500  1
  C  517  1  0.79565700  0.53539100  0.01231400  1
  C  518  1  0.78355500  0.05162500  0.00846600  1
  C  523  1  0.18888100  0.80759600  0.28660600  1
  C  524  1  0.19022900  0.80578700  0.25185800  1
  C  525  1  0.22460200  0.80590400  0.24202900  1
  C  527  1  0.22240400  0.80844200  0.29874100  1
  C  528  1  0.23176600  0.81030200  0.33333333  1
  C  529  1  0.26581400  0.80996900  0.34562200  1
  C  531  1  0.32291400  0.80818400  0.34768400  1
  C  532  1  0.31069900  0.80967300  0.38077000  1
  C  533  1  0.27549400  0.81081300  0.37950000  1
  C  534  1  0.35779400  0.80674200  0.33781400  1
  C  535  1  0.36974000  0.80692900  0.30394300  1
  C  537  1  0.37190900  0.80847500  0.24719300  1
  C  538  1  0.40542000  0.80698000  0.25931400  1
  C  539  1  0.40407700  0.80571300  0.29408400  1
  C  540  1  0.36255800  0.80961200  0.21262000  1
  C  541  1  0.32853000  0.80874800  0.20026000  1
  C  543  1  0.27144300  0.80641200  0.19823900  1
  C  544  1  0.28363800  0.80744300  0.16512900  1
  C  545  1  0.31884200  0.80908600  0.16637900  1
  C  546  1  0.23657800  0.80523600  0.20817100  1
  C  547  1  0.21193100  0.80384600  0.18194200  1
  C  548  1  0.19776100  0.83424800  0.16880600  1
  C  549  1  0.17406600  0.83284300  0.14223700  1
  C  550  1  0.16414100  0.80112500  0.12802000  1
  C  551  1  0.17895100  0.77083000  0.14108500  1
  C  552  1  0.20265400  0.77212700  0.16765200  1
  C  553  1  0.13768000  0.79969500  0.10339900  1
  C  554  1  0.10991500  0.77691100  0.10783200  1
  C  555  1  0.08119900  0.77842700  0.08670200  1
  C  556  1  0.07936900  0.80264300  0.06021300  1
  C  557  1  0.10760700  0.82461500  0.05491300  1
  C  558  1  0.13639900  0.82304600  0.07612600  1
  C  559  1  0.38905900  0.81212600  0.18818000  1
  C  560  1  0.39983800  0.84460300  0.17677800  1
  C  561  1  0.42357500  0.84734300  0.15024900  1
  C  562  1  0.43684900  0.81777000  0.13428800  1
  C  563  1  0.42596700  0.78530700  0.14604300  1
  C  564  1  0.40229400  0.78246000  0.17263500  1
  C  565  1  0.46140700  0.82051700  0.10784000  1
  C  566  1  0.49010400  0.84227300  0.11142900  1
  C  567  1  0.51615900  0.84276200  0.08700200  1
  C  568  1  0.51418100  0.82158100  0.05817700  1
  C  569  1  0.48488700  0.80096800  0.05365000  1
  C  570  1  0.45889800  0.80039600  0.07826400  1
  C  571  1  0.38231800  0.80444000  0.36413100  1
  C  572  1  0.38780300  0.77293600  0.38067000  1
  C  573  1  0.41035500  0.77093000  0.40812800  1
  C  574  1  0.42804700  0.80025300  0.41977200  1
  C  575  1  0.42218600  0.83176800  0.40306800  1
  C  576  1  0.39947100  0.83393000  0.37571200  1
  C  577  1  0.45284800  0.79772500  0.44599600  1
  C  578  1  0.45589200  0.82316600  0.47125000  1
  C  579  1  0.48320600  0.82269500  0.49432900  1
  C  580  1  0.50821100  0.79667000  0.49268000  1
  C  581  1  0.50422000  0.77013700  0.46878500  1
  C  582  1  0.47703400  0.77076500  0.44573700  1
  C  583  1  0.20532400  0.81260700  0.35780500  1
  C  584  1  0.19085100  0.78263100  0.37160600  1
  C  585  1  0.19659600  0.84468100  0.37173300  1
  C  586  1  0.17382200  0.84669000  0.39912800  1
  C  587  1  0.15936900  0.81676300  0.41340900  1
  C  588  1  0.16801600  0.78475600  0.39894700  1
  C  589  1  0.13565900  0.81877000  0.44069900  1
  C  590  1  0.13690200  0.79541600  0.46800400  1
  C  591  1  0.11087400  0.79471600  0.49256900  1
  C  592  1  0.08296000  0.81749900  0.49037400  1
  C  593  1  0.08256900  0.84217200  0.46429900  1
  C  594  1  0.10856300  0.84277400  0.43982400  1
  C  637  1  0.04857100  0.80893300  0.04414100  1
  C  638  1  0.54191400  0.81836100  0.03684700  1
  C  639  1  0.53814700  0.79939700  0.51088200  1
  C  640  1  0.05417000  0.81236400  0.50980600  1
  C  645  1  0.85730400  0.70621000  0.51374500  1
  C  646  1  0.88308700  0.73028500  0.51199100  1
  C  647  1  0.86809900  0.76274600  0.51291100  1
  C  649  1  0.82603600  0.72348200  0.51550700  1
  C  650  1  0.79348000  0.70750700  0.51820100  1
  C  651  1  0.76163300  0.72493300  0.51781500  1
  C  653  1  0.72263800  0.76665000  0.51465500  1
  C  654  1  0.70522100  0.73568800  0.51858400  1
  C  655  1  0.72929600  0.70999100  0.52091500  1
  C  656  1  0.70749800  0.79945700  0.51136100  1
  C  657  1  0.72577900  0.83078600  0.50893100  1
  C  659  1  0.76779900  0.87014900  0.50911800  1
  C  660  1  0.73659800  0.88719200  0.50535000  1
  C  661  1  0.71084000  0.86305300  0.50512100  1
  C  662  1  0.80025000  0.88640300  0.51131800  1
  C  663  1  0.83208200  0.86901900  0.51265100  1
  C  665  1  0.87111600  0.82718300  0.51335400  1
  C  666  1  0.88842900  0.85842600  0.51496200  1
  C  667  1  0.86433500  0.88420000  0.51505300  1
  C  668  1  0.88633000  0.79420500  0.51298900  1
  C  669  1  0.92253150  0.79290700  0.50994700  1
  C  670  1  0.94401150  0.79792100  0.53814200  1
  C  671  1  0.97963550  0.80117800  0.53377500  1
  C  672  1  0.99411752  0.79922000  0.50117100  1
  C  673  1  0.97271650  0.79308700  0.47326900  1
  C  674  1  0.93720250  0.79004300  0.47753800  1
  C  675  1  0.80063000  0.92243200  0.51634600  1
  C  676  1  0.79238800  0.93524100  0.54863400  1
  C  677  1  0.79392700  0.97047100  0.55510000  1
  C  678  1  0.80370900  0.99351399  0.52944400  1
  C  679  1  0.81244000  0.98087400  0.49727500  1
  C  680  1  0.81045700  0.94550600  0.49060600  1
  C  681  1  0.67133700  0.80069000  0.50817000  1
  C  682  1  0.65666900  0.79955800  0.47572600  1
  C  683  1  0.62097400  0.79929400  0.47198800  1
  C  684  1  0.59936900  0.80014600  0.50048100  1
  C  685  1  0.61398000  0.80158500  0.53299500  1
  C  686  1  0.64980000  0.80188700  0.53680800  1
  C  687  1  0.79269400  0.67174500  0.52467500  1
  C  688  1  0.78473800  0.64787200  0.49911500  1
  C  689  1  0.79771800  0.66010000  0.55798000  1
  C  690  1  0.79427800  0.62522800  0.56571700  1
  C  691  1  0.78581400  0.60138700  0.54042200  1
  C  692  1  0.78127800  0.61288300  0.50694500  1
  C  723  1  0.70736700  0.73377500  0.01205200  1
  C  724  1  0.73145800  0.70802600  0.01012400  1
  C  725  1  0.76390500  0.72296200  0.01193600  1
  C  727  1  0.72463500  0.76496100  0.01472100  1
  C  728  1  0.70862600  0.79744600  0.01774600  1
  C  729  1  0.72605800  0.82928600  0.01775300  1
  C  731  1  0.76777600  0.86835900  0.01525300  1
  C  732  1  0.73666000  0.88568500  0.01846100  1
  C  733  1  0.71098600  0.86157500  0.02052100  1
  C  734  1  0.80063900  0.88357800  0.01254100  1
  C  735  1  0.83201500  0.86531000  0.01049000  1
  C  737  1  0.87136700  0.82325400  0.01063600  1
  C  738  1  0.88848400  0.85453700  0.00783800  1
  C  739  1  0.86435200  0.88031500  0.00762200  1
  C  740  1  0.88755200  0.79073300  0.01254600  1
  C  741  1  0.87016600  0.75887700  0.01338000  1
  C  743  1  0.82831300  0.71988400  0.01322200  1
  C  744  1  0.85945700  0.70249800  0.01546000  1
  C  745  1  0.88526400  0.72658100  0.01596600  1
  C  746  1  0.79535100  0.70472500  0.01223100  1
  C  747  1  0.79394300  0.66855900  0.00921400  1
  C  748  1  0.79345700  0.64718700  0.03795400  1
  C  749  1  0.79372400  0.61134700  0.03426100  1
  C  750  1  0.79440700  0.59656400  0.00177200  1
  C  751  1  0.79454900  0.61800700  0.97318880  1
  C  752  1  0.79427200  0.65372000  0.97680280  1
  C  753  1  0.92351150  0.79024100  0.01789700  1
  C  754  1  0.93601450  0.79756100  0.05047000  1
  C  755  1  0.97123250  0.79634600  0.05701500  1
  C  756  1  0.99454552  0.78788700  0.03113100  1
  C  757  1  0.98222650  0.78005400  0.99866376  1
  C  758  1  0.94685550  0.78159400  0.99196776  1
  C  759  1  0.80175500  0.91976000  0.00912400  1
  C  760  1  0.80348700  0.93405200  0.97649280  1
  C  761  1  0.80052900  0.96953800  0.97200880  1
  C  762  1  0.79559000  0.99129399  0.99992676  1
  C  763  1  0.79472400  0.97719200  0.03271400  1
  C  764  1  0.79792100  0.94159600  0.03728600  1
  C  765  1  0.67281700  0.79813200  0.02402600  1
  C  766  1  0.64911500  0.80667100  0.99851276  1
  C  767  1  0.66100100  0.79276800  0.05725700  1
  C  768  1  0.62614400  0.79647400  0.06498400  1
  C  769  1  0.60250900  0.80567200  0.03977300  1
  C  770  1  0.61414800  0.81045500  0.00634400  1
  N  4  1  0.99324500  0.44594600  0.99766600  1
  N  8  1  0.99175500  0.49826000  0.05429900  1
  N  14  1  0.99152400  0.55480800  0.00175600  1
  N  20  1  0.99316800  0.50252000  0.94506000  1
  N  126  1  0.44745600  0.01199900  0.49788900  1
  N  130  1  0.49981800  0.01313200  0.55441200  1
  N  136  1  0.55632900  0.01317600  0.50174000  1
  N  142  1  0.50399300  0.01183900  0.44515400  1
  N  248  1  0.03865000  0.96194300  0.74151800  1
  N  252  1  0.96101300  0.96358200  0.74094900  1
  N  258  1  0.96463700  0.04117000  0.73760900  1
  N  264  1  0.04220900  0.03962100  0.73854700  1
  N  319  1  0.01255200  0.23070400  0.76448900  1
  N  320  1  0.77103200  0.00272600  0.72112400  1
  N  321  1  0.98553400  0.77440400  0.77758500  1
  N  322  1  0.23117100  0.01022200  0.72081900  1
  N  326  1  0.96310600  0.96181700  0.24105500  1
  N  330  1  0.96477000  0.03941600  0.24150600  1
  N  336  1  0.04236000  0.03585500  0.23858300  1
  N  342  1  0.04079600  0.95823900  0.23862300  1
  N  397  1  0.23181700  0.98924600  0.26611200  1
  N  398  1  0.99421500  0.22835300  0.21951200  1
  N  399  1  0.77561700  0.01589300  0.27700500  1
  N  400  1  0.00140800  0.76821900  0.22248600  1
  N  404  1  0.78852200  0.24122200  0.77083800  1
  N  408  1  0.78703200  0.29353600  0.82747100  1
  N  414  1  0.78680100  0.35008400  0.77492800  1
  N  420  1  0.78844500  0.29779600  0.71823200  1
  N  526  1  0.24273300  0.80727500  0.27106100  1
  N  530  1  0.29509500  0.80840800  0.32758400  1
  N  536  1  0.35160600  0.80845200  0.27491200  1
  N  542  1  0.29927000  0.80711500  0.21832600  1
  N  648  1  0.83392700  0.75721900  0.51469000  1
  N  652  1  0.75629000  0.75885800  0.51412100  1
  N  658  1  0.75991400  0.83644600  0.51078100  1
  N  664  1  0.83748600  0.83489700  0.51171900  1
  N  719  1  0.80782900  0.02598000  0.53766100  1
  N  720  1  0.56630900  0.79800200  0.49429600  1
  N  721  1  0.78081100  0.56968000  0.55075700  1
  N  722  1  0.02644800  0.80549800  0.49399100  1
  N  726  1  0.75838300  0.75709300  0.01422700  1
  N  730  1  0.76004700  0.83469200  0.01467800  1
  N  736  1  0.83763700  0.83113100  0.01175500  1
  N  742  1  0.83607300  0.75351500  0.01179500  1
  N  797  1  0.02709400  0.78452200  0.03928400  1
  N  798  1  0.78949200  0.02362900  0.99268376  1
  N  799  1  0.57089400  0.81116900  0.05017700  1
  N  800  1  0.79668500  0.56349500  0.99565776  1
