# generated using pymatgen
data_H22C37N10
_symmetry_space_group_name_H-M   'P 1'
_cell_length_a   32.39570000
_cell_length_b   47.48870000
_cell_length_c   47.48870000
_cell_angle_alpha   90.00000000
_cell_angle_beta   90.00000000
_cell_angle_gamma   90.00000000
_symmetry_Int_Tables_number   1
_chemical_formula_structural   H22C37N10
_chemical_formula_sum   'H352 C592 N160'
_cell_volume   73058.02547766
_cell_formula_units_Z   16
loop_
 _symmetry_equiv_pos_site_id
 _symmetry_equiv_pos_as_xyz
  1  'x, y, z'
loop_
 _atom_site_type_symbol
 _atom_site_label
 _atom_site_symmetry_multiplicity
 _atom_site_fract_x
 _atom_site_fract_y
 _atom_site_fract_z
 _atom_site_occupancy
  H  25  1  0.02199000  0.18938900  0.32404500  1
  H  26  1  0.02246600  0.16853500  0.36990400  1
  H  27  1  0.01985300  0.13987000  0.41348500  1
  H  28  1  0.01654200  0.10534500  0.45033800  1
  H  29  1  0.00887800  0.04051600  0.38972600  1
  H  30  1  0.01114000  0.10881200  0.28700700  1
  H  31  1  0.92480800  0.08194700  0.34897100  1
  H  32  1  0.90071500  0.00434900  0.30855300  1
  H  33  1  0.97321900  0.99880500  0.29870700  1
  H  34  1  0.10134400  0.08078500  0.34838400  1
  H  35  1  0.05005300  0.99835000  0.29832300  1
  H  36  1  0.12286200  0.00300600  0.30769800  1
  H  66  1  0.02234200  0.83691000  0.70335600  1
  H  67  1  0.02338800  0.85668700  0.65706900  1
  H  68  1  0.02428400  0.88417800  0.61309700  1
  H  69  1  0.02461800  0.91769900  0.57530700  1
  H  70  1  0.01200200  0.98417400  0.63379200  1
  H  71  1  0.01047100  0.91829800  0.73845300  1
  H  72  1  0.92482300  0.94401500  0.67530900  1
  H  73  1  0.90068100  0.02225300  0.71447700  1
  H  74  1  0.97312600  0.02787900  0.72440100  1
  H  75  1  0.10154700  0.94494400  0.67676900  1
  H  76  1  0.04979700  0.02838200  0.72489600  1
  H  77  1  0.12267800  0.02354000  0.71595300  1
  H  107  1  0.52186600  0.70204600  0.18895900  1
  H  108  1  0.52231600  0.65619300  0.16809600  1
  H  109  1  0.51972300  0.61262700  0.13943600  1
  H  110  1  0.51648500  0.57577200  0.10491300  1
  H  111  1  0.50872500  0.63637400  0.04008300  1
  H  112  1  0.51089200  0.73909900  0.10839600  1
  H  113  1  0.42456900  0.67689500  0.08132300  1
  H  114  1  0.40054700  0.71749800  0.00381500  1
  H  115  1  0.47301300  0.72755300  0.99844300  1
  H  116  1  0.60108900  0.67761700  0.08025700  1
  H  117  1  0.54976100  0.72783800  0.99794000  1
  H  118  1  0.62254600  0.71834700  0.00249600  1
  H  148  1  0.52244600  0.32272900  0.83652000  1
  H  149  1  0.52345200  0.36900700  0.85632500  1
  H  150  1  0.52430700  0.41296700  0.88385100  1
  H  151  1  0.52456000  0.45073400  0.91739800  1
  H  152  1  0.51219100  0.39219000  0.98384100  1
  H  153  1  0.51080200  0.28757500  0.91790000  1
  H  154  1  0.42510900  0.35058000  0.94354300  1
  H  155  1  0.40092700  0.31162300  0.02188700  1
  H  156  1  0.47339000  0.30181000  0.02759900  1
  H  157  1  0.60182100  0.34920700  0.94454800  1
  H  158  1  0.55006100  0.30136800  0.02813800  1
  H  159  1  0.62294400  0.31026700  0.02325900  1
  H  189  1  0.50169900  0.84017000  0.32268300  1
  H  190  1  0.50244600  0.86104000  0.36815500  1
  H  191  1  0.50732000  0.88948600  0.41141700  1
  H  192  1  0.51084600  0.92381500  0.44833600  1
  H  193  1  0.51716100  0.98898400  0.38795100  1
  H  194  1  0.51469200  0.92043100  0.28528400  1
  H  195  1  0.60230200  0.95055800  0.34837900  1
  H  196  1  0.62241300  0.02400400  0.29989800  1
  H  197  1  0.55055200  0.02673600  0.28949200  1
  H  198  1  0.42376300  0.95112600  0.34814800  1
  H  199  1  0.47669600  0.02703600  0.28943700  1
  H  200  1  0.40469600  0.02466500  0.29965600  1
  H  230  1  0.50040900  0.18637900  0.70463200  1
  H  231  1  0.50056600  0.16661400  0.65866100  1
  H  232  1  0.50199000  0.13932600  0.61491800  1
  H  233  1  0.50206100  0.10599300  0.57705200  1
  H  234  1  0.51436200  0.03925400  0.63534800  1
  H  235  1  0.51540800  0.10535600  0.73995800  1
  H  236  1  0.60232100  0.07662300  0.67582700  1
  H  237  1  0.62265700  0.00235700  0.72303400  1
  H  238  1  0.55085400  0.99941600  0.73349800  1
  H  239  1  0.42357200  0.07606300  0.67672900  1
  H  240  1  0.47707600  0.99901100  0.73366000  1
  H  241  1  0.40499500  0.00158500  0.72384500  1
  H  271  1  0.00174100  0.32300900  0.18582400  1
  H  272  1  0.00247300  0.36848100  0.16496600  1
  H  273  1  0.00734700  0.41175000  0.13654200  1
  H  274  1  0.01087500  0.44868500  0.10222600  1
  H  275  1  0.01731000  0.38831900  0.03704000  1
  H  276  1  0.01490100  0.28563200  0.10556600  1
  H  277  1  0.10244900  0.34891000  0.07533800  1
  H  278  1  0.12268500  0.30002100  0.00218100  1
  H  279  1  0.05087800  0.28943700  0.99956700  1
  H  280  1  0.92397800  0.34860300  0.07472800  1
  H  281  1  0.97692300  0.28934600  0.99925100  1
  H  282  1  0.90495700  0.29968200  0.00146200  1
  H  312  1  0.00022500  0.70502400  0.83968900  1
  H  313  1  0.00043800  0.65904200  0.85942500  1
  H  314  1  0.00196300  0.61527600  0.88667900  1
  H  315  1  0.00213600  0.57738900  0.91998600  1
  H  316  1  0.01436600  0.63565200  0.98676000  1
  H  317  1  0.01516900  0.74031000  0.92073400  1
  H  318  1  0.10223100  0.67647200  0.94920000  1
  H  319  1  0.12252400  0.72326200  0.02373000  1
  H  320  1  0.05065600  0.73344100  0.02689100  1
  H  321  1  0.92334200  0.67728300  0.94976600  1
  H  322  1  0.97685500  0.73371100  0.02722000  1
  H  323  1  0.90471900  0.72405800  0.02447400  1
  H  335  1  0.08651200  0.02326400  0.50262000  1
  H  337  1  0.92511400  0.00381700  0.54911500  1
  H  338  1  0.91359000  0.02015100  0.51915700  1
  H  340  1  0.98231000  0.00331600  0.58304500  1
  H  342  1  0.05742200  0.06045400  0.46850500  1
  H  349  1  0.58646400  0.52353900  0.02278900  1
  H  351  1  0.42518000  0.47666700  0.00382100  1
  H  352  1  0.41361000  0.50662700  0.02013500  1
  H  354  1  0.48251500  0.44290500  0.00310900  1
  H  356  1  0.55726800  0.55752600  0.06011300  1
  H  363  1  0.44006800  0.00420400  0.50176100  1
  H  365  1  0.60112300  0.02030500  0.55004600  1
  H  366  1  0.61278800  0.00524200  0.51945400  1
  H  368  1  0.54355700  0.02008600  0.58361200  1
  H  370  1  0.46933100  0.96779600  0.46682600  1
  H  377  1  0.94011900  0.50191000  0.02149000  1
  H  379  1  0.10106600  0.55063400  0.00623800  1
  H  380  1  0.11273700  0.52008700  0.02139300  1
  H  382  1  0.04314300  0.58406700  0.00614600  1
  H  384  1  0.96941900  0.46718900  0.05826900  1
  H  391  1  0.75609400  0.00779900  0.28446900  1
  H  393  1  0.80506100  0.01742600  0.40051800  1
  H  394  1  0.75765900  0.00436200  0.40378200  1
  H  396  1  0.86115800  0.01473900  0.36405500  1
  H  398  1  0.68530100  0.99351100  0.29457500  1
  H  405  1  0.75632900  0.01895600  0.73913100  1
  H  407  1  0.80487500  0.00859500  0.62306500  1
  H  408  1  0.75754500  0.02177200  0.61982000  1
  H  410  1  0.86109000  0.01153400  0.65961700  1
  H  412  1  0.68534400  0.03293300  0.72898500  1
  H  419  1  0.25589400  0.74043400  0.00617900  1
  H  421  1  0.30574400  0.62470000  0.01731300  1
  H  422  1  0.25835400  0.62110500  0.00431800  1
  H  424  1  0.36176700  0.66186400  0.01380600  1
  H  426  1  0.18487100  0.72983000  0.99273000  1
  H  433  1  0.25686100  0.28577100  0.01767400  1
  H  435  1  0.30402900  0.40219400  0.00841400  1
  H  436  1  0.25663200  0.40505600  0.02156900  1
  H  438  1  0.36059400  0.36626100  0.01086900  1
  H  440  1  0.18591900  0.29532900  0.03211200  1
  H  447  1  0.27070200  0.01850700  0.74083400  1
  H  449  1  0.22007500  0.00986900  0.62504300  1
  H  450  1  0.26773800  0.02241800  0.62155800  1
  H  452  1  0.16449900  0.01300000  0.66169800  1
  H  454  1  0.34188200  0.03170400  0.73030800  1
  H  461  1  0.27045200  0.00794800  0.28363800  1
  H  463  1  0.21986400  0.01603000  0.39948000  1
  H  464  1  0.26763500  0.00365200  0.40291000  1
  H  466  1  0.16400500  0.01266700  0.36244400  1
  H  468  1  0.34157900  0.99455600  0.29403400  1
  H  475  1  0.77026900  0.28459000  0.01767700  1
  H  477  1  0.72106500  0.40070100  0.00949600  1
  H  478  1  0.76882700  0.40386400  0.02195400  1
  H  480  1  0.66492500  0.36389500  0.01294500  1
  H  482  1  0.84152800  0.29460900  0.03107900  1
  H  489  1  0.77068000  0.74185400  0.00675800  1
  H  491  1  0.71907400  0.62629400  0.01574900  1
  H  492  1  0.76680200  0.62256400  0.00338500  1
  H  494  1  0.66369300  0.66339900  0.01215600  1
  H  496  1  0.84197300  0.73098600  0.99408200  1
  H  503  1  0.96135000  0.18317800  0.20423800  1
  H  505  1  0.08914800  0.26576200  0.22100200  1
  H  506  1  0.09724600  0.24345100  0.24729400  1
  H  508  1  0.03134400  0.28188800  0.19836400  1
  H  510  1  0.99045900  0.14966200  0.24337300  1
  H  517  1  0.96033400  0.84345500  0.82201800  1
  H  519  1  0.09088000  0.76262100  0.80634700  1
  H  520  1  0.09883000  0.78509100  0.78017600  1
  H  522  1  0.03359000  0.74575600  0.82868700  1
  H  524  1  0.98952700  0.87749600  0.78323400  1
  H  531  1  0.46122800  0.82183300  0.18291800  1
  H  533  1  0.58898600  0.80477000  0.26553200  1
  H  534  1  0.59706100  0.77854700  0.24314000  1
  H  536  1  0.53155200  0.82771800  0.28156600  1
  H  538  1  0.49026600  0.78273300  0.14932100  1
  H  545  1  0.46061700  0.20403500  0.84305700  1
  H  547  1  0.59103800  0.21987300  0.76213600  1
  H  548  1  0.59898700  0.24601200  0.78464300  1
  H  550  1  0.53386700  0.19737800  0.74534500  1
  H  552  1  0.48971000  0.24285300  0.87708400  1
  H  577  1  0.14546300  0.25256200  0.82942800  1
  H  578  1  0.14593900  0.23170800  0.87528700  1
  H  579  1  0.14332600  0.20304300  0.91886800  1
  H  580  1  0.14001500  0.16851800  0.95572100  1
  H  581  1  0.13235100  0.10368900  0.89510900  1
  H  582  1  0.13461300  0.17198500  0.79239000  1
  H  583  1  0.04828120  0.14512000  0.85435400  1
  H  584  1  0.02418820  0.06752190  0.81393600  1
  H  585  1  0.09669220  0.06197790  0.80409000  1
  H  586  1  0.22481700  0.14395800  0.85376700  1
  H  587  1  0.17352600  0.06152290  0.80370600  1
  H  588  1  0.24633500  0.06617890  0.81308100  1
  H  618  1  0.14581500  0.90008300  0.20873900  1
  H  619  1  0.14686100  0.91986000  0.16245200  1
  H  620  1  0.14775700  0.94735100  0.11848000  1
  H  621  1  0.14809100  0.98087200  0.08069040  1
  H  622  1  0.13547500  0.04734690  0.13917500  1
  H  623  1  0.13394400  0.98147100  0.24383600  1
  H  624  1  0.04829620  0.00718792  0.18069200  1
  H  625  1  0.02415420  0.08542590  0.21986000  1
  H  626  1  0.09659920  0.09105190  0.22978400  1
  H  627  1  0.22502000  0.00811692  0.18215200  1
  H  628  1  0.17327000  0.09155490  0.23027900  1
  H  629  1  0.24615100  0.08671290  0.22133600  1
  H  659  1  0.64533900  0.76521900  0.69434200  1
  H  660  1  0.64578900  0.71936600  0.67347900  1
  H  661  1  0.64319600  0.67580000  0.64481900  1
  H  662  1  0.63995800  0.63894500  0.61029600  1
  H  663  1  0.63219800  0.69954700  0.54546600  1
  H  664  1  0.63436500  0.80227200  0.61377900  1
  H  665  1  0.54804200  0.74006800  0.58670600  1
  H  666  1  0.52402000  0.78067100  0.50919800  1
  H  667  1  0.59648600  0.79072600  0.50382600  1
  H  668  1  0.72456200  0.74079000  0.58564000  1
  H  669  1  0.67323400  0.79101100  0.50332300  1
  H  670  1  0.74601900  0.78152000  0.50787900  1
  H  700  1  0.64591900  0.38590200  0.34190300  1
  H  701  1  0.64692500  0.43218000  0.36170800  1
  H  702  1  0.64778000  0.47614000  0.38923400  1
  H  703  1  0.64803300  0.51390700  0.42278100  1
  H  704  1  0.63566400  0.45536300  0.48922400  1
  H  705  1  0.63427500  0.35074800  0.42328300  1
  H  706  1  0.54858200  0.41375300  0.44892600  1
  H  707  1  0.52440000  0.37479600  0.52727000  1
  H  708  1  0.59686300  0.36498300  0.53298200  1
  H  709  1  0.72529400  0.41238000  0.44993100  1
  H  710  1  0.67353400  0.36454100  0.53352100  1
  H  711  1  0.74641700  0.37344000  0.52864200  1
  H  741  1  0.62517200  0.90334300  0.82806600  1
  H  742  1  0.62591900  0.92421300  0.87353800  1
  H  743  1  0.63079300  0.95265900  0.91680000  1
  H  744  1  0.63431900  0.98698800  0.95371900  1
  H  745  1  0.64063400  0.05215690  0.89333400  1
  H  746  1  0.63816500  0.98360400  0.79066700  1
  H  747  1  0.72577500  0.01373090  0.85376200  1
  H  748  1  0.74588600  0.08717690  0.80528100  1
  H  749  1  0.67402500  0.08990890  0.79487500  1
  H  750  1  0.54723600  0.01429890  0.85353100  1
  H  751  1  0.60016900  0.09020890  0.79482000  1
  H  752  1  0.52816900  0.08783790  0.80503900  1
  H  782  1  0.62388200  0.24955200  0.21001500  1
  H  783  1  0.62403900  0.22978700  0.16404400  1
  H  784  1  0.62546300  0.20249900  0.12030100  1
  H  785  1  0.62553400  0.16916600  0.08243540  1
  H  786  1  0.63783500  0.10242700  0.14073100  1
  H  787  1  0.63888100  0.16852900  0.24534100  1
  H  788  1  0.72579400  0.13979600  0.18121000  1
  H  789  1  0.74613000  0.06552990  0.22841700  1
  H  790  1  0.67432700  0.06258890  0.23888100  1
  H  791  1  0.54704500  0.13923600  0.18211200  1
  H  792  1  0.60054900  0.06218390  0.23904300  1
  H  793  1  0.52846800  0.06475790  0.22922800  1
  H  823  1  0.12521400  0.38618200  0.69120700  1
  H  824  1  0.12594600  0.43165400  0.67034900  1
  H  825  1  0.13082000  0.47492300  0.64192500  1
  H  826  1  0.13434800  0.51185800  0.60760900  1
  H  827  1  0.14078300  0.45149200  0.54242300  1
  H  828  1  0.13837400  0.34880500  0.61094900  1
  H  829  1  0.22592200  0.41208300  0.58072100  1
  H  830  1  0.24615800  0.36319400  0.50756400  1
  H  831  1  0.17435100  0.35261000  0.50495000  1
  H  832  1  0.04745120  0.41177600  0.58011100  1
  H  833  1  0.10039600  0.35251900  0.50463400  1
  H  834  1  0.02843020  0.36285500  0.50684500  1
  H  864  1  0.12369800  0.76819700  0.34507200  1
  H  865  1  0.12391100  0.72221500  0.36480800  1
  H  866  1  0.12543600  0.67844900  0.39206200  1
  H  867  1  0.12560900  0.64056200  0.42536900  1
  H  868  1  0.13783900  0.69882500  0.49214300  1
  H  869  1  0.13864200  0.80348300  0.42611700  1
  H  870  1  0.22570400  0.73964500  0.45458300  1
  H  871  1  0.24599700  0.78643500  0.52911300  1
  H  872  1  0.17412900  0.79661400  0.53227400  1
  H  873  1  0.04681520  0.74045600  0.45514900  1
  H  874  1  0.10032800  0.79688400  0.53260300  1
  H  875  1  0.02819220  0.78723100  0.52985700  1
  H  887  1  0.20998500  0.08643690  0.00800339  1
  H  889  1  0.04858720  0.06698990  0.05449840  1
  H  890  1  0.03706320  0.08332390  0.02454040  1
  H  892  1  0.10578300  0.06648890  0.08842840  1
  H  894  1  0.18089500  0.12362700  0.97388800  1
  H  901  1  0.70993700  0.58671200  0.52817200  1
  H  903  1  0.54865300  0.53984000  0.50920400  1
  H  904  1  0.53708300  0.56980000  0.52551800  1
  H  906  1  0.60598800  0.50607800  0.50849200  1
  H  908  1  0.68074100  0.62069900  0.56549600  1
  H  915  1  0.56354100  0.06737690  0.00714439  1
  H  917  1  0.72459600  0.08347790  0.05542940  1
  H  918  1  0.73626100  0.06841490  0.02483740  1
  H  920  1  0.66703000  0.08325890  0.08899540  1
  H  922  1  0.59280400  0.03096890  0.97220900  1
  H  929  1  0.06359220  0.56508300  0.52687300  1
  H  931  1  0.22453900  0.61380700  0.51162100  1
  H  932  1  0.23621000  0.58326000  0.52677600  1
  H  934  1  0.16661600  0.64724000  0.51152900  1
  H  936  1  0.09289220  0.53036200  0.56365200  1
  H  943  1  0.87956700  0.07097190  0.78985200  1
  H  945  1  0.92853400  0.08059890  0.90590100  1
  H  946  1  0.88113200  0.06753490  0.90916500  1
  H  948  1  0.98463100  0.07791190  0.86943800  1
  H  950  1  0.80877400  0.05668390  0.79995800  1
  H  957  1  0.87980200  0.08212890  0.24451400  1
  H  959  1  0.92834800  0.07176790  0.12844800  1
  H  960  1  0.88101800  0.08494490  0.12520300  1
  H  962  1  0.98456300  0.07470690  0.16500000  1
  H  964  1  0.80881700  0.09610590  0.23436800  1
  H  971  1  0.37936700  0.80360700  0.51156200  1
  H  973  1  0.42921700  0.68787300  0.52269600  1
  H  974  1  0.38182700  0.68427800  0.50970100  1
  H  976  1  0.48524000  0.72503700  0.51918900  1
  H  978  1  0.30834400  0.79300300  0.49811300  1
  H  985  1  0.38033400  0.34894400  0.52305700  1
  H  987  1  0.42750200  0.46536700  0.51379700  1
  H  988  1  0.38010500  0.46822900  0.52695200  1
  H  990  1  0.48406700  0.42943400  0.51625200  1
  H  992  1  0.30939200  0.35850200  0.53749500  1
  H  999  1  0.39417500  0.08167990  0.24621700  1
  H  1001  1  0.34354800  0.07304190  0.13042600  1
  H  1002  1  0.39121100  0.08559090  0.12694100  1
  H  1004  1  0.28797200  0.07617290  0.16708100  1
  H  1006  1  0.46535500  0.09487690  0.23569100  1
  H  1013  1  0.39392500  0.07112090  0.78902100  1
  H  1015  1  0.34333700  0.07920290  0.90486300  1
  H  1016  1  0.39110800  0.06682490  0.90829300  1
  H  1018  1  0.28747800  0.07583990  0.86782700  1
  H  1020  1  0.46505200  0.05772890  0.79941700  1
  H  1027  1  0.89374200  0.34776300  0.52306000  1
  H  1029  1  0.84453800  0.46387400  0.51487900  1
  H  1030  1  0.89230000  0.46703700  0.52733700  1
  H  1032  1  0.78839800  0.42706800  0.51832800  1
  H  1034  1  0.96500100  0.35778200  0.53646200  1
  H  1041  1  0.89415300  0.80502700  0.51214100  1
  H  1043  1  0.84254700  0.68946700  0.52113200  1
  H  1044  1  0.89027500  0.68573700  0.50876800  1
  H  1046  1  0.78716600  0.72657200  0.51753900  1
  H  1048  1  0.96544600  0.79415900  0.49946500  1
  H  1055  1  0.08482320  0.24635100  0.70962100  1
  H  1057  1  0.21262100  0.32893500  0.72638500  1
  H  1058  1  0.22071900  0.30662400  0.75267700  1
  H  1060  1  0.15481700  0.34506100  0.70374700  1
  H  1062  1  0.11393200  0.21283500  0.74875600  1
  H  1069  1  0.08380720  0.90662800  0.32740100  1
  H  1071  1  0.21435300  0.82579400  0.31173000  1
  H  1072  1  0.22230300  0.84826400  0.28555900  1
  H  1074  1  0.15706300  0.80892900  0.33407000  1
  H  1076  1  0.11300000  0.94066900  0.28861700  1
  H  1083  1  0.58470100  0.88500600  0.68830100  1
  H  1085  1  0.71245900  0.86794300  0.77091500  1
  H  1086  1  0.72053400  0.84172000  0.74852300  1
  H  1088  1  0.65502500  0.89089100  0.78694900  1
  H  1090  1  0.61373900  0.84590600  0.65470400  1
  H  1097  1  0.58409000  0.26720800  0.34844000  1
  H  1099  1  0.71451100  0.28304600  0.26751900  1
  H  1100  1  0.72246000  0.30918500  0.29002600  1
  H  1102  1  0.65734000  0.26055100  0.25072800  1
  H  1104  1  0.61318300  0.30602600  0.38246700  1
  C  1  1  0.04812900  0.06115400  0.33150800  1
  C  2  1  0.03368300  0.03722600  0.31734900  1
  C  3  1  0.99079800  0.03763100  0.31731900  1
  C  4  1  0.97718800  0.06175000  0.33159400  1
  C  5  1  0.93461200  0.06502800  0.33745900  1
  C  6  1  0.90628700  0.04369000  0.32949100  1
  C  7  1  0.92075800  0.01993500  0.31441100  1
  C  8  1  0.96298300  0.01672000  0.30834700  1
  C  9  1  0.06086300  0.01604700  0.30807100  1
  C  10  1  0.10327300  0.01875400  0.31382600  1
  C  11  1  0.11858600  0.04232300  0.32880600  1
  C  12  1  0.09090200  0.06395300  0.33700600  1
  C  13  1  0.01410400  0.10890300  0.33175900  1
  C  14  1  0.01709300  0.12648200  0.35541500  1
  C  15  1  0.01668600  0.11036500  0.38004200  1
  C  16  1  0.01361300  0.08184300  0.37301500  1
  C  17  1  0.01814900  0.11901500  0.40837000  1
  C  18  1  0.01642300  0.09862400  0.42987200  1
  C  19  1  0.01359700  0.06945600  0.42371500  1
  C  20  1  0.01166500  0.06132400  0.39487500  1
  C  21  1  0.01326500  0.12143800  0.30435400  1
  C  22  1  0.01599300  0.15132700  0.30092000  1
  C  23  1  0.01980500  0.16792100  0.32554200  1
  C  24  1  0.02003200  0.15587700  0.35259500  1
  C  37  1  0.01298600  0.07875900  0.34159900  1
  C  42  1  0.04815900  0.96489800  0.69300800  1
  C  43  1  0.03360400  0.98913100  0.70658000  1
  C  44  1  0.99073000  0.98878200  0.70637200  1
  C  45  1  0.97719200  0.96444900  0.69242900  1
  C  46  1  0.93460600  0.96109900  0.68657700  1
  C  47  1  0.90626500  0.98260300  0.69412400  1
  C  48  1  0.92071800  0.00657500  0.70886300  1
  C  49  1  0.96291800  0.00986700  0.71493100  1
  C  50  1  0.06069400  0.01049600  0.71554600  1
  C  51  1  0.10315500  0.00766600  0.71005700  1
  C  52  1  0.11861200  0.98380600  0.69561500  1
  C  53  1  0.09099700  0.96199600  0.68776500  1
  C  54  1  0.01397000  0.91720700  0.69372400  1
  C  55  1  0.01745000  0.89905100  0.67054400  1
  C  56  1  0.01772600  0.91453700  0.64554200  1
  C  57  1  0.01434000  0.94324200  0.65174800  1
  C  58  1  0.02141600  0.90512200  0.61756300  1
  C  59  1  0.02168600  0.92493300  0.59552200  1
  C  60  1  0.01755700  0.95412500  0.60076100  1
  C  61  1  0.01399400  0.96318200  0.62929600  1
  C  62  1  0.01284100  0.90528600  0.72140900  1
  C  63  1  0.01576400  0.87548300  0.72555300  1
  C  64  1  0.01999600  0.85833000  0.70135800  1
  C  65  1  0.02055500  0.86974100  0.67405200  1
  C  78  1  0.01307300  0.94711700  0.68308600  1
  C  83  1  0.54788100  0.69462800  0.06072800  1
  C  84  1  0.53343800  0.70891100  0.03687100  1
  C  85  1  0.49054700  0.70885200  0.03723600  1
  C  86  1  0.47693100  0.69449300  0.06130600  1
  C  87  1  0.43435700  0.68853400  0.06448800  1
  C  88  1  0.40607200  0.69647000  0.04310500  1
  C  89  1  0.42055300  0.71165100  0.01942300  1
  C  90  1  0.46276200  0.71780600  0.01629600  1
  C  91  1  0.56058400  0.71805900  0.01561600  1
  C  92  1  0.60298400  0.71224900  0.01827200  1
  C  93  1  0.61831400  0.69723300  0.04181200  1
  C  94  1  0.59064600  0.68905400  0.06346500  1
  C  95  1  0.51387700  0.69435000  0.10847200  1
  C  96  1  0.51689000  0.67069100  0.12604800  1
  C  97  1  0.51650100  0.64606700  0.10993000  1
  C  98  1  0.51341400  0.65309400  0.08140700  1
  C  99  1  0.51800400  0.61774000  0.11858100  1
  C  100  1  0.51633100  0.59623800  0.09819000  1
  C  101  1  0.51353700  0.60238700  0.06901800  1
  C  102  1  0.51151500  0.63123000  0.06089200  1
  C  103  1  0.51304000  0.72175000  0.12101700  1
  C  104  1  0.51582500  0.72518000  0.15090600  1
  C  105  1  0.51964600  0.70055500  0.16749200  1
  C  106  1  0.51986500  0.67350500  0.15544200  1
  C  119  1  0.51274100  0.68451000  0.07832400  1
  C  124  1  0.54843100  0.33301600  0.96453400  1
  C  125  1  0.53388900  0.31944000  0.98876900  1
  C  126  1  0.49101000  0.31972200  0.98845100  1
  C  127  1  0.47745500  0.33350600  0.96402800  1
  C  128  1  0.43488800  0.33942100  0.96070100  1
  C  129  1  0.40652300  0.33188700  0.98219100  1
  C  130  1  0.42098200  0.31725400  0.00622600  1
  C  131  1  0.46319100  0.31123400  0.00955900  1
  C  132  1  0.56096600  0.31061000  0.01019700  1
  C  133  1  0.60342600  0.31609600  0.00735700  1
  C  134  1  0.61889400  0.33043600  0.98343900  1
  C  135  1  0.59127000  0.33824900  0.96162400  1
  C  136  1  0.51425700  0.33230600  0.91683200  1
  C  137  1  0.51765800  0.35550100  0.89869100  1
  C  138  1  0.51787400  0.38049200  0.91419300  1
  C  139  1  0.51453400  0.37426300  0.94289700  1
  C  140  1  0.52146700  0.40848200  0.90479500  1
  C  141  1  0.52168700  0.43051200  0.92462100  1
  C  142  1  0.51759000  0.42524800  0.95380900  1
  C  143  1  0.51411500  0.39670200  0.96284900  1
  C  144  1  0.51314800  0.30462600  0.90489600  1
  C  145  1  0.51598800  0.30050700  0.87508900  1
  C  146  1  0.52014900  0.32471500  0.85794600  1
  C  147  1  0.52069300  0.35201400  0.86937400  1
  C  160  1  0.51334300  0.34291900  0.94674400  1
  C  165  1  0.47746200  0.96774100  0.32874300  1
  C  166  1  0.49202200  0.98980700  0.31191200  1
  C  167  1  0.53472200  0.98959200  0.31194100  1
  C  168  1  0.54894300  0.96731500  0.32867800  1
  C  169  1  0.59177900  0.96576300  0.33495500  1
  C  170  1  0.61961900  0.98609500  0.32380100  1
  C  171  1  0.60362300  0.00814600  0.30686400  1
  C  172  1  0.56146000  0.00995100  0.30068000  1
  C  173  1  0.46555600  0.01036100  0.30068600  1
  C  174  1  0.42330900  0.00876300  0.30673400  1
  C  175  1  0.40695800  0.98675000  0.32356100  1
  C  176  1  0.43455200  0.96634300  0.33482900  1
  C  177  1  0.51186100  0.92045000  0.32991800  1
  C  178  1  0.50903100  0.90295900  0.35357600  1
  C  179  1  0.50968200  0.91917600  0.37809400  1
  C  180  1  0.51255900  0.94773200  0.37103700  1
  C  181  1  0.50873100  0.91036900  0.40636600  1
  C  182  1  0.51057400  0.93065800  0.42790800  1
  C  183  1  0.51291700  0.95986900  0.42186600  1
  C  184  1  0.51455900  0.96814700  0.39301300  1
  C  185  1  0.51237700  0.90774800  0.30258700  1
  C  186  1  0.51012900  0.87783700  0.29890400  1
  C  187  1  0.50546800  0.86148200  0.32380500  1
  C  188  1  0.50546800  0.87360900  0.35082000  1
  C  201  1  0.51300600  0.95069700  0.33956500  1
  C  206  1  0.47747100  0.05909000  0.69556300  1
  C  207  1  0.49219200  0.03667800  0.71186100  1
  C  208  1  0.53488000  0.03686500  0.71160200  1
  C  209  1  0.54897400  0.05938700  0.69514100  1
  C  210  1  0.59182900  0.06113200  0.68893400  1
  C  211  1  0.61975800  0.04064400  0.69973600  1
  C  212  1  0.60380900  0.01827200  0.71626600  1
  C  213  1  0.56167600  0.01633900  0.72247800  1
  C  214  1  0.46581800  0.01595300  0.72287600  1
  C  215  1  0.42353200  0.01763400  0.71700400  1
  C  216  1  0.40701100  0.03995700  0.70067300  1
  C  217  1  0.43449600  0.06059100  0.68969400  1
  C  218  1  0.51187700  0.10635200  0.69534600  1
  C  219  1  0.50827100  0.12441200  0.67217000  1
  C  220  1  0.50829300  0.10882400  0.64726900  1
  C  221  1  0.51181500  0.08009800  0.65350600  1
  C  222  1  0.50485400  0.11836900  0.61933400  1
  C  223  1  0.50481100  0.09865800  0.59724700  1
  C  224  1  0.50893200  0.06946100  0.60241000  1
  C  225  1  0.51232400  0.06026100  0.63094500  1
  C  226  1  0.51268800  0.11841900  0.72296900  1
  C  227  1  0.51008300  0.14822800  0.72736400  1
  C  228  1  0.50459200  0.16513200  0.70292600  1
  C  229  1  0.50424600  0.15365900  0.67564600  1
  C  242  1  0.51293200  0.07634300  0.68490500  1
  C  247  1  0.97767000  0.32909300  0.05823800  1
  C  248  1  0.99225500  0.31208000  0.03631700  1
  C  249  1  0.03495800  0.31213900  0.03653600  1
  C  250  1  0.04914000  0.32907200  0.05867600  1
  C  251  1  0.09197200  0.33537200  0.06021800  1
  C  252  1  0.11984900  0.32417600  0.03992900  1
  C  253  1  0.10389100  0.30706000  0.01800300  1
  C  254  1  0.06174500  0.30078300  0.01626200  1
  C  255  1  0.96578000  0.30071100  0.01584500  1
  C  256  1  0.92354200  0.30683300  0.01734800  1
  C  257  1  0.90719100  0.32386200  0.03920300  1
  C  258  1  0.93475100  0.33515900  0.05961800  1
  C  259  1  0.01202600  0.33026600  0.10555300  1
  C  260  1  0.00914300  0.35391800  0.12305000  1
  C  261  1  0.00978800  0.37843700  0.10684300  1
  C  262  1  0.01269900  0.37139300  0.07828400  1
  C  263  1  0.00878500  0.40670700  0.11565900  1
  C  264  1  0.01064700  0.42825700  0.09537900  1
  C  265  1  0.01306400  0.42222200  0.06617100  1
  C  266  1  0.01469400  0.39337500  0.05787700  1
  C  267  1  0.01254500  0.30293300  0.11825100  1
  C  268  1  0.01025100  0.29923700  0.14816000  1
  C  269  1  0.00554700  0.32413400  0.16451600  1
  C  270  1  0.00555600  0.35115100  0.15239800  1
  C  283  1  0.01318900  0.33992300  0.07530700  1
  C  288  1  0.97731200  0.69575800  0.96703700  1
  C  289  1  0.99201100  0.71191800  0.98955000  1
  C  290  1  0.03469400  0.71175000  0.98932100  1
  C  291  1  0.04881100  0.69548100  0.96666700  1
  C  292  1  0.09170300  0.68943300  0.96479900  1
  C  293  1  0.11962800  0.70021800  0.98529400  1
  C  294  1  0.10366300  0.71656600  0.00779200  1
  C  295  1  0.06150000  0.72264100  0.00983300  1
  C  296  1  0.96562800  0.72293800  0.01026200  1
  C  297  1  0.92331700  0.71717400  0.00847700  1
  C  298  1  0.90681200  0.70100400  0.98603400  1
  C  299  1  0.93429400  0.69009200  0.96536100  1
  C  300  1  0.01168400  0.69569700  0.91971300  1
  C  301  1  0.00812500  0.67253000  0.90163500  1
  C  302  1  0.00822000  0.64761700  0.91720000  1
  C  303  1  0.01173900  0.65383300  0.94592900  1
  C  304  1  0.00481200  0.61968200  0.90764000  1
  C  305  1  0.00484600  0.59758200  0.92733500  1
  C  306  1  0.00894600  0.60273000  0.95653600  1
  C  307  1  0.01231700  0.63125900  0.96575100  1
  C  308  1  0.01246500  0.72332700  0.90766100  1
  C  309  1  0.00989300  0.72773900  0.87785200  1
  C  310  1  0.00441700  0.70330800  0.86093400  1
  C  311  1  0.00411200  0.67602100  0.87239000  1
  C  324  1  0.01277700  0.68522800  0.94971100  1
  C  329  1  0.00764900  0.00503200  0.54301500  1
  C  331  1  0.05617100  0.02076100  0.50796900  1
  C  332  1  0.02424500  0.03109000  0.49046600  1
  C  334  1  0.97509900  0.01505200  0.52546300  1
  C  339  1  0.00197600  0.99389900  0.57004700  1
  C  341  1  0.03260100  0.04815200  0.46711700  1
  C  343  1  0.50769400  0.48298200  0.00473500  1
  C  345  1  0.55613300  0.51814000  0.02033600  1
  C  346  1  0.52418700  0.53563200  0.03066500  1
  C  348  1  0.47511900  0.50047900  0.01481400  1
  C  353  1  0.50209400  0.45592500  0.99364000  1
  C  355  1  0.53251200  0.55895800  0.04775700  1
  C  357  1  0.51866500  0.02007800  0.54336900  1
  C  359  1  0.47038000  0.00632300  0.50734300  1
  C  360  1  0.50237200  0.99656200  0.48956000  1
  C  362  1  0.55128300  0.01061600  0.52557100  1
  C  367  1  0.52413400  0.03006400  0.57087400  1
  C  369  1  0.49398500  0.98028100  0.46566600  1
  C  371  1  0.01865800  0.54370800  0.00597700  1
  C  373  1  0.97042200  0.50756400  0.01949600  1
  C  374  1  0.00239200  0.48987200  0.02944300  1
  C  376  1  0.05126600  0.52601300  0.01564400  1
  C  381  1  0.02410000  0.57120900  0.99598100  1
  C  383  1  0.99403000  0.46599700  0.04575000  1
  C  385  1  0.80641000  0.01905100  0.34382200  1
  C  387  1  0.76072100  0.00785800  0.30576500  1
  C  388  1  0.72973600  0.99894800  0.32472700  1
  C  390  1  0.77566500  0.00999100  0.36322300  1
  C  395  1  0.84548000  0.02797400  0.35178900  1
  C  397  1  0.69052400  0.99192800  0.31520900  1
  C  399  1  0.80640700  0.00719200  0.67976900  1
  C  401  1  0.76089100  0.01876500  0.71783100  1
  C  402  1  0.72988100  0.02766000  0.69887100  1
  C  404  1  0.77563100  0.01624000  0.66037700  1
  C  409  1  0.84540900  0.99814000  0.67169400  1
  C  411  1  0.69066900  0.03474800  0.70838700  1
  C  413  1  0.30663300  0.68141000  0.01828800  1
  C  415  1  0.26068500  0.71915800  0.00650800  1
  C  416  1  0.22982100  0.69997600  0.99785500  1
  C  418  1  0.27601900  0.66179700  0.00948800  1
  C  423  1  0.34574700  0.67357400  0.02732000  1
  C  425  1  0.19044400  0.70926100  0.99090400  1
  C  427  1  0.30625600  0.34551100  0.00654800  1
  C  429  1  0.26117000  0.30709600  0.01769300  1
  C  430  1  0.22992300  0.32579700  0.02674200  1
  C  432  1  0.27523000  0.36465300  0.01571800  1
  C  437  1  0.34521300  0.35380600  0.99765100  1
  C  439  1  0.19087600  0.31597600  0.03382100  1
  C  441  1  0.21934800  0.00807900  0.68174000  1
  C  443  1  0.26580800  0.01857600  0.71956800  1
  C  444  1  0.29676800  0.02722100  0.70046300  1
  C  446  1  0.25007600  0.01686200  0.66219900  1
  C  451  1  0.17993900  0.99965600  0.67398700  1
  C  453  1  0.33626700  0.03379600  0.70977000  1
  C  455  1  0.21913300  0.01809400  0.34279700  1
  C  457  1  0.26560300  0.00783500  0.30491000  1
  C  458  1  0.29665100  0.99925100  0.32397400  1
  C  460  1  0.24995000  0.00936300  0.36229400  1
  C  465  1  0.17968400  0.02631300  0.35067000  1
  C  467  1  0.33612800  0.99271300  0.31461300  1
  C  469  1  0.71965700  0.34401800  0.00743000  1
  C  471  1  0.76566000  0.30588500  0.01779200  1
  C  472  1  0.79689900  0.32478000  0.02643700  1
  C  474  1  0.75068300  0.36334700  0.01620400  1
  C  479  1  0.68031600  0.35214200  0.99913100  1
  C  481  1  0.83626500  0.31520100  0.03300600  1
  C  483  1  0.71883000  0.68299100  0.01732000  1
  C  485  1  0.76561700  0.72060400  0.00675600  1
  C  486  1  0.79649500  0.70135600  0.99829300  1
  C  488  1  0.74946400  0.66329800  0.00873400  1
  C  493  1  0.67930900  0.67541900  0.02564600  1
  C  495  1  0.83613000  0.71049500  0.99186200  1
  C  497  1  0.02138600  0.23971800  0.19974900  1
  C  499  1  0.98521100  0.19619300  0.20957600  1
  C  500  1  0.01049200  0.19011100  0.23315800  1
  C  502  1  0.04780100  0.23331800  0.22304700  1
  C  507  1  0.02184900  0.26622900  0.18619500  1
  C  509  1  0.00531600  0.16640400  0.25071400  1
  C  511  1  0.02195500  0.78775300  0.82707000  1
  C  513  1  0.98469900  0.83078600  0.81691600  1
  C  514  1  0.01031600  0.83725300  0.79360700  1
  C  516  1  0.04868400  0.79455500  0.80405200  1
  C  521  1  0.02286100  0.76123900  0.84061800  1
  C  523  1  0.00483400  0.86089400  0.77600900  1
  C  525  1  0.52134100  0.82622100  0.23942100  1
  C  527  1  0.48512600  0.81648400  0.19589700  1
  C  528  1  0.51038600  0.79289700  0.18977100  1
  C  530  1  0.54776400  0.80294600  0.23296700  1
  C  535  1  0.52188100  0.83982400  0.26590900  1
  C  537  1  0.50517500  0.77538200  0.16603800  1
  C  539  1  0.52219900  0.19905500  0.78733600  1
  C  541  1  0.48500600  0.20912600  0.83040700  1
  C  542  1  0.51057400  0.23246600  0.83685700  1
  C  544  1  0.54892800  0.22206500  0.79414400  1
  C  549  1  0.52310300  0.18547400  0.76083700  1
  C  551  1  0.50508900  0.25005700  0.86050500  1
  C  553  1  0.17160200  0.12432700  0.83689100  1
  C  554  1  0.15715600  0.10039900  0.82273200  1
  C  555  1  0.11427100  0.10080400  0.82270200  1
  C  556  1  0.10066100  0.12492300  0.83697700  1
  C  557  1  0.05808520  0.12820100  0.84284200  1
  C  558  1  0.02976020  0.10686300  0.83487400  1
  C  559  1  0.04423120  0.08310790  0.81979400  1
  C  560  1  0.08645620  0.07989290  0.81373000  1
  C  561  1  0.18433600  0.07921990  0.81345400  1
  C  562  1  0.22674600  0.08192690  0.81920900  1
  C  563  1  0.24205900  0.10549600  0.83418900  1
  C  564  1  0.21437500  0.12712600  0.84238900  1
  C  565  1  0.13757700  0.17207600  0.83714200  1
  C  566  1  0.14056600  0.18965500  0.86079800  1
  C  567  1  0.14015900  0.17353800  0.88542500  1
  C  568  1  0.13708600  0.14501600  0.87839800  1
  C  569  1  0.14162200  0.18218800  0.91375300  1
  C  570  1  0.13989600  0.16179700  0.93525500  1
  C  571  1  0.13707000  0.13262900  0.92909800  1
  C  572  1  0.13513800  0.12449700  0.90025800  1
  C  573  1  0.13673800  0.18461100  0.80973700  1
  C  574  1  0.13946600  0.21450000  0.80630300  1
  C  575  1  0.14327800  0.23109400  0.83092500  1
  C  576  1  0.14350500  0.21905000  0.85797800  1
  C  589  1  0.13645900  0.14193200  0.84698200  1
  C  594  1  0.17163200  0.02807090  0.19839100  1
  C  595  1  0.15707700  0.05230390  0.21196300  1
  C  596  1  0.11420300  0.05195490  0.21175500  1
  C  597  1  0.10066500  0.02762190  0.19781200  1
  C  598  1  0.05807920  0.02427190  0.19196000  1
  C  599  1  0.02973820  0.04577590  0.19950700  1
  C  600  1  0.04419120  0.06974790  0.21424600  1
  C  601  1  0.08639120  0.07303990  0.22031400  1
  C  602  1  0.18416700  0.07366890  0.22092900  1
  C  603  1  0.22662800  0.07083890  0.21544000  1
  C  604  1  0.24208500  0.04697890  0.20099800  1
  C  605  1  0.21447000  0.02516890  0.19314800  1
  C  606  1  0.13744300  0.98038000  0.19910700  1
  C  607  1  0.14092300  0.96222400  0.17592700  1
  C  608  1  0.14119900  0.97771000  0.15092500  1
  C  609  1  0.13781300  0.00641492  0.15713100  1
  C  610  1  0.14488900  0.96829500  0.12294600  1
  C  611  1  0.14515900  0.98810600  0.10090500  1
  C  612  1  0.14103000  0.01729790  0.10614400  1
  C  613  1  0.13746700  0.02635490  0.13467900  1
  C  614  1  0.13631400  0.96845900  0.22679200  1
  C  615  1  0.13923700  0.93865600  0.23093600  1
  C  616  1  0.14346900  0.92150300  0.20674100  1
  C  617  1  0.14402800  0.93291400  0.17943500  1
  C  630  1  0.13654600  0.01028990  0.18846900  1
  C  635  1  0.67135400  0.75780100  0.56611100  1
  C  636  1  0.65691100  0.77208400  0.54225400  1
  C  637  1  0.61402000  0.77202500  0.54261900  1
  C  638  1  0.60040400  0.75766600  0.56668900  1
  C  639  1  0.55783000  0.75170700  0.56987100  1
  C  640  1  0.52954500  0.75964300  0.54848800  1
  C  641  1  0.54402600  0.77482400  0.52480600  1
  C  642  1  0.58623500  0.78097900  0.52167900  1
  C  643  1  0.68405700  0.78123200  0.52099900  1
  C  644  1  0.72645700  0.77542200  0.52365500  1
  C  645  1  0.74178700  0.76040600  0.54719500  1
  C  646  1  0.71411900  0.75222700  0.56884800  1
  C  647  1  0.63735000  0.75752300  0.61385500  1
  C  648  1  0.64036300  0.73386400  0.63143100  1
  C  649  1  0.63997400  0.70924000  0.61531300  1
  C  650  1  0.63688700  0.71626700  0.58679000  1
  C  651  1  0.64147700  0.68091300  0.62396400  1
  C  652  1  0.63980400  0.65941100  0.60357300  1
  C  653  1  0.63701000  0.66556000  0.57440100  1
  C  654  1  0.63498800  0.69440300  0.56627500  1
  C  655  1  0.63651300  0.78492300  0.62640000  1
  C  656  1  0.63929800  0.78835300  0.65628900  1
  C  657  1  0.64311900  0.76372800  0.67287500  1
  C  658  1  0.64333800  0.73667800  0.66082500  1
  C  671  1  0.63621400  0.74768300  0.58370700  1
  C  676  1  0.67190400  0.39618900  0.46991700  1
  C  677  1  0.65736200  0.38261300  0.49415200  1
  C  678  1  0.61448300  0.38289500  0.49383400  1
  C  679  1  0.60092800  0.39667900  0.46941100  1
  C  680  1  0.55836100  0.40259400  0.46608400  1
  C  681  1  0.52999600  0.39506000  0.48757400  1
  C  682  1  0.54445500  0.38042700  0.51160900  1
  C  683  1  0.58666400  0.37440700  0.51494200  1
  C  684  1  0.68443900  0.37378300  0.51558000  1
  C  685  1  0.72689900  0.37926900  0.51274000  1
  C  686  1  0.74236700  0.39360900  0.48882200  1
  C  687  1  0.71474300  0.40142200  0.46700700  1
  C  688  1  0.63773000  0.39547900  0.42221500  1
  C  689  1  0.64113100  0.41867400  0.40407400  1
  C  690  1  0.64134700  0.44366500  0.41957600  1
  C  691  1  0.63800700  0.43743600  0.44828000  1
  C  692  1  0.64494000  0.47165500  0.41017800  1
  C  693  1  0.64516000  0.49368500  0.43000400  1
  C  694  1  0.64106300  0.48842100  0.45919200  1
  C  695  1  0.63758800  0.45987500  0.46823200  1
  C  696  1  0.63662100  0.36779900  0.41027900  1
  C  697  1  0.63946100  0.36368000  0.38047200  1
  C  698  1  0.64362200  0.38788800  0.36332900  1
  C  699  1  0.64416600  0.41518700  0.37475700  1
  C  712  1  0.63681600  0.40609200  0.45212700  1
  C  717  1  0.60093500  0.03091390  0.83412600  1
  C  718  1  0.61549500  0.05297990  0.81729500  1
  C  719  1  0.65819500  0.05276490  0.81732400  1
  C  720  1  0.67241600  0.03048790  0.83406100  1
  C  721  1  0.71525200  0.02893590  0.84033800  1
  C  722  1  0.74309200  0.04926790  0.82918400  1
  C  723  1  0.72709600  0.07131890  0.81224700  1
  C  724  1  0.68493300  0.07312390  0.80606300  1
  C  725  1  0.58902900  0.07353390  0.80606900  1
  C  726  1  0.54678200  0.07193590  0.81211700  1
  C  727  1  0.53043100  0.04992290  0.82894400  1
  C  728  1  0.55802500  0.02951590  0.84021200  1
  C  729  1  0.63533400  0.98362300  0.83530100  1
  C  730  1  0.63250400  0.96613200  0.85895900  1
  C  731  1  0.63315500  0.98234900  0.88347700  1
  C  732  1  0.63603200  0.01090490  0.87642000  1
  C  733  1  0.63220400  0.97354200  0.91174900  1
  C  734  1  0.63404700  0.99383100  0.93329100  1
  C  735  1  0.63639000  0.02304190  0.92724900  1
  C  736  1  0.63803200  0.03131990  0.89839600  1
  C  737  1  0.63585000  0.97092100  0.80797000  1
  C  738  1  0.63360200  0.94101000  0.80428700  1
  C  739  1  0.62894100  0.92465500  0.82918800  1
  C  740  1  0.62894100  0.93678200  0.85620300  1
  C  753  1  0.63647900  0.01386990  0.84494800  1
  C  758  1  0.60094400  0.12226300  0.20094600  1
  C  759  1  0.61566500  0.09985090  0.21724400  1
  C  760  1  0.65835300  0.10003800  0.21698500  1
  C  761  1  0.67244700  0.12256000  0.20052400  1
  C  762  1  0.71530200  0.12430500  0.19431700  1
  C  763  1  0.74323100  0.10381700  0.20511900  1
  C  764  1  0.72728200  0.08144490  0.22164900  1
  C  765  1  0.68514900  0.07951190  0.22786100  1
  C  766  1  0.58929100  0.07912590  0.22825900  1
  C  767  1  0.54700500  0.08080690  0.22238700  1
  C  768  1  0.53048400  0.10313000  0.20605600  1
  C  769  1  0.55796900  0.12376400  0.19507700  1
  C  770  1  0.63535000  0.16952500  0.20072900  1
  C  771  1  0.63174400  0.18758500  0.17755300  1
  C  772  1  0.63176600  0.17199700  0.15265200  1
  C  773  1  0.63528800  0.14327100  0.15888900  1
  C  774  1  0.62832700  0.18154200  0.12471700  1
  C  775  1  0.62828400  0.16183100  0.10263000  1
  C  776  1  0.63240500  0.13263400  0.10779300  1
  C  777  1  0.63579700  0.12343400  0.13632800  1
  C  778  1  0.63616100  0.18159200  0.22835200  1
  C  779  1  0.63355600  0.21140100  0.23274700  1
  C  780  1  0.62806500  0.22830500  0.20830900  1
  C  781  1  0.62771900  0.21683200  0.18102900  1
  C  794  1  0.63640500  0.13951600  0.19028800  1
  C  799  1  0.10114300  0.39226600  0.56362100  1
  C  800  1  0.11572800  0.37525300  0.54170000  1
  C  801  1  0.15843100  0.37531200  0.54191900  1
  C  802  1  0.17261300  0.39224500  0.56405900  1
  C  803  1  0.21544500  0.39854500  0.56560100  1
  C  804  1  0.24332200  0.38734900  0.54531200  1
  C  805  1  0.22736400  0.37023300  0.52338600  1
  C  806  1  0.18521800  0.36395600  0.52164500  1
  C  807  1  0.08925320  0.36388400  0.52122800  1
  C  808  1  0.04701520  0.37000600  0.52273100  1
  C  809  1  0.03066420  0.38703500  0.54458600  1
  C  810  1  0.05822420  0.39833200  0.56500100  1
  C  811  1  0.13549900  0.39343900  0.61093600  1
  C  812  1  0.13261600  0.41709100  0.62843300  1
  C  813  1  0.13326100  0.44161000  0.61222600  1
  C  814  1  0.13617200  0.43456600  0.58366700  1
  C  815  1  0.13225800  0.46988000  0.62104200  1
  C  816  1  0.13412000  0.49143000  0.60076200  1
  C  817  1  0.13653700  0.48539500  0.57155400  1
  C  818  1  0.13816700  0.45654800  0.56326000  1
  C  819  1  0.13601800  0.36610600  0.62363400  1
  C  820  1  0.13372400  0.36241000  0.65354300  1
  C  821  1  0.12902000  0.38730700  0.66989900  1
  C  822  1  0.12902900  0.41432400  0.65778100  1
  C  835  1  0.13666200  0.40309600  0.58069000  1
  C  840  1  0.10078500  0.75893100  0.47242000  1
  C  841  1  0.11548400  0.77509100  0.49493300  1
  C  842  1  0.15816700  0.77492300  0.49470400  1
  C  843  1  0.17228400  0.75865400  0.47205000  1
  C  844  1  0.21517600  0.75260600  0.47018200  1
  C  845  1  0.24310100  0.76339100  0.49067700  1
  C  846  1  0.22713600  0.77973900  0.51317500  1
  C  847  1  0.18497300  0.78581400  0.51521600  1
  C  848  1  0.08910120  0.78611100  0.51564500  1
  C  849  1  0.04679020  0.78034700  0.51386000  1
  C  850  1  0.03028520  0.76417700  0.49141700  1
  C  851  1  0.05776720  0.75326500  0.47074400  1
  C  852  1  0.13515700  0.75887000  0.42509600  1
  C  853  1  0.13159800  0.73570300  0.40701800  1
  C  854  1  0.13169300  0.71079000  0.42258300  1
  C  855  1  0.13521200  0.71700600  0.45131200  1
  C  856  1  0.12828500  0.68285500  0.41302300  1
  C  857  1  0.12831900  0.66075500  0.43271800  1
  C  858  1  0.13241900  0.66590300  0.46191900  1
  C  859  1  0.13579000  0.69443200  0.47113400  1
  C  860  1  0.13593800  0.78650000  0.41304400  1
  C  861  1  0.13336600  0.79091200  0.38323500  1
  C  862  1  0.12789000  0.76648100  0.36631700  1
  C  863  1  0.12758500  0.73919400  0.37777300  1
  C  876  1  0.13625000  0.74840100  0.45509400  1
  C  881  1  0.13112200  0.06820490  0.04839840  1
  C  883  1  0.17964400  0.08393390  0.01335240  1
  C  884  1  0.14771800  0.09426290  0.99584900  1
  C  886  1  0.09857220  0.07822490  0.03084640  1
  C  891  1  0.12544900  0.05707190  0.07543040  1
  C  893  1  0.15607400  0.11132500  0.97250000  1
  C  895  1  0.63116700  0.54615500  0.51011800  1
  C  897  1  0.67960600  0.58131300  0.52571900  1
  C  898  1  0.64766000  0.59880500  0.53604800  1
  C  900  1  0.59859200  0.56365200  0.52019700  1
  C  905  1  0.62556700  0.51909800  0.49902300  1
  C  907  1  0.65598500  0.62213100  0.55314000  1
  C  909  1  0.64213800  0.08325090  0.04875240  1
  C  911  1  0.59385300  0.06949590  0.01272640  1
  C  912  1  0.62584500  0.05973490  0.99494300  1
  C  914  1  0.67475600  0.07378890  0.03095440  1
  C  919  1  0.64760700  0.09323690  0.07625740  1
  C  921  1  0.61745800  0.04345390  0.97104900  1
  C  923  1  0.14213100  0.60688100  0.51136000  1
  C  925  1  0.09389520  0.57073700  0.52487900  1
  C  926  1  0.12586500  0.55304500  0.53482600  1
  C  928  1  0.17473900  0.58918600  0.52102700  1
  C  933  1  0.14757300  0.63438200  0.50136400  1
  C  935  1  0.11750300  0.52917000  0.55113300  1
  C  937  1  0.92988300  0.08222390  0.84920500  1
  C  939  1  0.88419400  0.07103090  0.81114800  1
  C  940  1  0.85320900  0.06212090  0.83011000  1
  C  942  1  0.89913800  0.07316390  0.86860600  1
  C  947  1  0.96895300  0.09114690  0.85717200  1
  C  949  1  0.81399700  0.05510090  0.82059200  1
  C  951  1  0.92988000  0.07036490  0.18515200  1
  C  953  1  0.88436400  0.08193790  0.22321400  1
  C  954  1  0.85335400  0.09083290  0.20425400  1
  C  956  1  0.89910400  0.07941290  0.16576000  1
  C  961  1  0.96888200  0.06131290  0.17707700  1
  C  963  1  0.81414200  0.09792090  0.21377000  1
  C  965  1  0.43010600  0.74458300  0.52367100  1
  C  967  1  0.38415800  0.78233100  0.51189100  1
  C  968  1  0.35329400  0.76314900  0.50323800  1
  C  970  1  0.39949200  0.72497000  0.51487100  1
  C  975  1  0.46922000  0.73674700  0.53270300  1
  C  977  1  0.31391700  0.77243400  0.49628700  1
  C  979  1  0.42972900  0.40868400  0.51193100  1
  C  981  1  0.38464300  0.37026900  0.52307600  1
  C  982  1  0.35339600  0.38897000  0.53212500  1
  C  984  1  0.39870300  0.42782600  0.52110100  1
  C  989  1  0.46868600  0.41697900  0.50303400  1
  C  991  1  0.31434900  0.37914900  0.53920400  1
  C  993  1  0.34282100  0.07125190  0.18712300  1
  C  995  1  0.38928100  0.08174890  0.22495100  1
  C  996  1  0.42024100  0.09039390  0.20584600  1
  C  998  1  0.37354900  0.08003490  0.16758200  1
  C  1003  1  0.30341200  0.06282890  0.17937000  1
  C  1005  1  0.45974000  0.09696890  0.21515300  1
  C  1007  1  0.34260600  0.08126690  0.84818000  1
  C  1009  1  0.38907600  0.07100790  0.81029300  1
  C  1010  1  0.42012400  0.06242390  0.82935700  1
  C  1012  1  0.37342300  0.07253590  0.86767700  1
  C  1017  1  0.30315700  0.08948590  0.85605300  1
  C  1019  1  0.45960100  0.05588590  0.81999600  1
  C  1021  1  0.84313000  0.40719100  0.51281300  1
  C  1023  1  0.88913300  0.36905800  0.52317500  1
  C  1024  1  0.92037200  0.38795300  0.53182000  1
  C  1026  1  0.87415600  0.42652000  0.52158700  1
  C  1031  1  0.80378900  0.41531500  0.50451400  1
  C  1033  1  0.95973800  0.37837400  0.53838900  1
  C  1035  1  0.84230300  0.74616400  0.52270300  1
  C  1037  1  0.88909000  0.78377700  0.51213900  1
  C  1038  1  0.91996800  0.76452900  0.50367600  1
  C  1040  1  0.87293700  0.72647100  0.51411700  1
  C  1045  1  0.80278200  0.73859200  0.53102900  1
  C  1047  1  0.95960300  0.77366800  0.49724500  1
  C  1049  1  0.14485900  0.30289100  0.70513200  1
  C  1051  1  0.10868400  0.25936600  0.71495900  1
  C  1052  1  0.13396500  0.25328400  0.73854100  1
  C  1054  1  0.17127400  0.29649100  0.72843000  1
  C  1059  1  0.14532200  0.32940200  0.69157800  1
  C  1061  1  0.12878900  0.22957700  0.75609700  1
  C  1063  1  0.14542800  0.85092600  0.33245300  1
  C  1065  1  0.10817200  0.89395900  0.32229900  1
  C  1066  1  0.13378900  0.90042600  0.29899000  1
  C  1068  1  0.17215700  0.85772800  0.30943500  1
  C  1073  1  0.14633400  0.82441200  0.34600100  1
  C  1075  1  0.12830700  0.92406700  0.28139200  1
  C  1077  1  0.64481400  0.88939400  0.74480400  1
  C  1079  1  0.60859900  0.87965700  0.70128000  1
  C  1080  1  0.63385900  0.85607000  0.69515400  1
  C  1082  1  0.67123700  0.86611900  0.73835000  1
  C  1087  1  0.64535400  0.90299700  0.77129200  1
  C  1089  1  0.62864800  0.83855500  0.67142100  1
  C  1091  1  0.64567200  0.26222800  0.29271900  1
  C  1093  1  0.60847900  0.27229900  0.33579000  1
  C  1094  1  0.63404700  0.29563900  0.34224000  1
  C  1096  1  0.67240100  0.28523800  0.29952700  1
  C  1101  1  0.64657600  0.24864700  0.26622000  1
  C  1103  1  0.62856200  0.31323000  0.36588800  1
  N  38  1  0.00926700  0.05091500  0.44513500  1
  N  39  1  0.15856700  0.04389400  0.33521400  1
  N  40  1  0.86651300  0.04559200  0.33635500  1
  N  41  1  0.01602000  0.16659900  0.27691400  1
  N  79  1  0.01874200  0.97052500  0.57770100  1
  N  80  1  0.15865000  0.98213400  0.68937400  1
  N  81  1  0.86645800  0.98065500  0.68729300  1
  N  82  1  0.01565800  0.86067800  0.74983900  1
  N  120  1  0.50922500  0.58096900  0.05047200  1
  N  121  1  0.65828200  0.69077200  0.04333400  1
  N  122  1  0.36633000  0.68944500  0.04482500  1
  N  123  1  0.51586800  0.74918000  0.16618900  1
  N  161  1  0.51875100  0.44830400  0.97022100  1
  N  162  1  0.65894600  0.33664200  0.98173400  1
  N  163  1  0.36668100  0.33857300  0.98009100  1
  N  164  1  0.51592000  0.27622500  0.86027700  1
  N  202  1  0.51726900  0.97810300  0.44357500  1
  N  203  1  0.36713800  0.98826400  0.33114400  1
  N  204  1  0.65932500  0.98768200  0.33162800  1
  N  205  1  0.51089500  0.86529100  0.27286000  1
  N  243  1  0.50794400  0.05341100  0.57911600  1
  N  244  1  0.36714400  0.03849400  0.69319200  1
  N  245  1  0.65952000  0.03917000  0.69195500  1
  N  246  1  0.51085800  0.16035500  0.75359500  1
  N  284  1  0.01734400  0.44392200  0.04792000  1
  N  285  1  0.86741500  0.33156700  0.03760900  1
  N  286  1  0.15948600  0.33218400  0.03823900  1
  N  287  1  0.01104500  0.27318500  0.16069300  1
  N  325  1  0.00809100  0.57941900  0.97256500  1
  N  326  1  0.86684400  0.69374500  0.98727800  1
  N  327  1  0.15947500  0.69264000  0.98661300  1
  N  328  1  0.01065000  0.75397900  0.86574000  1
  N  330  1  0.04677600  0.00852700  0.53310100  1
  N  333  1  0.98515900  0.02775500  0.50048900  1
  N  336  1  0.93451000  0.01316800  0.53207300  1
  N  344  1  0.54679200  0.49297400  0.00815200  1
  N  347  1  0.48513900  0.52549300  0.02745400  1
  N  350  1  0.43454800  0.49379100  0.01303200  1
  N  358  1  0.47962500  0.01733100  0.53306300  1
  N  361  1  0.54135300  0.99910000  0.50000100  1
  N  364  1  0.59181300  0.01192400  0.53248600  1
  N  372  1  0.97964900  0.53330300  0.00852100  1
  N  375  1  0.04134200  0.50043000  0.02712900  1
  N  378  1  0.09176300  0.53304800  0.01457300  1
  N  386  1  0.79726000  0.01735500  0.31591900  1
  N  389  1  0.73887600  0.00077400  0.35263700  1
  N  392  1  0.78006700  0.01046900  0.39159200  1
  N  400  1  0.79735000  0.00909600  0.70767900  1
  N  403  1  0.73893800  0.02563000  0.67096500  1
  N  406  1  0.77992500  0.01560700  0.63200400  1
  N  414  1  0.29729200  0.70926100  0.01616900  1
  N  417  1  0.23916100  0.67213200  0.00011700  1
  N  420  1  0.28062200  0.63345100  0.01034700  1
  N  428  1  0.29752600  0.31753800  0.00816500  1
  N  431  1  0.23864300  0.35377200  0.02496800  1
  N  434  1  0.27917100  0.39305500  0.01531900  1
  N  442  1  0.22890200  0.00954900  0.70959500  1
  N  445  1  0.28721600  0.02562300  0.67260400  1
  N  448  1  0.24532400  0.01653500  0.63385300  1
  N  456  1  0.22864700  0.01670800  0.31492900  1
  N  459  1  0.28713100  0.00074200  0.35184500  1
  N  462  1  0.24520800  0.00956800  0.39064200  1
  N  470  1  0.72885300  0.31610200  0.00884500  1
  N  473  1  0.78770600  0.35269800  0.02489600  1
  N  476  1  0.74628700  0.39172000  0.01597900  1
  N  484  1  0.72858400  0.71080400  0.01573200  1
  N  487  1  0.78673400  0.67353400  0.00003700  1
  N  490  1  0.74449100  0.63497400  0.00921000  1
  N  498  1  0.99096500  0.22049400  0.19455500  1
  N  501  1  0.04068700  0.20934300  0.23827100  1
  N  504  1  0.08003700  0.24942100  0.23160600  1
  N  512  1  0.99085100  0.80654500  0.83196100  1
  N  515  1  0.04118400  0.81844900  0.78878500  1
  N  518  1  0.08160600  0.77894900  0.79579100  1
  N  526  1  0.49091100  0.83146400  0.22022100  1
  N  529  1  0.54061500  0.78775900  0.20897100  1
  N  532  1  0.58005500  0.79437600  0.24901100  1
  N  540  1  0.49113300  0.19411300  0.80614300  1
  N  543  1  0.54142700  0.23731300  0.81804900  1
  N  546  1  0.58183000  0.23034700  0.77853200  1
  N  590  1  0.13274000  0.11408800  0.95051800  1
  N  591  1  0.28204000  0.10706700  0.84059700  1
  N  592  1  0.98998600  0.10876500  0.84173800  1
  N  593  1  0.13949300  0.22977200  0.78229700  1
  N  631  1  0.14221500  0.03369790  0.08308440  1
  N  632  1  0.28212300  0.04530690  0.19475700  1
  N  633  1  0.98993100  0.04382790  0.19267600  1
  N  634  1  0.13913100  0.92385100  0.25522200  1
  N  672  1  0.63269800  0.64414200  0.55585500  1
  N  673  1  0.78175500  0.75394500  0.54871700  1
  N  674  1  0.48980300  0.75261800  0.55020800  1
  N  675  1  0.63934100  0.81235300  0.67157200  1
  N  713  1  0.64222400  0.51147700  0.47560400  1
  N  714  1  0.78241900  0.39981500  0.48711700  1
  N  715  1  0.49015400  0.40174600  0.48547400  1
  N  716  1  0.63939300  0.33939800  0.36566000  1
  N  754  1  0.64074200  0.04127590  0.94895800  1
  N  755  1  0.49061100  0.05143690  0.83652700  1
  N  756  1  0.78279800  0.05085490  0.83701100  1
  N  757  1  0.63436800  0.92846400  0.77824300  1
  N  795  1  0.63141700  0.11658400  0.08449940  1
  N  796  1  0.49061700  0.10166700  0.19857500  1
  N  797  1  0.78299300  0.10234300  0.19733800  1
  N  798  1  0.63433100  0.22352800  0.25897800  1
  N  836  1  0.14081700  0.50709500  0.55330300  1
  N  837  1  0.99088800  0.39474000  0.54299200  1
  N  838  1  0.28295900  0.39535700  0.54362200  1
  N  839  1  0.13451800  0.33635800  0.66607600  1
  N  877  1  0.13156400  0.64259200  0.47794800  1
  N  878  1  0.99031700  0.75691800  0.49266100  1
  N  879  1  0.28294800  0.75581300  0.49199600  1
  N  880  1  0.13412300  0.81715200  0.37112300  1
  N  882  1  0.17024900  0.07169990  0.03848440  1
  N  885  1  0.10863200  0.09092790  0.00587239  1
  N  888  1  0.05798320  0.07634090  0.03745640  1
  N  896  1  0.67026500  0.55614700  0.51353500  1
  N  899  1  0.60861200  0.58866600  0.53283700  1
  N  902  1  0.55802100  0.55696400  0.51841500  1
  N  910  1  0.60309800  0.08050390  0.03844640  1
  N  913  1  0.66482600  0.06227290  0.00538439  1
  N  916  1  0.71528600  0.07509690  0.03786940  1
  N  924  1  0.10312200  0.59647600  0.51390400  1
  N  927  1  0.16481500  0.56360300  0.53251200  1
  N  930  1  0.21523600  0.59622100  0.51995600  1
  N  938  1  0.92073300  0.08052790  0.82130200  1
  N  941  1  0.86234900  0.06394690  0.85802000  1
  N  944  1  0.90354000  0.07364190  0.89697500  1
  N  952  1  0.92082300  0.07226890  0.21306200  1
  N  955  1  0.86241100  0.08880290  0.17634800  1
  N  958  1  0.90339800  0.07877990  0.13738700  1
  N  966  1  0.42076500  0.77243400  0.52155200  1
  N  969  1  0.36263400  0.73530500  0.50550000  1
  N  972  1  0.40409500  0.69662400  0.51573000  1
  N  980  1  0.42099900  0.38071100  0.51354800  1
  N  983  1  0.36211600  0.41694500  0.53035100  1
  N  986  1  0.40264400  0.45622800  0.52070200  1
  N  994  1  0.35237500  0.07272190  0.21497800  1
  N  997  1  0.41068900  0.08879590  0.17798700  1
  N  1000  1  0.36879700  0.07970790  0.13923600  1
  N  1008  1  0.35212000  0.07988090  0.82031200  1
  N  1011  1  0.41060400  0.06391490  0.85722800  1
  N  1014  1  0.36868100  0.07274090  0.89602500  1
  N  1022  1  0.85232600  0.37927500  0.51422800  1
  N  1025  1  0.91117900  0.41587100  0.53027900  1
  N  1028  1  0.86976000  0.45489300  0.52136200  1
  N  1036  1  0.85205700  0.77397700  0.52111500  1
  N  1039  1  0.91020700  0.73670700  0.50542000  1
  N  1042  1  0.86796400  0.69814700  0.51459300  1
  N  1050  1  0.11443800  0.28366700  0.69993800  1
  N  1053  1  0.16416000  0.27251600  0.74365400  1
  N  1056  1  0.20351000  0.31259400  0.73698900  1
  N  1064  1  0.11432400  0.86971800  0.33734400  1
  N  1067  1  0.16465700  0.88162200  0.29416800  1
  N  1070  1  0.20507900  0.84212200  0.30117400  1
  N  1078  1  0.61438400  0.89463700  0.72560400  1
  N  1081  1  0.66408800  0.85093200  0.71435400  1
  N  1084  1  0.70352800  0.85754900  0.75439400  1
  N  1092  1  0.61460600  0.25728600  0.31152600  1
  N  1095  1  0.66490000  0.30048600  0.32343200  1
  N  1098  1  0.70530300  0.29352000  0.28391500  1
