# generated using pymatgen
data_H5C14N6O
_symmetry_space_group_name_H-M   'P 1'
_cell_length_a   37.82850000
_cell_length_b   61.31480000
_cell_length_c   61.31480000
_cell_angle_alpha   90.00000000
_cell_angle_beta   90.00000000
_cell_angle_gamma   90.00000000
_symmetry_Int_Tables_number   1
_chemical_formula_structural   H5C14N6O
_chemical_formula_sum   'H320 C896 N384 O64'
_cell_volume   142216.42350763
_cell_formula_units_Z   64
loop_
 _symmetry_equiv_pos_site_id
 _symmetry_equiv_pos_as_xyz
  1  'x, y, z'
loop_
 _atom_site_type_symbol
 _atom_site_label
 _atom_site_symmetry_multiplicity
 _atom_site_fract_x
 _atom_site_fract_y
 _atom_site_fract_z
 _atom_site_occupancy
  H  7  1  0.02789600  0.10539600  0.26416900  1
  H  16  1  0.09444800  0.09806100  0.32619200  1
  H  17  1  0.12048500  0.07252500  0.21960400  1
  H  18  1  0.04856100  0.16952300  0.35121300  1
  H  19  1  0.12245800  0.08812500  0.29627700  1
  H  20  1  0.03069900  0.13506900  0.28361000  1
  H  25  1  0.08980800  0.11243400  0.36946700  1
  H  26  1  0.16060900  0.05887800  0.25437200  1
  H  27  1  0.04301200  0.07768700  0.21525100  1
  H  28  1  0.99895000  0.16677900  0.29790000  1
  H  35  1  0.03233300  0.89007300  0.83843800  1
  H  44  1  0.09914900  0.89575900  0.77524500  1
  H  45  1  0.12288900  0.92851900  0.87986200  1
  H  46  1  0.04460200  0.82509400  0.75177400  1
  H  47  1  0.12241900  0.91069800  0.80362900  1
  H  48  1  0.03156600  0.86187900  0.81818500  1
  H  53  1  0.09952300  0.88263600  0.73509000  1
  H  54  1  0.15881500  0.94357700  0.84306500  1
  H  55  1  0.04781900  0.91954200  0.88644100  1
  H  56  1  0.99774300  0.83088900  0.80450000  1
  H  63  1  0.02808400  0.78498900  0.15736700  1
  H  72  1  0.09423400  0.72257500  0.15023100  1
  H  73  1  0.12150800  0.82893300  0.12454800  1
  H  74  1  0.04731400  0.69774100  0.22143700  1
  H  75  1  0.12201600  0.75226200  0.13992500  1
  H  76  1  0.02970300  0.76520100  0.18668200  1
  H  81  1  0.08941300  0.67930400  0.16483100  1
  H  82  1  0.16089600  0.79392800  0.11081000  1
  H  83  1  0.04404400  0.83388300  0.12995000  1
  H  84  1  0.99754000  0.75089600  0.21830300  1
  H  91  1  0.03266000  0.21069300  0.94175700  1
  H  100  1  0.09981600  0.27357800  0.94777700  1
  H  101  1  0.12244200  0.16869700  0.98028000  1
  H  102  1  0.04548600  0.29747400  0.87709300  1
  H  103  1  0.12331700  0.24494900  0.96234000  1
  H  104  1  0.03295200  0.23070800  0.91328500  1
  H  109  1  0.10025200  0.31383100  0.93486000  1
  H  110  1  0.15891600  0.20536500  0.99543900  1
  H  111  1  0.04703400  0.16275800  0.97152700  1
  H  112  1  0.99918900  0.24448200  0.88238300  1
  H  119  1  0.78268600  0.89173000  0.26400500  1
  H  128  1  0.71663500  0.89928500  0.32628300  1
  H  129  1  0.68993300  0.92472400  0.21973600  1
  H  130  1  0.76272700  0.82789300  0.35132400  1
  H  131  1  0.68860600  0.90933300  0.29647600  1
  H  132  1  0.78025400  0.86224300  0.28365100  1
  H  137  1  0.72141400  0.88495700  0.36956000  1
  H  138  1  0.65019300  0.93855600  0.25464800  1
  H  139  1  0.76769700  0.91944500  0.21524600  1
  H  140  1  0.81217400  0.83061300  0.29793400  1
  H  147  1  0.77878400  0.10747200  0.83846400  1
  H  156  1  0.71177100  0.10169200  0.77539000  1
  H  157  1  0.68826200  0.06924300  0.88014300  1
  H  158  1  0.76664800  0.17214600  0.75157500  1
  H  159  1  0.68838400  0.08698800  0.80388500  1
  H  160  1  0.77945500  0.13567700  0.81818500  1
  H  165  1  0.71143300  0.11465600  0.73516600  1
  H  166  1  0.65222100  0.05404700  0.84341100  1
  H  167  1  0.76351500  0.07802500  0.88649800  1
  H  168  1  0.81339800  0.16655800  0.80435300  1
  H  175  1  0.78257700  0.21222800  0.15738900  1
  H  184  1  0.71671200  0.27481400  0.15019200  1
  H  185  1  0.68900000  0.16849400  0.12452300  1
  H  186  1  0.76423700  0.29968100  0.22125500  1
  H  187  1  0.68896800  0.24521100  0.13976400  1
  H  188  1  0.78133500  0.23216200  0.18655400  1
  H  193  1  0.72124500  0.31788900  0.16454600  1
  H  194  1  0.64988400  0.20362300  0.11064800  1
  H  195  1  0.76657900  0.16340600  0.13000500  1
  H  196  1  0.81355700  0.24648800  0.21811800  1
  H  203  1  0.77865200  0.78658100  0.94192400  1
  H  212  1  0.71144100  0.72374300  0.94784400  1
  H  213  1  0.68880900  0.82861300  0.98037400  1
  H  214  1  0.76565100  0.69994300  0.87708300  1
  H  215  1  0.68781000  0.75240000  0.96232500  1
  H  216  1  0.77822400  0.76666400  0.91335600  1
  H  221  1  0.71097500  0.68351300  0.93488100  1
  H  222  1  0.65223100  0.79198100  0.99545600  1
  H  223  1  0.76421800  0.83453400  0.97167700  1
  H  224  1  0.81197300  0.75292700  0.88243100  1
  H  231  1  0.77983900  0.89212700  0.83669500  1
  H  240  1  0.72033300  0.89788900  0.77175100  1
  H  241  1  0.68116700  0.92677100  0.87546000  1
  H  242  1  0.76608500  0.82505100  0.75133700  1
  H  243  1  0.69067300  0.91009100  0.79969200  1
  H  244  1  0.77992100  0.86230800  0.81774800  1
  H  249  1  0.72428800  0.88211800  0.73050200  1
  H  250  1  0.64499800  0.93827000  0.83626100  1
  H  251  1  0.75268700  0.91813000  0.88623200  1
  H  252  1  0.80998300  0.82822900  0.80493400  1
  H  259  1  0.77741200  0.10773400  0.26470600  1
  H  268  1  0.71982800  0.10344500  0.33111400  1
  H  269  1  0.67625300  0.07054100  0.23058400  1
  H  270  1  0.77038300  0.17666200  0.34855300  1
  H  271  1  0.69413300  0.08696700  0.30483000  1
  H  272  1  0.78031500  0.13669000  0.28384000  1
  H  277  1  0.72143000  0.11885700  0.37009800  1
  H  278  1  0.65804200  0.05737800  0.29375400  1
  H  279  1  0.74664900  0.08147600  0.21592500  1
  H  280  1  0.81174600  0.17031900  0.29500200  1
  H  287  1  0.77900100  0.21305300  0.94298200  1
  H  296  1  0.72344700  0.27966000  0.94894800  1
  H  297  1  0.67619200  0.17840200  0.97795400  1
  H  298  1  0.76748000  0.29816400  0.87534800  1
  H  299  1  0.69459300  0.25285600  0.96279100  1
  H  300  1  0.78128200  0.23247200  0.91378700  1
  H  305  1  0.72752100  0.32045100  0.93221500  1
  H  306  1  0.65623100  0.24099900  0.99112900  1
  H  307  1  0.74786800  0.16412200  0.96864600  1
  H  308  1  0.81128900  0.24443700  0.87943100  1
  H  315  1  0.77858000  0.78479000  0.15817300  1
  H  324  1  0.71637600  0.72046200  0.15451600  1
  H  325  1  0.68134400  0.82363100  0.12196700  1
  H  326  1  0.76919600  0.70101500  0.22687500  1
  H  327  1  0.68898100  0.74820500  0.14026600  1
  H  328  1  0.77854900  0.76656600  0.18816300  1
  H  333  1  0.71751300  0.68107000  0.16921000  1
  H  334  1  0.64428700  0.78393900  0.11139300  1
  H  335  1  0.75220100  0.83432500  0.13163200  1
  H  336  1  0.81042900  0.75450400  0.22139200  1
  H  343  1  0.03072000  0.10486200  0.83664900  1
  H  352  1  0.09090900  0.09932000  0.77204000  1
  H  353  1  0.12923800  0.07058400  0.87594300  1
  H  354  1  0.04525800  0.17215400  0.75147900  1
  H  355  1  0.12077700  0.08753700  0.80017000  1
  H  356  1  0.03106300  0.13491300  0.81789700  1
  H  361  1  0.08709000  0.11506200  0.73074300  1
  H  362  1  0.16607500  0.05924800  0.83697800  1
  H  363  1  0.05766600  0.07894400  0.88634000  1
  H  364  1  0.00110700  0.16902400  0.80498300  1
  H  371  1  0.03393600  0.88960800  0.26459200  1
  H  380  1  0.09144100  0.89398400  0.33103700  1
  H  381  1  0.13513400  0.92680200  0.23051000  1
  H  382  1  0.04074500  0.82083100  0.34856000  1
  H  383  1  0.11703400  0.91052300  0.30477100  1
  H  384  1  0.03088400  0.86073100  0.28380200  1
  H  389  1  0.08979600  0.87862900  0.37003600  1
  H  390  1  0.15307700  0.94012000  0.29369200  1
  H  391  1  0.06485100  0.91576400  0.21578100  1
  H  392  1  0.99942000  0.82713300  0.29499100  1
  H  399  1  0.03258900  0.78443600  0.94281600  1
  H  408  1  0.08777800  0.71763700  0.94892000  1
  H  409  1  0.13546600  0.81876800  0.97797000  1
  H  410  1  0.04362800  0.69918000  0.87535600  1
  H  411  1  0.11635600  0.74433700  0.96304600  1
  H  412  1  0.02989300  0.76484900  0.91382100  1
  H  417  1  0.08362700  0.67685900  0.93218700  1
  H  418  1  0.15449300  0.75605500  0.99148800  1
  H  419  1  0.06385800  0.83328600  0.96848800  1
  H  420  1  0.99988100  0.75291900  0.87947100  1
  H  427  1  0.03285100  0.21236600  0.15833200  1
  H  436  1  0.09486600  0.27677100  0.15448500  1
  H  437  1  0.13013800  0.17359700  0.12208800  1
  H  438  1  0.04197800  0.29636200  0.22678400  1
  H  439  1  0.12224000  0.24904900  0.14023900  1
  H  440  1  0.03272700  0.23071900  0.18822500  1
  H  445  1  0.09371700  0.31618600  0.16909300  1
  H  446  1  0.16697600  0.21332000  0.11137000  1
  H  447  1  0.05937200  0.16281400  0.13185500  1
  H  448  1  0.00078800  0.24283400  0.22139500  1
  H  455  1  0.52835900  0.60600000  0.76528000  1
  H  464  1  0.59196200  0.59538000  0.82780800  1
  H  465  1  0.62141600  0.57368800  0.72070300  1
  H  466  1  0.54951200  0.66572000  0.85568400  1
  H  467  1  0.62166900  0.58713200  0.79787200  1
  H  468  1  0.53133000  0.63505700  0.78591700  1
  H  473  1  0.57526000  0.61661100  0.87588100  1
  H  474  1  0.66040000  0.55871100  0.75540800  1
  H  475  1  0.54344500  0.57909100  0.71611000  1
  H  476  1  0.49976700  0.66628100  0.80099500  1
  H  483  1  0.52969400  0.39057100  0.33729800  1
  H  492  1  0.59284200  0.40072000  0.27382100  1
  H  493  1  0.62092700  0.42745100  0.37973500  1
  H  494  1  0.54731500  0.32922400  0.24796900  1
  H  495  1  0.61972100  0.41211200  0.30298700  1
  H  496  1  0.53081700  0.36241600  0.31625500  1
  H  501  1  0.59010900  0.38856000  0.23179700  1
  H  502  1  0.65618300  0.44408000  0.34354200  1
  H  503  1  0.54519800  0.41866400  0.38604400  1
  H  504  1  0.49816200  0.33142900  0.30162200  1
  H  511  1  0.52798600  0.28377800  0.65782400  1
  H  520  1  0.59170800  0.22121400  0.64741900  1
  H  521  1  0.62133100  0.32820900  0.62550600  1
  H  522  1  0.54907300  0.19349000  0.71776100  1
  H  523  1  0.62126200  0.25110900  0.63903300  1
  H  524  1  0.53067700  0.26312700  0.68684300  1
  H  529  1  0.57514600  0.17318200  0.66887400  1
  H  530  1  0.66013500  0.29344400  0.61059000  1
  H  531  1  0.54377600  0.33316100  0.63113400  1
  H  532  1  0.49909500  0.24803800  0.71811700  1
  H  539  1  0.52839300  0.71275400  0.44289300  1
  H  548  1  0.59320400  0.77506700  0.45269100  1
  H  549  1  0.61981600  0.66836200  0.47731300  1
  H  550  1  0.54813200  0.80165600  0.38126200  1
  H  551  1  0.62149800  0.74521800  0.46230200  1
  H  552  1  0.53173500  0.73295600  0.41373800  1
  H  557  1  0.59046300  0.81725400  0.44098000  1
  H  558  1  0.65860700  0.70360900  0.49239100  1
  H  559  1  0.54267100  0.66378100  0.47076200  1
  H  560  1  0.49947000  0.74774600  0.38272300  1
  H  567  1  0.28328900  0.39153000  0.76537900  1
  H  576  1  0.21925500  0.40196500  0.82769700  1
  H  577  1  0.19033700  0.42371600  0.72055300  1
  H  578  1  0.26158800  0.33160000  0.85559500  1
  H  579  1  0.18954000  0.41007700  0.79766700  1
  H  580  1  0.28001400  0.36231200  0.78585900  1
  H  585  1  0.23586700  0.38075100  0.87578100  1
  H  586  1  0.15103800  0.43853200  0.75512900  1
  H  587  1  0.26803600  0.41838800  0.71601400  1
  H  588  1  0.31145600  0.33103700  0.80095600  1
  H  595  1  0.28185400  0.60669300  0.33721400  1
  H  604  1  0.21813000  0.59667800  0.27400100  1
  H  605  1  0.19069600  0.57009200  0.38001200  1
  H  606  1  0.26400600  0.66802100  0.24789300  1
  H  607  1  0.19120100  0.58553400  0.30329700  1
  H  608  1  0.28046100  0.63497400  0.31626400  1
  H  613  1  0.22066300  0.60869300  0.23199100  1
  H  614  1  0.15505800  0.55349700  0.34395300  1
  H  615  1  0.26646300  0.57863000  0.38606800  1
  H  616  1  0.31315000  0.66590400  0.30151600  1
  H  623  1  0.28289300  0.71349400  0.65797400  1
  H  632  1  0.21941700  0.77617300  0.64742900  1
  H  633  1  0.18951900  0.66919200  0.62557100  1
  H  634  1  0.26210500  0.80391300  0.71775000  1
  H  635  1  0.18987400  0.74632700  0.63897400  1
  H  636  1  0.28036800  0.73425000  0.68688900  1
  H  641  1  0.23599400  0.82420500  0.66886100  1
  H  642  1  0.15088800  0.70401600  0.61056000  1
  H  643  1  0.26725600  0.66419500  0.63127800  1
  H  644  1  0.31201600  0.74933600  0.71812500  1
  H  651  1  0.28285800  0.28453500  0.44300000  1
  H  660  1  0.21801200  0.22222000  0.45272200  1
  H  661  1  0.19139700  0.32890600  0.47741300  1
  H  662  1  0.26302700  0.19573700  0.38123600  1
  H  663  1  0.18974600  0.25206600  0.46239200  1
  H  664  1  0.27948000  0.26437800  0.41382000  1
  H  669  1  0.22070400  0.18005600  0.44094400  1
  H  670  1  0.15255300  0.29367300  0.49239500  1
  H  671  1  0.26852800  0.33352600  0.47083500  1
  H  672  1  0.31169100  0.24963300  0.38276100  1
  H  679  1  0.28009900  0.39130200  0.33564000  1
  H  688  1  0.22267000  0.39994600  0.27053500  1
  H  689  1  0.18121400  0.42514000  0.37491700  1
  H  690  1  0.26446200  0.32808900  0.24707400  1
  H  691  1  0.19141100  0.41029100  0.29872400  1
  H  692  1  0.27995100  0.36190900  0.31566400  1
  H  697  1  0.24045400  0.37446400  0.22393100  1
  H  698  1  0.14550500  0.43778500  0.33606200  1
  H  699  1  0.25282900  0.41656600  0.38557200  1
  H  700  1  0.30975100  0.32822400  0.30186200  1
  H  707  1  0.28000100  0.60721500  0.76592200  1
  H  716  1  0.22658500  0.59892800  0.83270200  1
  H  717  1  0.17766800  0.57174400  0.73116400  1
  H  718  1  0.26839600  0.67282100  0.85263200  1
  H  719  1  0.19649300  0.58610800  0.80575400  1
  H  720  1  0.28128300  0.63628800  0.78579800  1
  H  725  1  0.23160700  0.61418700  0.87376400  1
  H  726  1  0.15887400  0.55748800  0.79378200  1
  H  727  1  0.24867300  0.58209400  0.71667000  1
  H  728  1  0.31176300  0.66989000  0.79789200  1
  H  735  1  0.27932900  0.71403600  0.44236400  1
  H  744  1  0.22623300  0.78087100  0.45125900  1
  H  745  1  0.17633000  0.67910000  0.47685500  1
  H  746  1  0.26574200  0.80216100  0.37830800  1
  H  747  1  0.19555900  0.75382100  0.46324300  1
  H  748  1  0.28143600  0.73443900  0.41359000  1
  H  753  1  0.24274700  0.82660400  0.42386500  1
  H  754  1  0.15670100  0.74140600  0.49110500  1
  H  755  1  0.24810700  0.66482100  0.46744800  1
  H  756  1  0.31107800  0.74730500  0.37955200  1
  H  763  1  0.27969200  0.28357200  0.65912600  1
  H  772  1  0.22461400  0.21760500  0.65097000  1
  H  773  1  0.17842500  0.31998300  0.62394700  1
  H  774  1  0.26795400  0.19646000  0.72423600  1
  H  775  1  0.19328000  0.24508400  0.63971900  1
  H  776  1  0.27997700  0.26393900  0.68865700  1
  H  781  1  0.23039900  0.17614500  0.66557100  1
  H  782  1  0.15001900  0.26089300  0.61359200  1
  H  783  1  0.24987900  0.33308400  0.63370600  1
  H  784  1  0.31100700  0.25132100  0.72192500  1
  H  791  1  0.53068500  0.60580900  0.33562500  1
  H  800  1  0.58865500  0.59728800  0.27076600  1
  H  801  1  0.62940700  0.57222500  0.37530200  1
  H  802  1  0.54698500  0.66912200  0.24714400  1
  H  803  1  0.62003100  0.58726900  0.29908900  1
  H  804  1  0.53114200  0.63535700  0.31575600  1
  H  809  1  0.57104600  0.62270400  0.22409700  1
  H  810  1  0.66562300  0.55968300  0.33661800  1
  H  811  1  0.55770700  0.58056600  0.38564600  1
  H  812  1  0.50145800  0.66906500  0.30184700  1
  H  819  1  0.53139400  0.38996100  0.76584700  1
  H  828  1  0.58465000  0.39833900  0.83266500  1
  H  829  1  0.63378700  0.42543900  0.73114100  1
  H  830  1  0.54271600  0.32450100  0.85268100  1
  H  831  1  0.61482500  0.41109300  0.80572700  1
  H  832  1  0.53001100  0.36092400  0.78577500  1
  H  837  1  0.57953200  0.38314100  0.87374900  1
  H  838  1  0.65259100  0.43964900  0.79371200  1
  H  839  1  0.56283800  0.41506400  0.71660100  1
  H  840  1  0.49944900  0.32736600  0.79790100  1
  H  847  1  0.53137800  0.28330200  0.44262400  1
  H  856  1  0.58485900  0.21660300  0.45133400  1
  H  857  1  0.63426100  0.31846100  0.47704400  1
  H  858  1  0.54553100  0.19536500  0.37832400  1
  H  859  1  0.61558400  0.24371700  0.46322200  1
  H  860  1  0.52958000  0.26302800  0.41370100  1
  H  865  1  0.56847400  0.17088400  0.42390700  1
  H  866  1  0.65448600  0.25618400  0.49105900  1
  H  867  1  0.56248900  0.33257900  0.46770200  1
  H  868  1  0.50004400  0.25017300  0.37961300  1
  H  875  1  0.53103100  0.71386800  0.65892000  1
  H  884  1  0.58634200  0.77973300  0.65082000  1
  H  885  1  0.63212200  0.67728500  0.62373300  1
  H  886  1  0.54325000  0.80087500  0.72414300  1
  H  887  1  0.61772000  0.75220100  0.63964400  1
  H  888  1  0.53097300  0.73342300  0.68853100  1
  H  893  1  0.58067700  0.82119800  0.66546400  1
  H  894  1  0.66132200  0.73600600  0.61367200  1
  H  895  1  0.56058800  0.66433700  0.63344400  1
  H  896  1  0.50008600  0.74604600  0.72185500  1
  C  1  1  0.07361700  0.09971700  0.28350600  1
  C  2  1  0.05200700  0.09790600  0.26462900  1
  C  3  1  0.06272800  0.08660000  0.24565200  1
  C  4  1  0.09491100  0.07489900  0.24605800  1
  C  5  1  0.11596900  0.07482000  0.26515900  1
  C  6  1  0.10572200  0.08768100  0.28321400  1
  C  9  1  0.06362200  0.11357600  0.30167900  1
  C  10  1  0.04043200  0.13159600  0.29875600  1
  C  11  1  0.02969100  0.14529200  0.31604700  1
  C  12  1  0.04489800  0.14211100  0.33689900  1
  C  13  1  0.06909700  0.12483500  0.34039600  1
  C  14  1  0.07728300  0.11053700  0.32305600  1
  C  21  1  0.14378500  0.06029300  0.26675400  1
  C  22  1  0.04484200  0.08964800  0.22612100  1
  C  23  1  0.00245000  0.16003700  0.31250500  1
  C  24  1  0.08984600  0.12471000  0.35891300  1
  C  29  1  0.07615400  0.89682700  0.81777900  1
  C  30  1  0.05560300  0.89836300  0.83715500  1
  C  31  1  0.06595600  0.91067300  0.85559900  1
  C  32  1  0.09641100  0.92392500  0.85405900  1
  C  33  1  0.11607600  0.92446900  0.83442900  1
  C  34  1  0.10653400  0.91048100  0.81706500  1
  C  37  1  0.06648000  0.88214900  0.80002500  1
  C  38  1  0.04213000  0.86471700  0.80315300  1
  C  39  1  0.03073700  0.85086100  0.78615200  1
  C  40  1  0.04661400  0.85301400  0.76536400  1
  C  41  1  0.07269300  0.86919700  0.76171900  1
  C  42  1  0.08118200  0.88385600  0.77872300  1
  C  49  1  0.14109700  0.94061600  0.83144100  1
  C  50  1  0.04926700  0.90756500  0.87556500  1
  C  51  1  0.00210900  0.83712500  0.78976500  1
  C  52  1  0.09294400  0.86900500  0.74285600  1
  C  57  1  0.07340100  0.76530100  0.15161400  1
  C  58  1  0.05216300  0.78434800  0.14986200  1
  C  59  1  0.06322700  0.80328200  0.13860900  1
  C  60  1  0.09536000  0.80268700  0.12687400  1
  C  61  1  0.11604300  0.78343700  0.12672200  1
  C  62  1  0.10548800  0.76542200  0.13954400  1
  C  65  1  0.06310900  0.74714500  0.16544400  1
  C  66  1  0.03956100  0.75007300  0.18329500  1
  C  67  1  0.02861800  0.73280300  0.19696000  1
  C  68  1  0.04396200  0.71196800  0.19396900  1
  C  69  1  0.06846200  0.70845300  0.17686700  1
  C  70  1  0.07684300  0.72575900  0.16257100  1
  C  77  1  0.14380000  0.78168500  0.11217500  1
  C  78  1  0.04592200  0.82297000  0.14187700  1
  C  79  1  0.00106700  0.73633100  0.21148200  1
  C  80  1  0.08935400  0.69000400  0.17698200  1
  C  85  1  0.07686300  0.23103900  0.94848700  1
  C  86  1  0.05598000  0.21180400  0.95002800  1
  C  87  1  0.06599800  0.19331700  0.96237900  1
  C  88  1  0.09647600  0.19468500  0.97563200  1
  C  89  1  0.11647100  0.21419300  0.97616700  1
  C  90  1  0.10724300  0.23159600  0.96214200  1
  C  93  1  0.06740400  0.24885300  0.93384900  1
  C  94  1  0.04331900  0.24576800  0.91627700  1
  C  95  1  0.03192200  0.26284200  0.90251400  1
  C  96  1  0.04760600  0.28366400  0.90491000  1
  C  97  1  0.07355400  0.28725000  0.92119300  1
  C  98  1  0.08199900  0.27016300  0.93576700  1
  C  105  1  0.14139300  0.21707800  0.99239400  1
  C  106  1  0.04877000  0.17350000  0.95944300  1
  C  107  1  0.00349200  0.25922600  0.88861700  1
  C  108  1  0.09372000  0.30615400  0.92117200  1
  C  113  1  0.73724400  0.89758000  0.28354500  1
  C  114  1  0.75863500  0.89928300  0.26456200  1
  C  115  1  0.74779100  0.91058900  0.24561600  1
  C  116  1  0.71569900  0.92237400  0.24612300  1
  C  117  1  0.69484700  0.92254500  0.26530900  1
  C  118  1  0.70521200  0.90970000  0.28335100  1
  C  121  1  0.74736300  0.88375500  0.30172600  1
  C  122  1  0.77058100  0.86574600  0.29880200  1
  C  123  1  0.78143300  0.85208900  0.31610000  1
  C  124  1  0.76630100  0.85528900  0.33696900  1
  C  125  1  0.74208900  0.87255400  0.34047700  1
  C  126  1  0.73380700  0.88681800  0.32312700  1
  C  133  1  0.66711900  0.93712700  0.26697600  1
  C  134  1  0.76532600  0.90740300  0.22599700  1
  C  135  1  0.80869300  0.83735800  0.31254100  1
  C  136  1  0.72138300  0.87267500  0.35901300  1
  C  141  1  0.73479600  0.10077900  0.81791900  1
  C  142  1  0.75545500  0.09923200  0.83725100  1
  C  143  1  0.74514800  0.08696000  0.85573100  1
  C  144  1  0.71461000  0.07377200  0.85427800  1
  C  145  1  0.69482300  0.07324000  0.83469300  1
  C  146  1  0.70433200  0.08719500  0.81729200  1
  C  149  1  0.74449200  0.11537300  0.80010500  1
  C  150  1  0.76890000  0.13278300  0.80316000  1
  C  151  1  0.78036700  0.14653500  0.78609400  1
  C  152  1  0.76450400  0.14430100  0.76531100  1
  C  153  1  0.73834600  0.12814800  0.76173900  1
  C  154  1  0.72978400  0.11358600  0.77881100  1
  C  161  1  0.66983200  0.05707000  0.83174200  1
  C  162  1  0.76201600  0.09002100  0.87564300  1
  C  163  1  0.80904200  0.16024500  0.78964900  1
  C  164  1  0.71808400  0.12830200  0.74288200  1
  C  169  1  0.73744200  0.23205600  0.15155400  1
  C  170  1  0.75852700  0.21293700  0.14986100  1
  C  171  1  0.74736100  0.19402200  0.13861600  1
  C  172  1  0.71527900  0.19469200  0.12683300  1
  C  173  1  0.69474900  0.21400400  0.12662400  1
  C  174  1  0.70539700  0.23200400  0.13943700  1
  C  177  1  0.74785000  0.25021700  0.16535800  1
  C  178  1  0.77149100  0.24729200  0.18316300  1
  C  179  1  0.78257500  0.26456700  0.19677800  1
  C  180  1  0.76728200  0.28541700  0.19379200  1
  C  181  1  0.74266600  0.28893300  0.17675300  1
  C  182  1  0.73416200  0.27161900  0.16249400  1
  C  189  1  0.66707200  0.21581900  0.11202900  1
  C  190  1  0.76445400  0.17428200  0.14195200  1
  C  191  1  0.81025800  0.26103800  0.21121000  1
  C  192  1  0.72182400  0.30741000  0.17688200  1
  C  197  1  0.73436500  0.76627900  0.94857100  1
  C  198  1  0.75530700  0.78548700  0.95017000  1
  C  199  1  0.74528800  0.80396700  0.96252600  1
  C  200  1  0.71475300  0.80261500  0.97573300  1
  C  201  1  0.69469900  0.78312800  0.97621400  1
  C  202  1  0.70393000  0.76573500  0.96217800  1
  C  205  1  0.74381000  0.74848400  0.93391300  1
  C  206  1  0.76786600  0.75159800  0.91633100  1
  C  207  1  0.77924700  0.73454000  0.90254200  1
  C  208  1  0.76356300  0.71371500  0.90492100  1
  C  209  1  0.73764600  0.71010500  0.92121700  1
  C  210  1  0.72922600  0.72717300  0.93581900  1
  C  217  1  0.66971500  0.78024700  0.99240400  1
  C  218  1  0.76252400  0.82378300  0.95959800  1
  C  219  1  0.80766400  0.73817400  0.88863800  1
  C  220  1  0.71748900  0.69119800  0.92119300  1
  C  225  1  0.73703200  0.89782700  0.81513700  1
  C  226  1  0.75599200  0.89973800  0.83504900  1
  C  227  1  0.74293000  0.91114800  0.85346100  1
  C  228  1  0.71143800  0.92338300  0.85108400  1
  C  229  1  0.69344300  0.92364900  0.83084500  1
  C  230  1  0.70557200  0.91039500  0.81357100  1
  C  233  1  0.74876700  0.88328700  0.79787000  1
  C  234  1  0.77137200  0.86524700  0.80223000  1
  C  235  1  0.78303200  0.85072400  0.78586800  1
  C  236  1  0.76949700  0.85304100  0.76448400  1
  C  237  1  0.74601800  0.87032800  0.75953600  1
  C  238  1  0.73699000  0.88547900  0.77596900  1
  C  245  1  0.66688400  0.93863900  0.82734900  1
  C  246  1  0.75779700  0.90791200  0.87404100  1
  C  247  1  0.80964700  0.83595700  0.79070900  1
  C  248  1  0.72593800  0.86961800  0.74074700  1
  C  253  1  0.73693500  0.10122900  0.28762700  1
  C  254  1  0.75429700  0.09956800  0.26716700  1
  C  255  1  0.74054000  0.08774800  0.24921500  1
  C  256  1  0.71049900  0.07443000  0.25279000  1
  C  257  1  0.69504000  0.07291800  0.27386800  1
  C  258  1  0.70733000  0.08721800  0.29033900  1
  C  261  1  0.74864300  0.11657300  0.30434100  1
  C  262  1  0.77154600  0.13434300  0.29938800  1
  C  263  1  0.78357100  0.14938500  0.31518000  1
  C  264  1  0.76999200  0.14798700  0.33663800  1
  C  265  1  0.74577400  0.13126600  0.34215900  1
  C  266  1  0.73661200  0.11553600  0.32630100  1
  C  273  1  0.67103700  0.05658800  0.27964700  1
  C  274  1  0.75389000  0.09108500  0.22818800  1
  C  275  1  0.81053300  0.16376800  0.30978100  1
  C  276  1  0.72662500  0.13215800  0.36140200  1
  C  281  1  0.73839100  0.23591400  0.94939500  1
  C  282  1  0.75560800  0.21540300  0.95091200  1
  C  283  1  0.74124900  0.19731600  0.96224000  1
  C  284  1  0.71056300  0.20068900  0.97504300  1
  C  285  1  0.69493200  0.22171500  0.97648800  1
  C  286  1  0.70794300  0.23840900  0.96272600  1
  C  289  1  0.75072800  0.25288700  0.93461700  1
  C  290  1  0.77300500  0.24807400  0.91652500  1
  C  291  1  0.78470000  0.26407800  0.90160900  1
  C  292  1  0.77152200  0.28558200  0.90355600  1
  C  293  1  0.74862400  0.29104200  0.92096500  1
  C  294  1  0.73967100  0.27497300  0.93650600  1
  C  301  1  0.66997400  0.22720400  0.99234000  1
  C  302  1  0.75459900  0.17633400  0.95882300  1
  C  303  1  0.81109800  0.25883500  0.88683600  1
  C  304  1  0.72862100  0.30984300  0.91999700  1
  C  309  1  0.73520800  0.76356600  0.15284800  1
  C  310  1  0.75476000  0.78322300  0.15053500  1
  C  311  1  0.74239600  0.80155600  0.13870100  1
  C  312  1  0.71116000  0.79917800  0.12622700  1
  C  313  1  0.69280100  0.77905900  0.12614500  1
  C  314  1  0.70413100  0.76197400  0.13991200  1
  C  317  1  0.74630100  0.74656100  0.16794100  1
  C  318  1  0.76956100  0.75107900  0.18563000  1
  C  319  1  0.78167100  0.73490900  0.20022400  1
  C  320  1  0.76771300  0.71356300  0.19846900  1
  C  321  1  0.74278200  0.70856400  0.18195600  1
  C  322  1  0.73355400  0.72479000  0.16660200  1
  C  329  1  0.66666667  0.77552200  0.11088500  1
  C  330  1  0.75780200  0.82206000  0.14165000  1
  C  331  1  0.80898900  0.73988600  0.21450400  1
  C  332  1  0.72347400  0.68935700  0.18264600  1
  C  337  1  0.07397800  0.09944700  0.81536900  1
  C  338  1  0.05469600  0.09736900  0.83514000  1
  C  339  1  0.06764000  0.08599200  0.85360700  1
  C  340  1  0.09934700  0.07393300  0.85138400  1
  C  341  1  0.11769700  0.07384200  0.83126400  1
  C  342  1  0.10566600  0.08709000  0.81396000  1
  C  345  1  0.06233100  0.11395900  0.79807300  1
  C  346  1  0.03969500  0.13198700  0.80238800  1
  C  347  1  0.02813300  0.14650400  0.78599600  1
  C  348  1  0.04178300  0.14417100  0.76463900  1
  C  349  1  0.06528800  0.12688100  0.75974400  1
  C  350  1  0.07423300  0.11174100  0.77620200  1
  C  357  1  0.14443700  0.05895800  0.82784500  1
  C  358  1  0.05233000  0.08904700  0.87409800  1
  C  359  1  0.00149600  0.16127000  0.79077300  1
  C  360  1  0.08543800  0.12756500  0.74098500  1
  C  365  1  0.07433200  0.89617800  0.28754500  1
  C  366  1  0.05703600  0.89778600  0.26705900  1
  C  367  1  0.07082200  0.90957900  0.24909800  1
  C  368  1  0.10082600  0.92292500  0.25268300  1
  C  369  1  0.11621400  0.92449600  0.27377700  1
  C  370  1  0.10389600  0.91022200  0.29026400  1
  C  373  1  0.06259300  0.88085700  0.30427700  1
  C  374  1  0.03965700  0.86309400  0.29934500  1
  C  375  1  0.02760300  0.84807700  0.31515400  1
  C  376  1  0.04117900  0.84949300  0.33661200  1
  C  377  1  0.06542600  0.86620300  0.34211500  1
  C  378  1  0.07462300  0.88190600  0.32623700  1
  C  385  1  0.14016600  0.94085700  0.27955200  1
  C  386  1  0.05751100  0.90621000  0.22806500  1
  C  387  1  0.00063400  0.83369500  0.30976500  1
  C  388  1  0.08457200  0.86532100  0.36135900  1
  C  393  1  0.07287900  0.76140900  0.94941800  1
  C  394  1  0.05588800  0.78200200  0.95081700  1
  C  395  1  0.07033800  0.80006200  0.96214400  1
  C  396  1  0.10088200  0.79660800  0.97505300  1
  C  397  1  0.11626400  0.77552200  0.97662200  1
  C  398  1  0.10317000  0.75883700  0.96287300  1
  C  401  1  0.06048500  0.74444000  0.93463800  1
  C  402  1  0.03817500  0.74925300  0.91655800  1
  C  403  1  0.02645000  0.73325800  0.90164000  1
  C  404  1  0.03961800  0.71175300  0.90356900  1
  C  405  1  0.06253600  0.70628100  0.92096100  1
  C  406  1  0.07152800  0.72234400  0.93650200  1
  C  413  1  0.14106800  0.76998200  0.99255400  1
  C  414  1  0.05725500  0.82108700  0.95861600  1
  C  415  1  0.00005300  0.73851900  0.88687200  1
  C  416  1  0.08252400  0.68747300  0.91997600  1
  C  421  1  0.07611300  0.23365000  0.15291500  1
  C  422  1  0.05665000  0.21395000  0.15067400  1
  C  423  1  0.06905100  0.19561000  0.13886300  1
  C  424  1  0.10023900  0.19801100  0.12634700  1
  C  425  1  0.11851300  0.21815800  0.12620000  1
  C  426  1  0.10715000  0.23525600  0.13994100  1
  C  429  1  0.06497300  0.25068500  0.16796300  1
  C  430  1  0.04170000  0.24620300  0.18565700  1
  C  431  1  0.02955800  0.26240300  0.20020800  1
  C  432  1  0.04349500  0.28375000  0.19840500  1
  C  433  1  0.06842900  0.28872000  0.18188600  1
  C  434  1  0.07768600  0.27246300  0.16657500  1
  C  441  1  0.14455000  0.22171300  0.11089300  1
  C  442  1  0.05369600  0.17509300  0.14183800  1
  C  443  1  0.00224300  0.25744700  0.21449800  1
  C  444  1  0.08774200  0.30792500  0.18254300  1
  C  449  1  0.57334100  0.59932000  0.78493900  1
  C  450  1  0.55230100  0.59830000  0.76576700  1
  C  451  1  0.56333200  0.58740300  0.74662200  1
  C  452  1  0.59532200  0.57549900  0.74701000  1
  C  453  1  0.61592000  0.57479400  0.76628800  1
  C  454  1  0.60532500  0.58716500  0.78461100  1
  C  457  1  0.56286200  0.61245000  0.80352500  1
  C  458  1  0.54026300  0.63081600  0.80106200  1
  C  459  1  0.52917600  0.64385200  0.81879500  1
  C  460  1  0.54323600  0.63946200  0.83974800  1
  C  461  1  0.56649400  0.62164700  0.84285000  1
  C  462  1  0.57535300  0.60821000  0.82495800  1
  C  469  1  0.64348900  0.56006800  0.76775200  1
  C  470  1  0.54599600  0.59098300  0.72701600  1
  C  471  1  0.50258700  0.65912300  0.81546300  1
  C  472  1  0.58620400  0.62054300  0.86172100  1
  C  477  1  0.57320900  0.39825300  0.31676200  1
  C  478  1  0.55292000  0.39897700  0.33626800  1
  C  479  1  0.56361000  0.41060700  0.35507700  1
  C  480  1  0.59415100  0.42384000  0.35389100  1
  C  481  1  0.61372600  0.42498700  0.33425000  1
  C  482  1  0.60387300  0.41164900  0.31644900  1
  C  485  1  0.56322400  0.38446000  0.29845600  1
  C  486  1  0.54037100  0.36622300  0.30116200  1
  C  487  1  0.52946600  0.35278900  0.28368700  1
  C  488  1  0.54436500  0.35639700  0.26281100  1
  C  489  1  0.56820200  0.37388700  0.25945400  1
  C  490  1  0.57627800  0.38796500  0.27698700  1
  C  497  1  0.63889200  0.44113500  0.33167200  1
  C  498  1  0.54712500  0.40688500  0.37497600  1
  C  499  1  0.50206600  0.33804400  0.28700600  1
  C  500  1  0.58803900  0.37499600  0.24053400  1
  C  505  1  0.57294200  0.26408000  0.65119800  1
  C  506  1  0.55194200  0.28326600  0.65014600  1
  C  507  1  0.56305800  0.30241300  0.63927400  1
  C  508  1  0.59504400  0.30198200  0.62736800  1
  C  509  1  0.61557400  0.28267900  0.62666900  1
  C  510  1  0.60493600  0.26437800  0.63905400  1
  C  513  1  0.56242800  0.24551300  0.66435500  1
  C  514  1  0.53971500  0.24799100  0.68266500  1
  C  515  1  0.52864400  0.23027700  0.69573000  1
  C  516  1  0.54283700  0.20933800  0.69144900  1
  C  517  1  0.56619500  0.20622200  0.67369200  1
  C  518  1  0.57502700  0.22408400  0.66020700  1
  C  525  1  0.64311400  0.28115700  0.61193200  1
  C  526  1  0.54572400  0.32202600  0.64284600  1
  C  527  1  0.50192900  0.23359400  0.71091300  1
  C  528  1  0.58601900  0.18739300  0.67269000  1
  C  533  1  0.57348900  0.73228900  0.44963300  1
  C  534  1  0.55214200  0.71325100  0.45080600  1
  C  535  1  0.56255300  0.69423200  0.46216700  1
  C  536  1  0.59410300  0.69471800  0.47450800  1
  C  537  1  0.61486500  0.71392300  0.47514300  1
  C  538  1  0.60500500  0.73203000  0.46224200  1
  C  541  1  0.56368900  0.75069900  0.43603100  1
  C  542  1  0.54110100  0.74807700  0.41767700  1
  C  543  1  0.53030400  0.76565500  0.40435400  1
  C  544  1  0.54501800  0.78653100  0.40827800  1
  C  545  1  0.56868300  0.78976500  0.42589700  1
  C  546  1  0.57672400  0.77210500  0.43982800  1
  C  553  1  0.64137400  0.71573200  0.49052900  1
  C  554  1  0.54478800  0.67470000  0.45886100  1
  C  555  1  0.50323500  0.76236000  0.38937400  1
  C  556  1  0.58838800  0.80872400  0.42728500  1
  C  561  1  0.23805700  0.39804700  0.78486700  1
  C  562  1  0.25928700  0.39916800  0.76578200  1
  C  563  1  0.24835100  0.41005900  0.74661000  1
  C  564  1  0.21627500  0.42188000  0.74691400  1
  C  565  1  0.19549200  0.42249500  0.76612100  1
  C  566  1  0.20599500  0.41011400  0.78445400  1
  C  569  1  0.24844400  0.38490000  0.80345300  1
  C  570  1  0.27103400  0.36653100  0.80099900  1
  C  571  1  0.28204200  0.35347700  0.81873500  1
  C  572  1  0.26792300  0.35786100  0.83967400  1
  C  573  1  0.24467100  0.37568100  0.84276300  1
  C  574  1  0.23586900  0.38912900  0.82486900  1
  C  581  1  0.16783900  0.43716800  0.76752900  1
  C  582  1  0.26600100  0.40661800  0.72708000  1
  C  583  1  0.30861900  0.33819700  0.81542200  1
  C  584  1  0.22494000  0.37679600  0.86162500  1
  C  589  1  0.23799800  0.59920100  0.31688700  1
  C  590  1  0.25852900  0.59837700  0.33629100  1
  C  591  1  0.24794800  0.58676800  0.35513800  1
  C  592  1  0.21725300  0.57365900  0.35407900  1
  C  593  1  0.19743000  0.57260500  0.33452600  1
  C  594  1  0.20719400  0.58592800  0.31669700  1
  C  597  1  0.24792500  0.61294800  0.29854400  1
  C  598  1  0.27085400  0.63115600  0.30118600  1
  C  599  1  0.28176400  0.64452600  0.28366500  1
  C  600  1  0.26680200  0.64088200  0.26281200  1
  C  601  1  0.24285200  0.62343600  0.25952800  1
  C  602  1  0.23476300  0.60941500  0.27710400  1
  C  609  1  0.17220400  0.55648200  0.33201300  1
  C  610  1  0.26475800  0.59037600  0.37495500  1
  C  611  1  0.30922000  0.65924000  0.28692400  1
  C  612  1  0.22296500  0.62230900  0.24062400  1
  C  617  1  0.23808400  0.73328700  0.65123900  1
  C  618  1  0.25897700  0.71405200  0.65025400  1
  C  619  1  0.24781400  0.69491800  0.63937900  1
  C  620  1  0.21588600  0.69539100  0.62741900  1
  C  621  1  0.19545800  0.71473200  0.62666400  1
  C  622  1  0.20613900  0.73303000  0.63904100  1
  C  625  1  0.24864500  0.75185900  0.66437900  1
  C  626  1  0.27136200  0.74938600  0.68269100  1
  C  627  1  0.28247300  0.76710300  0.69574000  1
  C  628  1  0.26831100  0.78804700  0.69144400  1
  C  629  1  0.24495400  0.79116400  0.67368700  1
  C  630  1  0.23609400  0.77329700  0.66021700  1
  C  637  1  0.16795700  0.71627700  0.61190100  1
  C  638  1  0.26495900  0.67526600  0.64303200  1
  C  639  1  0.30918500  0.76378200  0.71092400  1
  C  640  1  0.22513100  0.80999300  0.67268700  1
  C  645  1  0.23776200  0.26499600  0.44973100  1
  C  646  1  0.25911400  0.28403200  0.45091700  1
  C  647  1  0.24870000  0.30304900  0.46228000  1
  C  648  1  0.21714400  0.30256100  0.47461400  1
  C  649  1  0.19638300  0.28335600  0.47524200  1
  C  650  1  0.20624700  0.26524900  0.46234200  1
  C  653  1  0.24754000  0.24660600  0.43609700  1
  C  654  1  0.27010900  0.24925400  0.41773700  1
  C  655  1  0.28087800  0.23169600  0.40438200  1
  C  656  1  0.26615700  0.21081700  0.40827600  1
  C  657  1  0.24250200  0.20756000  0.42589500  1
  C  658  1  0.23448800  0.22519800  0.43986100  1
  C  665  1  0.16982600  0.28156300  0.49059600  1
  C  666  1  0.26642600  0.32259100  0.45894900  1
  C  667  1  0.30793500  0.23500800  0.38939700  1
  C  668  1  0.22278900  0.18860200  0.42725900  1
  C  673  1  0.23765400  0.39773700  0.31404500  1
  C  674  1  0.25631100  0.39901800  0.33410500  1
  C  675  1  0.24307800  0.41002100  0.35272200  1
  C  676  1  0.21159900  0.42231200  0.35052400  1
  C  677  1  0.19374700  0.42303600  0.33024800  1
  C  678  1  0.20613000  0.41026100  0.31268400  1
  C  681  1  0.24976500  0.38388400  0.29634100  1
  C  682  1  0.27193300  0.36553000  0.30017500  1
  C  683  1  0.28370200  0.35158000  0.28332800  1
  C  684  1  0.27087800  0.35495000  0.26190200  1
  C  685  1  0.24823000  0.37275500  0.25742100  1
  C  686  1  0.23884100  0.38718200  0.27442100  1
  C  693  1  0.16723100  0.43811900  0.32700400  1
  C  694  1  0.25793300  0.40650200  0.37325100  1
  C  695  1  0.30975900  0.33632200  0.28784100  1
  C  696  1  0.22890200  0.37286100  0.23836500  1
  C  701  1  0.23986300  0.60001800  0.78883500  1
  C  702  1  0.25684700  0.59900300  0.76823000  1
  C  703  1  0.24251600  0.58783300  0.75002900  1
  C  704  1  0.21219500  0.57467800  0.75335800  1
  C  705  1  0.19678600  0.57281100  0.77441400  1
  C  706  1  0.20969500  0.58643900  0.79125400  1
  C  709  1  0.25218500  0.61453100  0.80602200  1
  C  710  1  0.27364300  0.63305200  0.80142900  1
  C  711  1  0.28533000  0.64771100  0.81769300  1
  C  712  1  0.27281300  0.64498100  0.83928300  1
  C  713  1  0.25085500  0.62705400  0.84454600  1
  C  714  1  0.24198900  0.61182400  0.82817500  1
  C  721  1  0.17229000  0.55666100  0.77982600  1
  C  722  1  0.25560900  0.59164600  0.72904700  1
  C  723  1  0.31104100  0.66304500  0.81255400  1
  C  724  1  0.23182200  0.62691800  0.86377100  1
  C  729  1  0.23925400  0.73699400  0.44958900  1
  C  730  1  0.25606500  0.71632400  0.45046500  1
  C  731  1  0.24149500  0.69808400  0.46144900  1
  C  732  1  0.21089600  0.70132800  0.47437500  1
  C  733  1  0.19546800  0.72237000  0.47623900  1
  C  734  1  0.20875000  0.73931700  0.46289800  1
  C  737  1  0.25198300  0.75436100  0.43543800  1
  C  738  1  0.27370400  0.75002400  0.41698100  1
  C  739  1  0.28539100  0.76649300  0.40255200  1
  C  740  1  0.27284700  0.78804600  0.40548300  1
  C  741  1  0.25088500  0.79307700  0.42344600  1
  C  742  1  0.24183900  0.77648200  0.43840900  1
  C  749  1  0.17052600  0.72762800  0.49217000  1
  C  750  1  0.25460700  0.67712000  0.45766900  1
  C  751  1  0.31116300  0.76155800  0.38724100  1
  C  752  1  0.23133800  0.81205100  0.42318600  1
  C  757  1  0.23825600  0.26132200  0.65261000  1
  C  758  1  0.25617000  0.28161400  0.65120800  1
  C  759  1  0.24238900  0.29993200  0.63995300  1
  C  760  1  0.21149300  0.29700500  0.62723100  1
  C  761  1  0.19477000  0.27631300  0.62618300  1
  C  762  1  0.20726300  0.25932400  0.63969800  1
  C  765  1  0.25056400  0.24397000  0.66685500  1
  C  766  1  0.27231300  0.24833100  0.68528600  1
  C  767  1  0.28427300  0.23184600  0.69960200  1
  C  768  1  0.27176100  0.21028500  0.69659500  1
  C  769  1  0.24945500  0.20528300  0.67874900  1
  C  770  1  0.24025400  0.22188600  0.66385200  1
  C  777  1  0.16932800  0.27150000  0.61059900  1
  C  778  1  0.25644100  0.32073000  0.64338700  1
  C  779  1  0.31022100  0.23677100  0.71484600  1
  C  780  1  0.23059500  0.18599600  0.67841300  1
  C  785  1  0.57346200  0.59956800  0.31422700  1
  C  786  1  0.55456100  0.59817500  0.33419200  1
  C  787  1  0.56768900  0.58718400  0.35284600  1
  C  788  1  0.59932400  0.57501900  0.35076300  1
  C  789  1  0.61744800  0.57442700  0.33057600  1
  C  790  1  0.60515000  0.58719600  0.31298600  1
  C  793  1  0.56143200  0.61339000  0.29649300  1
  C  794  1  0.53923900  0.63173800  0.30027800  1
  C  795  1  0.52756600  0.64567200  0.28339600  1
  C  796  1  0.54049000  0.64228000  0.26199500  1
  C  797  1  0.56315300  0.62446900  0.25757100  1
  C  798  1  0.57246600  0.61005900  0.27460100  1
  C  805  1  0.64409400  0.55941900  0.32738400  1
  C  806  1  0.55253100  0.59059800  0.37331400  1
  C  807  1  0.50149000  0.66093500  0.28784400  1
  C  808  1  0.58255100  0.62433500  0.23854300  1
  C  813  1  0.57148000  0.39717800  0.78878800  1
  C  814  1  0.55454800  0.39817000  0.76816300  1
  C  815  1  0.56891000  0.40933300  0.74996700  1
  C  816  1  0.59922300  0.42249200  0.75331000  1
  C  817  1  0.61459500  0.42436200  0.77437700  1
  C  818  1  0.60165300  0.41075000  0.79121600  1
  C  821  1  0.55909800  0.38270000  0.80598800  1
  C  822  1  0.53762200  0.36418300  0.80141000  1
  C  823  1  0.52587700  0.34955800  0.81768800  1
  C  824  1  0.53835400  0.35231900  0.83928300  1
  C  825  1  0.56031900  0.37024500  0.84453500  1
  C  826  1  0.56924100  0.38544200  0.82814500  1
  C  833  1  0.63906900  0.44051800  0.77979700  1
  C  834  1  0.55583500  0.40553000  0.72897800  1
  C  835  1  0.50015800  0.33422900  0.81255500  1
  C  836  1  0.57932300  0.37040000  0.86377100  1
  C  841  1  0.57168600  0.26045600  0.44971200  1
  C  842  1  0.55469900  0.28106400  0.45067900  1
  C  843  1  0.56919300  0.29932600  0.46167100  1
  C  844  1  0.59987100  0.29613400  0.47454300  1
  C  845  1  0.61547800  0.27513200  0.47631700  1
  C  846  1  0.60227700  0.25818400  0.46295000  1
  C  849  1  0.55904500  0.24309800  0.43552900  1
  C  850  1  0.53734700  0.24744300  0.41706500  1
  C  851  1  0.52574200  0.23098200  0.40260200  1
  C  852  1  0.53834100  0.20943900  0.40551200  1
  C  853  1  0.56028400  0.20440200  0.42348500  1
  C  854  1  0.56926200  0.22098700  0.43847800  1
  C  861  1  0.64052000  0.26990200  0.49219600  1
  C  862  1  0.55586500  0.32025900  0.45799000  1
  C  863  1  0.49998300  0.23591200  0.38728300  1
  C  864  1  0.57986200  0.18544300  0.42321900  1
  C  869  1  0.57260100  0.73603900  0.65245500  1
  C  870  1  0.55456900  0.71579100  0.65100900  1
  C  871  1  0.56826800  0.69746200  0.63973300  1
  C  872  1  0.59920500  0.70034300  0.62703900  1
  C  873  1  0.61606800  0.72099000  0.62606200  1
  C  874  1  0.60364600  0.73799400  0.63958300  1
  C  877  1  0.56036600  0.75338900  0.66666667  1
  C  878  1  0.53865800  0.74903100  0.68516900  1
  C  879  1  0.52677800  0.76551600  0.69950900  1
  C  880  1  0.53932700  0.78706900  0.69649900  1
  C  881  1  0.56159300  0.79206400  0.67863300  1
  C  882  1  0.57072100  0.77546500  0.66371500  1
  C  889  1  0.64160200  0.72573600  0.61052900  1
  C  890  1  0.55414600  0.67668600  0.64316200  1
  C  891  1  0.50086900  0.76059900  0.71478100  1
  C  892  1  0.58051000  0.81133000  0.67829300  1
  C  897  1  0.15198600  0.97865700  0.27371500  1
  C  899  1  0.14322400  0.00965300  0.29699000  1
  C  900  1  0.15066700  0.02381100  0.27936600  1
  C  902  1  0.16137300  0.99275800  0.25642400  1
  C  903  1  0.16710900  0.98616900  0.23656800  1
  C  904  1  0.13116500  0.01633000  0.31570700  1
  C  909  1  0.14605900  0.02121200  0.81612400  1
  C  911  1  0.12962900  0.98832700  0.79750500  1
  C  912  1  0.14414000  0.97570000  0.81460400  1
  C  914  1  0.16260900  0.00862000  0.83260800  1
  C  915  1  0.17518900  0.01651600  0.85067200  1
  C  916  1  0.11125900  0.98018000  0.78150700  1
  C  921  1  0.15195800  0.77501300  0.03052800  1
  C  923  1  0.14223000  0.75171500  0.06138900  1
  C  924  1  0.15033700  0.76915000  0.07564000  1
  C  926  1  0.16194800  0.79210000  0.04471600  1
  C  927  1  0.16843000  0.81189500  0.03820900  1
  C  928  1  0.12936800  0.73315900  0.06795000  1
  C  933  1  0.14564200  0.23270100  0.07302100  1
  C  935  1  0.13018200  0.25129800  0.03994500  1
  C  936  1  0.14428800  0.23395000  0.02748100  1
  C  938  1  0.16171400  0.21591000  0.06059500  1
  C  939  1  0.17348000  0.19771400  0.06867400  1
  C  940  1  0.11252400  0.26749500  0.03159600  1
  C  945  1  0.65923100  0.01877600  0.27390900  1
  C  947  1  0.66806600  0.98778200  0.29717400  1
  C  948  1  0.66047100  0.97362400  0.27957800  1
  C  950  1  0.64970700  0.00467700  0.25664400  1
  C  951  1  0.64386700  0.01126400  0.23679900  1
  C  952  1  0.68022900  0.98110200  0.31586600  1
  C  957  1  0.66543800  0.97647800  0.81612400  1
  C  959  1  0.68115100  0.00952100  0.79755400  1
  C  960  1  0.66690500  0.02200400  0.81484300  1
  C  962  1  0.64921500  0.98892500  0.83284400  1
  C  963  1  0.63722900  0.98088300  0.85099800  1
  C  964  1  0.69904200  0.01783300  0.78143600  1
  C  969  1  0.65925500  0.22244900  0.03036500  1
  C  971  1  0.66914200  0.24573200  0.06121700  1
  C  972  1  0.66078600  0.22834600  0.07547300  1
  C  974  1  0.64903500  0.20541500  0.04455500  1
  C  975  1  0.64237100  0.18564300  0.03805300  1
  C  976  1  0.68220300  0.26423600  0.06777500  1
  C  981  1  0.66542500  0.76455200  0.07301100  1
  C  983  1  0.68073600  0.74594800  0.03991200  1
  C  984  1  0.66666667  0.76333600  0.02747000  1
  C  986  1  0.64941600  0.78138200  0.06060700  1
  C  987  1  0.63776300  0.79959600  0.06870600  1
  C  988  1  0.69830800  0.72972700  0.03154100  1
  C  993  1  0.65070100  0.47831500  0.77413900  1
  C  995  1  0.64244500  0.50922400  0.79759800  1
  C  996  1  0.64990200  0.52343900  0.78002600  1
  C  998  1  0.66007400  0.49246300  0.75688500  1
  C  999  1  0.66559700  0.48593600  0.73698800  1
  C  1000  1  0.63058900  0.51585100  0.81638500  1
  C  1005  1  0.64552700  0.52159800  0.31588900  1
  C  1007  1  0.62900800  0.48869400  0.29733700  1
  C  1008  1  0.64303200  0.47609800  0.31461400  1
  C  1010  1  0.66164200  0.50901900  0.33254800  1
  C  1011  1  0.67405300  0.51696100  0.35063500  1
  C  1012  1  0.61081500  0.48054800  0.28126300  1
  C  1017  1  0.65092500  0.27476700  0.53021400  1
  C  1019  1  0.64132700  0.25138900  0.56103100  1
  C  1020  1  0.64946100  0.26879500  0.57531300  1
  C  1022  1  0.66091800  0.29182800  0.54443100  1
  C  1023  1  0.66739700  0.31162800  0.53794600  1
  C  1024  1  0.62851900  0.23280800  0.56756200  1
  C  1029  1  0.64823900  0.72529100  0.57180900  1
  C  1031  1  0.63575700  0.74711800  0.54031300  1
  C  1032  1  0.64711100  0.72994600  0.52657100  1
  C  1034  1  0.66149900  0.70859400  0.55820700  1
  C  1035  1  0.67075200  0.68946900  0.56538400  1
  C  1036  1  0.62014200  0.76466300  0.53322700  1
  C  1041  1  0.16044500  0.51890400  0.77403100  1
  C  1043  1  0.16852200  0.48796000  0.79747200  1
  C  1044  1  0.16120900  0.47376900  0.77985800  1
  C  1046  1  0.15118700  0.50477800  0.75673500  1
  C  1047  1  0.14581000  0.51133000  0.73683000  1
  C  1048  1  0.18024400  0.48130900  0.81628200  1
  C  1053  1  0.16589800  0.47602200  0.31596800  1
  C  1055  1  0.18163500  0.50907100  0.29742100  1
  C  1056  1  0.16799700  0.52153600  0.31490900  1
  C  1058  1  0.15021900  0.48846900  0.33288400  1
  C  1059  1  0.13849500  0.48039300  0.35108800  1
  C  1060  1  0.19927900  0.51736900  0.28119000  1
  C  1065  1  0.16015200  0.72265200  0.53017300  1
  C  1067  1  0.16976800  0.74602500  0.56099300  1
  C  1068  1  0.16167800  0.72861300  0.57527300  1
  C  1070  1  0.15021900  0.70558000  0.54439200  1
  C  1071  1  0.14376200  0.68577500  0.53790700  1
  C  1072  1  0.18254400  0.76461400  0.56752200  1
  C  1077  1  0.16259700  0.27226400  0.57189700  1
  C  1079  1  0.17517900  0.25032800  0.54048900  1
  C  1080  1  0.16397600  0.26748000  0.52667300  1
  C  1082  1  0.14951000  0.28894800  0.55821700  1
  C  1083  1  0.14027900  0.30810500  0.56532000  1
  C  1084  1  0.19076400  0.23274100  0.53348400  1
  C  1089  1  0.18166300  0.17161100  0.40037100  1
  C  1091  1  0.15007700  0.16967500  0.36676100  1
  C  1092  1  0.13392400  0.15008000  0.37366800  1
  C  1094  1  0.16573000  0.15195700  0.40738300  1
  C  1095  1  0.17220400  0.14310800  0.42618900  1
  C  1096  1  0.14395400  0.17929100  0.34818800  1
  C  1101  1  0.17411200  0.82126400  0.69471400  1
  C  1103  1  0.13328500  0.81888700  0.72432900  1
  C  1104  1  0.12721600  0.84158700  0.72302200  1
  C  1106  1  0.16786000  0.84398300  0.69316500  1
  C  1107  1  0.18357500  0.85655400  0.67917000  1
  C  1108  1  0.11939500  0.80599900  0.73888300  1
  C  1113  1  0.18176200  0.64916900  0.22386300  1
  C  1115  1  0.14992500  0.68269300  0.22186600  1
  C  1116  1  0.13362100  0.67564200  0.20237000  1
  C  1118  1  0.16567700  0.64201900  0.20430300  1
  C  1119  1  0.17215200  0.62318500  0.19551200  1
  C  1120  1  0.14378200  0.70130300  0.23140100  1
  C  1125  1  0.17417200  0.35466500  0.87316200  1
  C  1127  1  0.13362700  0.32489000  0.87099100  1
  C  1128  1  0.12774700  0.32622400  0.89371000  1
  C  1130  1  0.16810800  0.35624200  0.89589700  1
  C  1131  1  0.18381400  0.37032300  0.90837700  1
  C  1132  1  0.11979900  0.31024800  0.85817700  1
  C  1137  1  0.62953700  0.82574000  0.40042800  1
  C  1139  1  0.66115300  0.82770500  0.36683000  1
  C  1140  1  0.67730200  0.84729200  0.37376100  1
  C  1142  1  0.64546900  0.84538600  0.40746300  1
  C  1143  1  0.63897900  0.85421700  0.42627700  1
  C  1144  1  0.66728600  0.81810700  0.34824800  1
  C  1149  1  0.63704400  0.17610400  0.69469300  1
  C  1151  1  0.67789400  0.17844800  0.72429600  1
  C  1152  1  0.68390000  0.15574100  0.72299600  1
  C  1154  1  0.64324600  0.15338000  0.69314400  1
  C  1155  1  0.62750400  0.14082100  0.67914700  1
  C  1156  1  0.69182800  0.19132400  0.73884700  1
  C  1161  1  0.62954700  0.34825300  0.22389400  1
  C  1163  1  0.66183000  0.31488600  0.22203100  1
  C  1164  1  0.67785500  0.32187600  0.20242700  1
  C  1166  1  0.64537700  0.35535100  0.20423400  1
  C  1167  1  0.63856900  0.37408700  0.19533100  1
  C  1168  1  0.66826400  0.29635900  0.23165800  1
  C  1173  1  0.63698600  0.64267600  0.87323900  1
  C  1175  1  0.67754000  0.67244200  0.87103200  1
  C  1176  1  0.68343500  0.67112800  0.89375100  1
  C  1178  1  0.64306100  0.64111900  0.89597400  1
  C  1179  1  0.62735300  0.62705200  0.90847000  1
  C  1180  1  0.69136600  0.68707200  0.85820200  1
  C  1185  1  0.62637200  0.82564800  0.70341200  1
  C  1187  1  0.66311400  0.82568600  0.73503700  1
  C  1188  1  0.67964200  0.84500600  0.72770500  1
  C  1190  1  0.64274900  0.84501200  0.69597300  1
  C  1191  1  0.63440300  0.85454700  0.67779300  1
  C  1192  1  0.67105300  0.81549400  0.75303100  1
  C  1197  1  0.63545000  0.17674200  0.40485300  1
  C  1199  1  0.67989800  0.18093800  0.37750700  1
  C  1200  1  0.68816700  0.15852800  0.37913800  1
  C  1202  1  0.64387800  0.15433100  0.40675600  1
  C  1203  1  0.62786300  0.14114200  0.42003700  1
  C  1204  1  0.69421500  0.19439500  0.36364300  1
  C  1209  1  0.62600700  0.34560300  0.87753600  1
  C  1211  1  0.66340000  0.31426600  0.87725700  1
  C  1212  1  0.68074100  0.32197400  0.89615300  1
  C  1214  1  0.64312700  0.35337900  0.89652200  1
  C  1215  1  0.63489800  0.37160500  0.90600900  1
  C  1216  1  0.67123000  0.29621700  0.86713100  1
  C  1221  1  0.63667700  0.64389100  0.22879100  1
  C  1223  1  0.68009400  0.67196900  0.23219800  1
  C  1224  1  0.68717300  0.67060400  0.20961300  1
  C  1226  1  0.64397000  0.64223600  0.20620500  1
  C  1227  1  0.62779500  0.62879100  0.19325800  1
  C  1228  1  0.69451900  0.68599700  0.24544000  1
  C  1233  1  0.18487000  0.17160100  0.70359100  1
  C  1235  1  0.14815300  0.17154700  0.73522700  1
  C  1236  1  0.13170300  0.15219300  0.72792800  1
  C  1238  1  0.16858200  0.15219400  0.69619000  1
  C  1239  1  0.17697200  0.14263900  0.67802800  1
  C  1240  1  0.14017300  0.18176000  0.75320300  1
  C  1245  1  0.17572900  0.82075900  0.40483800  1
  C  1247  1  0.13122300  0.81653500  0.37753300  1
  C  1248  1  0.12299200  0.83895300  0.37912500  1
  C  1250  1  0.16733700  0.84317900  0.40670600  1
  C  1251  1  0.18340200  0.85638300  0.41994700  1
  C  1252  1  0.11686400  0.80306200  0.36370100  1
  C  1257  1  0.18512700  0.65171500  0.87751200  1
  C  1259  1  0.14774200  0.68305500  0.87723300  1
  C  1260  1  0.13039100  0.67534700  0.89612400  1
  C  1262  1  0.16799700  0.64393700  0.89649300  1
  C  1263  1  0.17621600  0.62571000  0.90597800  1
  C  1264  1  0.13992200  0.70110800  0.86711100  1
  C  1269  1  0.17472600  0.35334700  0.22860200  1
  C  1271  1  0.13113600  0.32537600  0.23206600  1
  C  1272  1  0.12410900  0.32668400  0.20947100  1
  C  1274  1  0.16749300  0.35494200  0.20600200  1
  C  1275  1  0.18378700  0.36829900  0.19302300  1
  C  1276  1  0.11660700  0.31142200  0.24534200  1
  C  1281  1  0.03133700  0.12003800  0.20237400  1
  C  1283  1  0.01196300  0.15552500  0.19121600  1
  C  1284  1  0.03045500  0.15323300  0.17131300  1
  C  1286  1  0.04805100  0.11714700  0.18187800  1
  C  1287  1  0.06860700  0.10082300  0.17718400  1
  C  1288  1  0.99693500  0.17358600  0.19741400  1
  C  1293  1  0.03478200  0.87718600  0.89921900  1
  C  1295  1  0.01531200  0.84152500  0.90969700  1
  C  1296  1  0.03389600  0.84339000  0.92962200  1
  C  1298  1  0.05165400  0.87965000  0.91970600  1
  C  1299  1  0.07216600  0.89591800  0.92464200  1
  C  1300  1  0.00008600  0.82365500  0.90313000  1
  C  1305  1  0.03308600  0.84661100  0.17243800  1
  C  1307  1  0.01381300  0.85764400  0.20797700  1
  C  1308  1  0.03310300  0.87729000  0.20596800  1
  C  1310  1  0.05058000  0.86689300  0.16982300  1
  C  1311  1  0.07134800  0.87149500  0.15357500  1
  C  1312  1  0.99828300  0.85148100  0.22589000  1
  C  1317  1  0.03309900  0.14975600  0.92935900  1
  C  1319  1  0.01320100  0.13908100  0.89384100  1
  C  1320  1  0.03061500  0.11879600  0.89608500  1
  C  1322  1  0.04880100  0.12896500  0.93220200  1
  C  1323  1  0.06904000  0.12388400  0.94855500  1
  C  1324  1  0.99853700  0.14567800  0.87580400  1
  C  1329  1  0.77941600  0.87710400  0.20228500  1
  C  1331  1  0.79904400  0.84165400  0.19117200  1
  C  1332  1  0.78078800  0.84395200  0.17118700  1
  C  1334  1  0.76297800  0.88001000  0.18170600  1
  C  1335  1  0.74243000  0.89631800  0.17693800  1
  C  1336  1  0.81401400  0.82359700  0.19742900  1
  C  1341  1  0.77675900  0.12033500  0.89930800  1
  C  1343  1  0.79633200  0.15596800  0.90980700  1
  C  1344  1  0.77787200  0.15407000  0.92977500  1
  C  1346  1  0.76003600  0.11783100  0.91983400  1
  C  1347  1  0.73954600  0.10156000  0.92479600  1
  C  1348  1  0.81151300  0.17384900  0.90323500  1
  C  1353  1  0.77771300  0.15069700  0.17248700  1
  C  1355  1  0.79717500  0.13975200  0.20801500  1
  C  1356  1  0.77805200  0.12004100  0.20603800  1
  C  1358  1  0.76040600  0.13035100  0.16989900  1
  C  1359  1  0.73963400  0.12567100  0.15367300  1
  C  1360  1  0.81267400  0.14598600  0.22591300  1
  C  1365  1  0.77801700  0.84754700  0.92949800  1
  C  1367  1  0.79778300  0.85820500  0.89394700  1
  C  1368  1  0.78006100  0.87839600  0.89610900  1
  C  1370  1  0.76202900  0.86826400  0.93226700  1
  C  1371  1  0.74170100  0.87328900  0.94859600  1
  C  1372  1  0.81254200  0.85162100  0.87593300  1
  C  1377  1  0.53251700  0.62155100  0.70361300  1
  C  1379  1  0.51279400  0.65701700  0.69264100  1
  C  1380  1  0.53120300  0.65486400  0.67269500  1
  C  1382  1  0.54913400  0.61879000  0.68307000  1
  C  1383  1  0.56971900  0.60251800  0.67824200  1
  C  1384  1  0.49756700  0.67498200  0.69892000  1
  C  1389  1  0.53392100  0.37608000  0.39822200  1
  C  1391  1  0.51477600  0.34034200  0.40864800  1
  C  1392  1  0.53317300  0.34228300  0.42863000  1
  C  1394  1  0.55072600  0.37858200  0.41872700  1
  C  1395  1  0.57105400  0.39492200  0.42371800  1
  C  1396  1  0.49966300  0.32243400  0.40209700  1
  C  1401  1  0.53329400  0.34536700  0.67364900  1
  C  1403  1  0.51377200  0.35632600  0.70915500  1
  C  1404  1  0.53271300  0.37609700  0.70713500  1
  C  1406  1  0.55054100  0.36573200  0.67104500  1
  C  1407  1  0.57127900  0.37044000  0.65481200  1
  C  1408  1  0.49819100  0.35013900  0.72703800  1
  C  1413  1  0.53114200  0.65113900  0.42839900  1
  C  1415  1  0.51214900  0.64037000  0.39272900  1
  C  1416  1  0.53007200  0.62026300  0.39501900  1
  C  1418  1  0.54745000  0.63052400  0.43125600  1
  C  1419  1  0.56761800  0.62560900  0.44769600  1
  C  1420  1  0.49752200  0.64682400  0.37463500  1
  C  1425  1  0.27892000  0.37594800  0.70365200  1
  C  1427  1  0.29839400  0.34043300  0.69266400  1
  C  1428  1  0.27971500  0.34255700  0.67280900  1
  C  1430  1  0.26200500  0.37866900  0.68319500  1
  C  1431  1  0.24140200  0.39495000  0.67843300  1
  C  1432  1  0.31369800  0.32247700  0.69889600  1
  C  1437  1  0.27776400  0.62117400  0.39825100  1
  C  1439  1  0.29673700  0.65694200  0.40870400  1
  C  1440  1  0.27802300  0.65504900  0.42857800  1
  C  1442  1  0.26067600  0.61871200  0.41867200  1
  C  1443  1  0.24028200  0.60238100  0.42359200  1
  C  1444  1  0.31192700  0.67484000  0.40219300  1
  C  1449  1  0.27768200  0.65192900  0.67378000  1
  C  1451  1  0.29733200  0.64097200  0.70926100  1
  C  1452  1  0.27854400  0.62114800  0.70721700  1
  C  1454  1  0.26060200  0.63151400  0.67114700  1
  C  1455  1  0.23988000  0.62677000  0.65491800  1
  C  1456  1  0.31286500  0.64718400  0.72714900  1
  C  1461  1  0.27986600  0.34614800  0.42845300  1
  C  1463  1  0.29877200  0.35690500  0.39276100  1
  C  1464  1  0.28065900  0.37695300  0.39500200  1
  C  1466  1  0.26336700  0.36671100  0.43126100  1
  C  1467  1  0.24314600  0.37159200  0.44768800  1
  C  1468  1  0.31347300  0.35046700  0.37468400  1
  C  1473  1  0.94432900  0.16759600  0.32622900  1
  C  1475  1  0.89286200  0.17571800  0.30480900  1
  C  1476  1  0.87102700  0.16982700  0.32263500  1
  C  1478  1  0.92252800  0.16351000  0.34449200  1
  C  1479  1  0.93408200  0.15644700  0.36320700  1
  C  1480  1  0.88135200  0.18074700  0.28551500  1
  C  1485  1  0.94379700  0.83122100  0.77540900  1
  C  1487  1  0.89154000  0.82325300  0.79608900  1
  C  1488  1  0.87039000  0.83013300  0.77828800  1
  C  1490  1  0.92266800  0.83618400  0.75707300  1
  C  1491  1  0.93506600  0.84346300  0.73865000  1
  C  1492  1  0.87939900  0.81776100  0.81510800  1
  C  1497  1  0.94262600  0.72274800  0.21834500  1
  C  1499  1  0.89130800  0.74424100  0.22662700  1
  C  1500  1  0.86932700  0.72665800  0.22022200  1
  C  1502  1  0.92065300  0.70469200  0.21372600  1
  C  1503  1  0.93210200  0.68605600  0.20639500  1
  C  1504  1  0.87998300  0.76345100  0.23210900  1
  C  1509  1  0.94536800  0.27364700  0.88220200  1
  C  1511  1  0.89304500  0.25298800  0.87434000  1
  C  1512  1  0.87197000  0.27097800  0.88078500  1
  C  1514  1  0.92433300  0.29213800  0.88672500  1
  C  1515  1  0.93677600  0.31063600  0.89378400  1
  C  1516  1  0.88079400  0.23389800  0.86920100  1
  C  1521  1  0.86684700  0.82982800  0.32623700  1
  C  1523  1  0.91830600  0.82172600  0.30480500  1
  C  1524  1  0.94014700  0.82762700  0.32262700  1
  C  1526  1  0.88865100  0.83392200  0.34449600  1
  C  1527  1  0.87710200  0.84097700  0.36321400  1
  C  1528  1  0.92981300  0.81669500  0.28551000  1
  C  1533  1  0.86739500  0.16600200  0.77532000  1
  C  1535  1  0.91961200  0.17401800  0.79601900  1
  C  1536  1  0.94079700  0.16705700  0.77826500  1
  C  1538  1  0.88856400  0.16094700  0.75702400  1
  C  1539  1  0.87620300  0.15360100  0.73861900  1
  C  1540  1  0.93171100  0.17957300  0.81502900  1
  C  1545  1  0.86862100  0.27462400  0.21822400  1
  C  1547  1  0.91989500  0.25311000  0.22655700  1
  C  1548  1  0.94191000  0.27069600  0.22020800  1
  C  1550  1  0.89062000  0.29268400  0.21367700  1
  C  1551  1  0.87921400  0.31133600  0.20635800  1
  C  1552  1  0.93118800  0.23388600  0.23202200  1
  C  1557  1  0.86577700  0.72375100  0.88218600  1
  C  1559  1  0.91811600  0.74441500  0.87438900  1
  C  1560  1  0.93917900  0.72640300  0.88079300  1
  C  1562  1  0.88679500  0.70524200  0.88666500  1
  C  1563  1  0.87433600  0.68672900  0.89367300  1
  C  1564  1  0.93037900  0.76352000  0.86931000  1
  C  1569  1  0.44468600  0.66753000  0.82909900  1
  C  1571  1  0.39332300  0.67565200  0.80757400  1
  C  1572  1  0.37140800  0.66998900  0.82543300  1
  C  1574  1  0.42282400  0.66378500  0.84740800  1
  C  1575  1  0.43425000  0.65676900  0.86617000  1
  C  1576  1  0.38183400  0.68038000  0.78819900  1
  C  1581  1  0.44389100  0.33130300  0.27261800  1
  C  1583  1  0.39161500  0.32334700  0.29329000  1
  C  1584  1  0.37047000  0.33011700  0.27544400  1
  C  1586  1  0.42277400  0.33606400  0.25421700  1
  C  1587  1  0.43516700  0.34333900  0.23579100  1
  C  1588  1  0.37944400  0.31804400  0.31235200  1
  C  1593  1  0.44388300  0.22000400  0.71900500  1
  C  1595  1  0.39259900  0.24154300  0.72727400  1
  C  1596  1  0.37061800  0.22377900  0.72141300  1
  C  1598  1  0.42194200  0.20178100  0.71501900  1
  C  1599  1  0.43330600  0.18306800  0.70783700  1
  C  1600  1  0.38118400  0.26088600  0.73219500  1
  C  1605  1  0.44524700  0.77667700  0.38204000  1
  C  1607  1  0.39304500  0.75583300  0.37433200  1
  C  1608  1  0.37185200  0.77384200  0.38057800  1
  C  1610  1  0.42410100  0.79519600  0.38625600  1
  C  1611  1  0.43641000  0.81375900  0.39322500  1
  C  1612  1  0.38089800  0.73662300  0.36955300  1
  C  1617  1  0.36649900  0.32978300  0.82907800  1
  C  1619  1  0.41787100  0.32164800  0.80756300  1
  C  1620  1  0.43977700  0.32730900  0.82542300  1
  C  1622  1  0.38835600  0.33352800  0.84739000  1
  C  1623  1  0.37692800  0.34055200  0.86614900  1
  C  1624  1  0.42936200  0.31692200  0.78818800  1
  C  1629  1  0.36739800  0.66588900  0.27251800  1
  C  1631  1  0.41964200  0.67392000  0.29318800  1
  C  1632  1  0.44081100  0.66708600  0.27538000  1
  C  1634  1  0.38853500  0.66105900  0.25414700  1
  C  1635  1  0.37616900  0.65371400  0.23574200  1
  C  1636  1  0.43178100  0.67928700  0.31224300  1
  C  1641  1  0.36722900  0.77737500  0.71902700  1
  C  1643  1  0.41852400  0.75583800  0.72727700  1
  C  1644  1  0.44049600  0.77360100  0.72140600  1
  C  1646  1  0.38916500  0.79559900  0.71503700  1
  C  1647  1  0.37779200  0.81431300  0.70786100  1
  C  1648  1  0.42994100  0.73649400  0.73219600  1
  C  1653  1  0.36593100  0.22071500  0.38204800  1
  C  1655  1  0.41810600  0.24158800  0.37434700  1
  C  1656  1  0.43932300  0.22358900  0.38059100  1
  C  1658  1  0.38710000  0.20220700  0.38626000  1
  C  1659  1  0.37481600  0.18363600  0.39322900  1
  C  1660  1  0.43022100  0.26080500  0.36957300  1
  N  898  1  0.14283100  0.98787700  0.29307400  1
  N  901  1  0.15897600  0.01454000  0.25985400  1
  N  905  1  0.12044500  0.02227500  0.33218900  1
  N  906  1  0.17217400  0.98030600  0.21906000  1
  N  907  1  0.13886000  0.95918000  0.26952500  1
  N  908  1  0.13729200  0.04374900  0.27892100  1
  N  910  1  0.13001900  0.01033000  0.79958900  1
  N  913  1  0.15953500  0.98660800  0.83144300  1
  N  917  1  0.09506400  0.97291600  0.76743200  1
  N  918  1  0.18626500  0.02335900  0.86671200  1
  N  919  1  0.13425200  0.04132000  0.81856400  1
  N  920  1  0.13265600  0.95557100  0.81777600  1
  N  922  1  0.14201600  0.75575500  0.03963800  1
  N  925  1  0.15940100  0.78859000  0.06648100  1
  N  929  1  0.11792000  0.71682600  0.07378800  1
  N  930  1  0.17415800  0.82934400  0.03240300  1
  N  931  1  0.13879700  0.77944600  0.01113300  1
  N  932  1  0.13700700  0.76964900  0.09558400  1
  N  934  1  0.13025400  0.24936100  0.06196800  1
  N  937  1  0.15894300  0.21697400  0.03856000  1
  N  941  1  0.09698000  0.28174700  0.02413800  1
  N  942  1  0.18381300  0.18156500  0.07569700  1
  N  943  1  0.13368800  0.23045200  0.09312900  1
  N  944  1  0.13298900  0.23080200  0.00730400  1
  N  946  1  0.66848900  0.00955500  0.29325000  1
  N  949  1  0.65206500  0.98289400  0.26008100  1
  N  953  1  0.69104100  0.97515400  0.33232400  1
  N  954  1  0.63871200  0.01712700  0.21930100  1
  N  955  1  0.67240100  0.03823100  0.26968500  1
  N  956  1  0.67377300  0.95367000  0.27911000  1
  N  958  1  0.68100000  0.98750300  0.79951100  1
  N  961  1  0.65205100  0.01095300  0.83177100  1
  N  965  1  0.71480800  0.02525400  0.76725600  1
  N  966  1  0.62669500  0.97390100  0.86711600  1
  N  967  1  0.67735200  0.95636700  0.81836500  1
  N  968  1  0.67826400  0.04215500  0.81803200  1
  N  970  1  0.66938800  0.24166900  0.03947000  1
  N  973  1  0.65154100  0.20893500  0.06632000  1
  N  977  1  0.69383200  0.28052100  0.07361200  1
  N  978  1  0.63647800  0.16821200  0.03225000  1
  N  979  1  0.67250700  0.21795500  0.01101300  1
  N  980  1  0.67402700  0.22781900  0.09543900  1
  N  982  1  0.68071000  0.74787100  0.06193700  1
  N  985  1  0.65215700  0.78033100  0.03857100  1
  N  989  1  0.71377500  0.71545300  0.02406300  1
  N  990  1  0.62753000  0.81576300  0.07574500  1
  N  991  1  0.67745800  0.76677800  0.09310300  1
  N  992  1  0.67804500  0.76649500  0.00730300  1
  N  994  1  0.64179700  0.48747300  0.79357000  1
  N  997  1  0.65794600  0.51424100  0.76043600  1
  N  1001  1  0.62003800  0.52175300  0.83292200  1
  N  1002  1  0.67048700  0.48012000  0.71944400  1
  N  1003  1  0.63728200  0.45891800  0.76994100  1
  N  1004  1  0.63675100  0.54343100  0.77973600  1
  N  1006  1  0.62963700  0.51070500  0.29930800  1
  N  1009  1  0.65829500  0.48701400  0.33149100  1
  N  1013  1  0.59477200  0.47327700  0.26712300  1
  N  1014  1  0.68499500  0.52384400  0.36669300  1
  N  1015  1  0.63388000  0.54175800  0.31816000  1
  N  1016  1  0.63123600  0.45604300  0.31778100  1
  N  1018  1  0.64103900  0.25548300  0.53929200  1
  N  1021  1  0.65846700  0.28826500  0.56619400  1
  N  1025  1  0.61711200  0.21645700  0.57338000  1
  N  1026  1  0.67314400  0.32908200  0.53215800  1
  N  1027  1  0.63768400  0.27918700  0.51083700  1
  N  1028  1  0.63629300  0.26918800  0.59529800  1
  N  1030  1  0.63530200  0.74354300  0.56214000  1
  N  1033  1  0.65904600  0.71140200  0.53632700  1
  N  1037  1  0.60632100  0.78008800  0.52689500  1
  N  1038  1  0.67890900  0.67261500  0.57181100  1
  N  1039  1  0.63401500  0.72069200  0.59082300  1
  N  1040  1  0.63441700  0.72850400  0.50652500  1
  N  1042  1  0.16920200  0.50971700  0.79347700  1
  N  1045  1  0.15330300  0.48299600  0.76026000  1
  N  1049  1  0.19067400  0.47538200  0.83284100  1
  N  1050  1  0.14104900  0.51716700  0.71927900  1
  N  1051  1  0.17391100  0.53830000  0.76988400  1
  N  1052  1  0.17441700  0.45379100  0.77956700  1
  N  1054  1  0.18123200  0.48704700  0.29927300  1
  N  1057  1  0.15335500  0.51048700  0.33190700  1
  N  1061  1  0.21482900  0.52478500  0.26691700  1
  N  1062  1  0.12818400  0.47338000  0.36724900  1
  N  1063  1  0.17767000  0.45586400  0.31803700  1
  N  1064  1  0.17974600  0.54160000  0.31807100  1
  N  1066  1  0.17001800  0.74194100  0.53925100  1
  N  1069  1  0.15269500  0.70913800  0.56615500  1
  N  1073  1  0.19392300  0.78097600  0.57333800  1
  N  1074  1  0.13803700  0.66831800  0.53212100  1
  N  1075  1  0.17330200  0.71825000  0.51076700  1
  N  1076  1  0.17483900  0.72822700  0.59526200  1
  N  1078  1  0.17550400  0.25395800  0.56230800  1
  N  1081  1  0.15206900  0.28607100  0.53635100  1
  N  1085  1  0.20456600  0.21728000  0.52722300  1
  N  1086  1  0.13214100  0.32498500  0.57168400  1
  N  1087  1  0.17667000  0.27689500  0.59094800  1
  N  1088  1  0.17676100  0.26884800  0.50664200  1
  N  1090  1  0.17309700  0.17943100  0.38043300  1
  N  1093  1  0.14227100  0.14204100  0.39373500  1
  N  1097  1  0.13837800  0.18770200  0.33181200  1
  N  1098  1  0.17792600  0.13524800  0.44281800  1
  N  1099  1  0.20450000  0.18414100  0.41031500  1
  N  1100  1  0.11005700  0.14129100  0.36088800  1
  N  1102  1  0.15668100  0.80996900  0.71032200  1
  N  1105  1  0.14469400  0.85320500  0.70746200  1
  N  1109  1  0.10732000  0.79467500  0.75180700  1
  N  1110  1  0.19731300  0.86773300  0.66676200  1
  N  1111  1  0.19808100  0.80911700  0.68517200  1
  N  1112  1  0.10615700  0.85056700  0.73748700  1
  N  1114  1  0.17312900  0.66912700  0.23160800  1
  N  1117  1  0.14203500  0.65555700  0.19440500  1
  N  1121  1  0.13819500  0.71771400  0.23974100  1
  N  1122  1  0.17786000  0.60653300  0.18769700  1
  N  1123  1  0.20473600  0.63933900  0.23639800  1
  N  1124  1  0.10961400  0.68832300  0.19357300  1
  N  1126  1  0.15680600  0.33896000  0.86196400  1
  N  1129  1  0.14516200  0.34188100  0.90523400  1
  N  1133  1  0.10779400  0.29725300  0.84690900  1
  N  1134  1  0.19754500  0.38280600  0.91947600  1
  N  1135  1  0.19799300  0.36421900  0.86091400  1
  N  1136  1  0.10686600  0.31171700  0.90277200  1
  N  1138  1  0.63812000  0.81793700  0.38048500  1
  N  1141  1  0.66894100  0.85531300  0.39383100  1
  N  1145  1  0.67286900  0.80971400  0.33186600  1
  N  1146  1  0.63324800  0.86206400  0.44290900  1
  N  1147  1  0.60669100  0.81320100  0.41035100  1
  N  1148  1  0.70117000  0.85609600  0.36099100  1
  N  1150  1  0.65451200  0.18738500  0.71029500  1
  N  1153  1  0.66639200  0.14413700  0.70743900  1
  N  1157  1  0.70394400  0.20263400  0.75176600  1
  N  1158  1  0.61374700  0.12965300  0.66673700  1
  N  1159  1  0.61308600  0.18826900  0.68516000  1
  N  1160  1  0.70493700  0.14674400  0.73746100  1
  N  1162  1  0.63851700  0.32839700  0.23175000  1
  N  1165  1  0.66909700  0.34186000  0.19434600  1
  N  1169  1  0.67410400  0.28002200  0.24007600  1
  N  1170  1  0.63257400  0.39065400  0.18741800  1
  N  1171  1  0.60648300  0.35802800  0.23640900  1
  N  1172  1  0.70186000  0.30922000  0.19359600  1
  N  1174  1  0.65435100  0.65836800  0.86202300  1
  N  1177  1  0.66602000  0.65548400  0.90529300  1
  N  1181  1  0.70336500  0.70005600  0.84691700  1
  N  1182  1  0.61362000  0.61458200  0.91958000  1
  N  1183  1  0.61316000  0.63311100  0.86100400  1
  N  1184  1  0.70432400  0.68564100  0.90279600  1
  N  1186  1  0.63740100  0.81698500  0.72252800  1
  N  1189  1  0.66882400  0.85389400  0.70846800  1
  N  1193  1  0.67819000  0.80658900  0.76890700  1
  N  1194  1  0.62709900  0.86301500  0.66170800  1
  N  1195  1  0.60163700  0.81381100  0.69436200  1
  N  1196  1  0.70502200  0.85328300  0.73970000  1
  N  1198  1  0.65382800  0.18883400  0.39028600  1
  N  1201  1  0.66976800  0.14614100  0.39367600  1
  N  1205  1  0.70664800  0.20622100  0.35131500  1
  N  1206  1  0.61385500  0.12945200  0.43184300  1
  N  1207  1  0.60959700  0.18797900  0.41360000  1
  N  1208  1  0.71085400  0.15021700  0.36520800  1
  N  1210  1  0.63704200  0.32648500  0.86887900  1
  N  1213  1  0.66990600  0.34120600  0.90504200  1
  N  1217  1  0.67827800  0.28029100  0.85829100  1
  N  1218  1  0.62769100  0.38772300  0.91444600  1
  N  1219  1  0.60083100  0.35446700  0.86590800  1
  N  1220  1  0.70672700  0.31026600  0.90412900  1
  N  1222  1  0.65502500  0.65873800  0.24055700  1
  N  1225  1  0.66880300  0.65579100  0.19754400  1
  N  1229  1  0.70703100  0.69845700  0.25709800  1
  N  1230  1  0.61366000  0.61684700  0.18176800  1
  N  1231  1  0.61157100  0.63487700  0.24047000  1
  N  1232  1  0.70903800  0.68483100  0.20096600  1
  N  1234  1  0.17381800  0.18027400  0.72269600  1
  N  1237  1  0.14254900  0.14329000  0.70870300  1
  N  1241  1  0.13299500  0.19068300  0.76906200  1
  N  1242  1  0.18431700  0.13415100  0.66196000  1
  N  1243  1  0.20953600  0.18346900  0.69451200  1
  N  1244  1  0.10632900  0.14391100  0.73992500  1
  N  1246  1  0.15730500  0.80865100  0.39030500  1
  N  1249  1  0.14143700  0.85135800  0.39362700  1
  N  1253  1  0.10439400  0.79122000  0.35140300  1
  N  1254  1  0.19745600  0.86808700  0.43172100  1
  N  1255  1  0.20158900  0.80952700  0.41358000  1
  N  1256  1  0.10031100  0.84725700  0.36518700  1
  N  1258  1  0.17410300  0.67083600  0.86885700  1
  N  1261  1  0.14121900  0.65611000  0.90501100  1
  N  1265  1  0.13288500  0.71703800  0.85827500  1
  N  1266  1  0.18341100  0.60958800  0.91441500  1
  N  1267  1  0.21031300  0.64285300  0.86588700  1
  N  1268  1  0.10441200  0.68705900  0.90410200  1
  N  1270  1  0.15626500  0.33858200  0.24040200  1
  N  1273  1  0.14259800  0.34141300  0.19736800  1
  N  1277  1  0.10400600  0.29902700  0.25703100  1
  N  1278  1  0.19803200  0.38016400  0.18150300  1
  N  1279  1  0.19984500  0.36235300  0.24027500  1
  N  1280  1  0.10220400  0.31246600  0.20085200  1
  N  1282  1  0.01458500  0.13924200  0.20605600  1
  N  1285  1  0.04806400  0.13421400  0.16775700  1
  N  1289  1  0.98379600  0.18963300  0.20264300  1
  N  1290  1  0.08684100  0.08643900  0.17302300  1
  N  1291  1  0.04022200  0.10952100  0.22029600  1
  N  1292  1  0.04051100  0.17085700  0.16064300  1
  N  1294  1  0.01796900  0.85807800  0.89516500  1
  N  1297  1  0.05158200  0.86232100  0.93350500  1
  N  1301  1  0.98677000  0.80778200  0.89755400  1
  N  1302  1  0.09034200  0.91027100  0.92900300  1
  N  1303  1  0.04377500  0.88777200  0.88136900  1
  N  1304  1  0.04325500  0.82548500  0.94007400  1
  N  1306  1  0.01603800  0.84294800  0.19154400  1
  N  1309  1  0.05095500  0.88083400  0.18703500  1
  N  1313  1  0.98469500  0.84626200  0.24179600  1
  N  1314  1  0.08975000  0.87557800  0.13925000  1
  N  1315  1  0.04155500  0.82869500  0.16179600  1
  N  1316  1  0.04279200  0.88785800  0.22373900  1
  N  1318  1  0.01658900  0.15382700  0.91015300  1
  N  1321  1  0.04804100  0.11489200  0.91510100  1
  N  1325  1  0.98572100  0.15126400  0.85977900  1
  N  1326  1  0.08699700  0.11939400  0.96297200  1
  N  1327  1  0.04283800  0.16759900  0.93972400  1
  N  1328  1  0.04006100  0.10807400  0.87836800  1
  N  1330  1  0.79617300  0.85791100  0.20602400  1
  N  1333  1  0.76317900  0.86295900  0.16757000  1
  N  1337  1  0.82709900  0.80755200  0.20271300  1
  N  1338  1  0.72420900  0.91069000  0.17271800  1
  N  1339  1  0.77018200  0.88755200  0.22018000  1
  N  1340  1  0.77081600  0.82632500  0.16049300  1
  N  1342  1  0.79355900  0.13944700  0.89524800  1
  N  1345  1  0.76020500  0.13513300  0.93366500  1
  N  1349  1  0.82479200  0.18973400  0.89765500  1
  N  1350  1  0.72138800  0.08720400  0.92918000  1
  N  1351  1  0.76760500  0.10980000  0.88145700  1
  N  1352  1  0.76853800  0.17195800  0.94026000  1
  N  1354  1  0.79477500  0.15443000  0.19157500  1
  N  1357  1  0.76019000  0.11642400  0.18711900  1
  N  1361  1  0.82623800  0.15127000  0.24180600  1
  N  1362  1  0.72122900  0.12152600  0.13936700  1
  N  1363  1  0.76902400  0.16858100  0.16185900  1
  N  1364  1  0.76843700  0.10947900  0.22382700  1
  N  1366  1  0.79459000  0.84349600  0.91030700  1
  N  1369  1  0.76257900  0.88227300  0.91511300  1
  N  1373  1  0.82543700  0.84605000  0.85992700  1
  N  1374  1  0.72366700  0.87772900  0.96299200  1
  N  1375  1  0.76838400  0.82969000  0.93987400  1
  N  1376  1  0.77041200  0.88898200  0.87835000  1
  N  1378  1  0.51562500  0.64068500  0.70741300  1
  N  1381  1  0.54890900  0.63590300  0.66900900  1
  N  1385  1  0.48424700  0.69094700  0.70422600  1
  N  1386  1  0.58796700  0.58817400  0.67396400  1
  N  1387  1  0.54152100  0.61093700  0.72145500  1
  N  1388  1  0.54064600  0.67255800  0.66190700  1
  N  1390  1  0.51730100  0.35691500  0.39413000  1
  N  1393  1  0.55068600  0.36127000  0.43254500  1
  N  1397  1  0.48644900  0.30651800  0.39655000  1
  N  1398  1  0.58907800  0.40933300  0.42813000  1
  N  1399  1  0.54248800  0.38691100  0.38043200  1
  N  1400  1  0.54229800  0.32444000  0.43927700  1
  N  1402  1  0.51622200  0.34162900  0.69273400  1
  N  1405  1  0.55059300  0.37971200  0.68822300  1
  N  1409  1  0.48455600  0.34491300  0.74292600  1
  N  1410  1  0.58965900  0.37462100  0.64050400  1
  N  1411  1  0.54165300  0.32751300  0.66285900  1
  N  1412  1  0.54188000  0.38690500  0.72487500  1
  N  1414  1  0.51483500  0.65510200  0.40910500  1
  N  1417  1  0.54732600  0.61649200  0.41412200  1
  N  1421  1  0.48474900  0.65225600  0.35854600  1
  N  1422  1  0.58551900  0.62125600  0.46218300  1
  N  1423  1  0.54019600  0.66901400  0.43894800  1
  N  1424  1  0.53985000  0.60957000  0.37734700  1
  N  1426  1  0.29582200  0.35680800  0.70740800  1
  N  1429  1  0.26200200  0.36152400  0.66917200  1
  N  1433  1  0.32708400  0.30652000  0.70416100  1
  N  1434  1  0.22314000  0.40930100  0.67420400  1
  N  1435  1  0.27026500  0.38664200  0.72151400  1
  N  1436  1  0.27017800  0.32485100  0.66207000  1
  N  1438  1  0.29442600  0.64033600  0.39420800  1
  N  1441  1  0.26047900  0.63606100  0.43243900  1
  N  1445  1  0.32520800  0.69074600  0.39668400  1
  N  1446  1  0.22220300  0.58797800  0.42794400  1
  N  1447  1  0.26930800  0.61035300  0.38043500  1
  N  1448  1  0.26862000  0.67291900  0.43908600  1
  N  1450  1  0.29474100  0.65569000  0.69286500  1
  N  1453  1  0.26067500  0.61750800  0.68830600  1
  N  1457  1  0.32645800  0.65243100  0.74304500  1
  N  1458  1  0.22151300  0.62256400  0.64061200  1
  N  1459  1  0.26912800  0.66977400  0.66303500  1
  N  1460  1  0.26943500  0.61030900  0.72494700  1
  N  1462  1  0.29621300  0.34219900  0.40916800  1
  N  1465  1  0.26336400  0.38070600  0.41409500  1
  N  1469  1  0.32630700  0.34504700  0.35861000  1
  N  1470  1  0.22520100  0.37591100  0.46216400  1
  N  1471  1  0.27092000  0.32826800  0.43902400  1
  N  1472  1  0.27080900  0.38758300  0.37730700  1
  N  1474  1  0.92837500  0.17348300  0.30722100  1
  N  1477  1  0.88711000  0.16397700  0.34150800  1
  N  1481  1  0.87173300  0.18559600  0.26842600  1
  N  1482  1  0.94439200  0.15026000  0.37969900  1
  N  1483  1  0.97682800  0.15976600  0.32617900  1
  N  1484  1  0.83794800  0.16321500  0.32202000  1
  N  1486  1  0.92719900  0.82494700  0.79407900  1
  N  1489  1  0.88717300  0.83622800  0.75973000  1
  N  1493  1  0.86923200  0.81246600  0.83193900  1
  N  1494  1  0.94614500  0.84982700  0.72241700  1
  N  1495  1  0.97690200  0.83799000  0.77582700  1
  N  1496  1  0.83746700  0.83704500  0.77887000  1
  N  1498  1  0.92682300  0.74170100  0.22456200  1
  N  1501  1  0.88526500  0.70783400  0.21406600  1
  N  1505  1  0.87054000  0.78045200  0.23738000  1
  N  1506  1  0.94233800  0.66963200  0.19998700  1
  N  1507  1  0.97532400  0.72275500  0.21083000  1
  N  1508  1  0.83622500  0.72751100  0.21364800  1
  N  1510  1  0.92869500  0.25491500  0.87618900  1
  N  1513  1  0.88882300  0.28959100  0.88663900  1
  N  1517  1  0.87052400  0.21698800  0.86423800  1
  N  1518  1  0.94787600  0.32693200  0.89996500  1
  N  1519  1  0.97832700  0.27320600  0.88922200  1
  N  1520  1  0.83904000  0.27058000  0.88766900  1
  N  1522  1  0.88279300  0.82394700  0.30722400  1
  N  1525  1  0.92406900  0.83347000  0.34150300  1
  N  1529  1  0.93942800  0.81184400  0.26842300  1
  N  1530  1  0.86679200  0.84715500  0.37970900  1
  N  1531  1  0.83433700  0.83764200  0.32619700  1
  N  1532  1  0.97322200  0.83424700  0.32200500  1
  N  1534  1  0.88395600  0.17233800  0.79397900  1
  N  1537  1  0.92405000  0.16089700  0.75971500  1
  N  1541  1  0.94183600  0.18491800  0.83185600  1
  N  1542  1  0.86515500  0.14717800  0.72240100  1
  N  1543  1  0.83426900  0.15927200  0.77573200  1
  N  1544  1  0.97371900  0.16015000  0.77889800  1
  N  1546  1  0.88438700  0.25565800  0.22443700  1
  N  1549  1  0.92600600  0.28953300  0.21405900  1
  N  1553  1  0.94060100  0.21687700  0.23728200  1
  N  1554  1  0.86901500  0.32777200  0.19996100  1
  N  1555  1  0.83597400  0.27462700  0.21062400  1
  N  1556  1  0.97501500  0.26982900  0.21363700  1
  N  1558  1  0.88246500  0.74249200  0.87622800  1
  N  1561  1  0.92230800  0.70778100  0.88659300  1
  N  1565  1  0.94065900  0.78044400  0.86440200  1
  N  1566  1  0.86322000  0.67042000  0.89981000  1
  N  1567  1  0.83282000  0.72418700  0.88921400  1
  N  1568  1  0.97210100  0.72678000  0.88768900  1
  N  1570  1  0.42880400  0.67325600  0.81001600  1
  N  1573  1  0.38742000  0.66427100  0.84436800  1
  N  1577  1  0.37223000  0.68498100  0.77104000  1
  N  1578  1  0.44444600  0.65061400  0.88270100  1
  N  1579  1  0.47680000  0.65911900  0.82901300  1
  N  1580  1  0.33865800  0.66282200  0.82462600  1
  N  1582  1  0.42727400  0.32515000  0.29131900  1
  N  1585  1  0.38728000  0.33612100  0.25686400  1
  N  1589  1  0.36925400  0.31288800  0.32922000  1
  N  1590  1  0.44624600  0.34970700  0.21956000  1
  N  1591  1  0.47664600  0.33867200  0.27320300  1
  N  1592  1  0.33773500  0.33736500  0.27613700  1
  N  1594  1  0.42807700  0.23905800  0.72490800  1
  N  1597  1  0.38655000  0.20487500  0.71550700  1
  N  1601  1  0.37163300  0.27801100  0.73696300  1
  N  1602  1  0.44345400  0.16658100  0.70153800  1
  N  1603  1  0.47608900  0.22008500  0.71072800  1
  N  1604  1  0.33781400  0.22468600  0.71435100  1
  N  1606  1  0.42867200  0.75783600  0.37627300  1
  N  1609  1  0.38860700  0.79255400  0.38622000  1
  N  1613  1  0.37071000  0.71960700  0.36490200  1
  N  1614  1  0.44739600  0.83011200  0.39933700  1
  N  1615  1  0.47781500  0.77617100  0.38973100  1
  N  1616  1  0.33916300  0.77326500  0.38787700  1
  N  1618  1  0.38238900  0.32405200  0.80999800  1
  N  1621  1  0.42376000  0.33303500  0.84435700  1
  N  1625  1  0.43897600  0.31232400  0.77103000  1
  N  1626  1  0.36672700  0.34671200  0.88267700  1
  N  1627  1  0.33439100  0.33820000  0.82898400  1
  N  1628  1  0.47253300  0.33446900  0.82461900  1
  N  1630  1  0.38398900  0.67211100  0.29120500  1
  N  1633  1  0.42403000  0.66101500  0.25681400  1
  N  1637  1  0.44194800  0.68449500  0.32910100  1
  N  1638  1  0.36511700  0.64729000  0.21952800  1
  N  1639  1  0.33462600  0.65854400  0.27311500  1
  N  1640  1  0.47354800  0.65985200  0.27611400  1
  N  1642  1  0.38304200  0.75832200  0.72492200  1
  N  1645  1  0.42455600  0.79250500  0.71551000  1
  N  1649  1  0.43948900  0.71937100  0.73696500  1
  N  1650  1  0.36763600  0.83080000  0.70156700  1
  N  1651  1  0.33502600  0.77729100  0.71074800  1
  N  1652  1  0.47328700  0.77269100  0.71431300  1
  N  1654  1  0.38247900  0.23956500  0.37628400  1
  N  1657  1  0.42259200  0.20486700  0.38622900  1
  N  1661  1  0.44038300  0.27782800  0.36492600  1
  N  1662  1  0.36385000  0.16727800  0.39934200  1
  N  1663  1  0.33333333  0.22120400  0.38974300  1
  N  1664  1  0.47200400  0.22418400  0.38790000  1
  O  8  1  0.10491800  0.06300400  0.22823300  1
  O  15  1  0.03632500  0.15561400  0.35386400  1
  O  36  1  0.10580700  0.93695400  0.87119700  1
  O  43  1  0.03626000  0.83991600  0.74844200  1
  O  64  1  0.10568200  0.82048000  0.11503200  1
  O  71  1  0.03522900  0.69504700  0.20748500  1
  O  92  1  0.10555400  0.17751700  0.98870700  1
  O  99  1  0.03720600  0.30068400  0.89195200  1
  O  120  1  0.70557700  0.93424900  0.22830900  1
  O  127  1  0.77495400  0.84181200  0.35394000  1
  O  148  1  0.70526300  0.06077200  0.87144800  1
  O  155  1  0.77493200  0.15729500  0.74832500  1
  O  176  1  0.70486900  0.17691000  0.11500200  1
  O  183  1  0.77617200  0.30235300  0.20725000  1
  O  204  1  0.70567000  0.81978000  0.98881000  1
  O  211  1  0.77394400  0.69671100  0.89193600  1
  O  232  1  0.69911400  0.93570000  0.86804100  1
  O  239  1  0.77898000  0.83868300  0.74844200  1
  O  260  1  0.69711300  0.06254000  0.23584800  1
  O  267  1  0.78064200  0.16242100  0.35234700  1
  O  288  1  0.69653900  0.18362300  0.98646900  1
  O  295  1  0.78084100  0.30125700  0.88876400  1
  O  316  1  0.69954700  0.81598000  0.11344200  1
  O  323  1  0.77868600  0.69746100  0.21237300  1
  O  344  1  0.11154100  0.06160000  0.86836600  1
  O  351  1  0.03238000  0.15852000  0.74856900  1
  O  372  1  0.11423900  0.93479300  0.23573200  1
  O  379  1  0.03050600  0.83508200  0.35233600  1
  O  400  1  0.11499900  0.81366600  0.98644800  1
  O  407  1  0.03027300  0.69608600  0.88877200  1
  O  428  1  0.11187300  0.18120600  0.11357400  1
  O  435  1  0.03250800  0.29988300  0.21226800  1
  O  456  1  0.60557600  0.56401700  0.72896700  1
  O  463  1  0.53486400  0.65253500  0.85707100  1
  O  484  1  0.60380200  0.43622700  0.37144700  1
  O  491  1  0.53543500  0.34330000  0.24559600  1
  O  512  1  0.60535100  0.32000400  0.61587200  1
  O  519  1  0.53446800  0.19204600  0.70456500  1
  O  540  1  0.60366500  0.67689600  0.48654500  1
  O  547  1  0.53612500  0.80386200  0.39532500  1
  O  568  1  0.20611700  0.43338300  0.72886400  1
  O  575  1  0.27624400  0.34477800  0.85700100  1
  O  596  1  0.20769800  0.56128300  0.37166200  1
  O  603  1  0.27577900  0.65390500  0.24555100  1
  O  624  1  0.20553200  0.67737100  0.61593700  1
  O  631  1  0.27670200  0.80534500  0.70454900  1
  O  652  1  0.20756500  0.32038600  0.48664400  1
  O  659  1  0.27503900  0.19350500  0.39529400  1
  O  680  1  0.19913900  0.43425500  0.36771000  1
  O  687  1  0.27992700  0.34089300  0.24551600  1
  O  708  1  0.19829800  0.56336400  0.73617700  1
  O  715  1  0.28206300  0.65943100  0.85529400  1
  O  736  1  0.19668900  0.68410800  0.48548600  1
  O  743  1  0.28156800  0.80403400  0.39089900  1
  O  764  1  0.19823500  0.31404600  0.61542000  1
  O  771  1  0.28136000  0.19404600  0.71069900  1
  O  792  1  0.61167700  0.56306400  0.36797100  1
  O  799  1  0.53151500  0.65632100  0.24558000  1
  O  820  1  0.61314700  0.43381300  0.73614500  1
  O  827  1  0.52905900  0.33789900  0.85531200  1
  O  848  1  0.61398000  0.31335800  0.48569000  1
  O  855  1  0.52968300  0.19346200  0.39090200  1
  O  876  1  0.61238500  0.68330100  0.61519700  1
  O  883  1  0.52980200  0.80330600  0.71062600  1
