# generated using pymatgen
data_H36C53N8
_symmetry_space_group_name_H-M   'P 1'
_cell_length_a   30.90650000
_cell_length_b   30.90650000
_cell_length_c   40.13180000
_cell_angle_alpha   90.00000000
_cell_angle_beta   90.00000000
_cell_angle_gamma   120.00000000
_symmetry_Int_Tables_number   1
_chemical_formula_structural   H36C53N8
_chemical_formula_sum   'H324 C477 N72'
_cell_volume   33198.53531153
_cell_formula_units_Z   9
loop_
 _symmetry_equiv_pos_site_id
 _symmetry_equiv_pos_as_xyz
  1  'x, y, z'
loop_
 _atom_site_type_symbol
 _atom_site_label
 _atom_site_symmetry_multiplicity
 _atom_site_fract_x
 _atom_site_fract_y
 _atom_site_fract_z
 _atom_site_occupancy
  H  25  1  0.57477500  0.39732100  0.92836900  1
  H  26  1  0.63065200  0.43029900  0.97554500  1
  H  27  1  0.68381900  0.47910600  0.02818800  1
  H  28  1  0.72520500  0.53551500  0.07420600  1
  H  29  1  0.63984500  0.60561900  0.05648700  1
  H  30  1  0.51862100  0.49390300  0.95002400  1
  H  31  1  0.65006400  0.59031300  0.94998500  1
  H  32  1  0.59394700  0.68693000  0.92832200  1
  H  33  1  0.53809700  0.65399600  0.97551800  1
  H  34  1  0.52895500  0.47873400  0.05653000  1
  H  35  1  0.48485800  0.60513900  0.02815300  1
  H  36  1  0.44351300  0.54877100  0.07419100  1
  H  39  1  0.68815700  0.62715800  0.10572500  1
  H  40  1  0.70184100  0.58252800  0.12106900  1
  H  42  1  0.53897000  0.43790500  0.88298900  1
  H  43  1  0.49369700  0.44943500  0.89972400  1
  H  45  1  0.62979300  0.64636000  0.88292700  1
  H  46  1  0.67505400  0.63483500  0.89969100  1
  H  48  1  0.46688800  0.50177600  0.12108200  1
  H  49  1  0.48057300  0.45714800  0.10573800  1
  H  74  1  0.94915500  0.55175200  0.26166400  1
  H  75  1  0.92626200  0.49587300  0.30885300  1
  H  76  1  0.92188400  0.44256300  0.36142200  1
  H  77  1  0.93691400  0.40115900  0.40742300  1
  H  78  1  0.09239100  0.48665900  0.38977400  1
  H  79  1  0.10188700  0.60791300  0.28333000  1
  H  80  1  0.06685900  0.47644500  0.28333700  1
  H  81  1  0.21958800  0.53243600  0.26172800  1
  H  82  1  0.24251300  0.58830400  0.30893000  1
  H  83  1  0.07639800  0.59765700  0.38980400  1
  H  84  1  0.24689400  0.64165900  0.36149200  1
  H  85  1  0.23186700  0.68305500  0.40750500  1
  H  88  1  0.06561100  0.43818700  0.43893900  1
  H  89  1  0.00732800  0.42455100  0.45431400  1
  H  91  1  0.02559200  0.58760000  0.21629100  1
  H  92  1  0.08237800  0.63287200  0.23304800  1
  H  94  1  0.14313200  0.49663200  0.21633000  1
  H  95  1  0.08636100  0.45135900  0.23310300  1
  H  97  1  0.16146500  0.65971700  0.45437100  1
  H  98  1  0.10317200  0.64605100  0.43900200  1
  H  123  1  0.72942600  0.17738200  0.59512700  1
  H  124  1  0.69642900  0.20029600  0.64229400  1
  H  125  1  0.64737300  0.20465900  0.69483100  1
  H  126  1  0.59096300  0.18962300  0.74084900  1
  H  127  1  0.52091100  0.03415200  0.72314500  1
  H  128  1  0.63264500  0.02463400  0.61672100  1
  H  129  1  0.53606900  0.05967000  0.61674600  1
  H  130  1  0.43940600  0.90692800  0.59509700  1
  H  131  1  0.47244400  0.88402500  0.64224900  1
  H  132  1  0.64788800  0.05015900  0.72312000  1
  H  133  1  0.52138800  0.87965800  0.69482600  1
  H  134  1  0.57781400  0.89469300  0.74083400  1
  H  137  1  0.49927600  0.06092200  0.77234600  1
  H  138  1  0.54390600  0.11921100  0.78772000  1
  H  140  1  0.68875900  0.10087800  0.54969900  1
  H  141  1  0.67730400  0.04413700  0.56649900  1
  H  143  1  0.48001600  0.98343500  0.54970700  1
  H  144  1  0.49147200  0.04017600  0.56650600  1
  H  146  1  0.62487000  0.96511200  0.78769100  1
  H  147  1  0.66951600  0.02339500  0.77231600  1
  H  154  1  0.50151200  0.20606400  0.74203800  1
  H  159  1  0.46782700  0.11772000  0.82837700  1
  H  164  1  0.50785500  0.35392400  0.78093100  1
  H  165  1  0.51123500  0.29157800  0.74719300  1
  H  166  1  0.49164400  0.38041600  0.83633900  1
  H  167  1  0.46701700  0.28800500  0.91953100  1
  H  169  1  0.45546600  0.36025500  0.92342600  1
  H  171  1  0.46807100  0.11400700  0.73935200  1
  H  178  1  0.83106600  0.62497100  0.07541000  1
  H  183  1  0.77645700  0.65867200  0.16176800  1
  H  188  1  0.97261500  0.61864800  0.11426200  1
  H  189  1  0.90686300  0.61525200  0.08054300  1
  H  190  1  0.01535700  0.63488300  0.16965700  1
  H  191  1  0.94761900  0.65952000  0.25287000  1
  H  193  1  0.03142400  0.67108400  0.25674000  1
  H  195  1  0.77248600  0.65850900  0.07276600  1
  H  202  1  0.92043600  0.29523500  0.40868200  1
  H  207  1  0.00885400  0.35004300  0.49498200  1
  H  212  1  0.77265100  0.15372700  0.44766800  1
  H  213  1  0.83494400  0.21943100  0.41388900  1
  H  214  1  0.74623800  0.11108400  0.50309800  1
  H  215  1  0.83868900  0.17903200  0.58624900  1
  H  217  1  0.76645600  0.09525100  0.59021800  1
  H  219  1  0.01244300  0.35389600  0.40593600  1
  H  226  1  0.66729500  0.87825300  0.74203000  1
  H  231  1  0.70088600  0.96655200  0.82838600  1
  H  236  1  0.66096100  0.73039300  0.78091400  1
  H  237  1  0.65758500  0.79274500  0.74718100  1
  H  238  1  0.67714300  0.70388500  0.83632300  1
  H  239  1  0.70166100  0.79623600  0.91953200  1
  H  241  1  0.71320300  0.72398500  0.92343600  1
  H  243  1  0.70075100  0.97031600  0.73936200  1
  H  250  1  0.33763900  0.45931400  0.07542000  1
  H  255  1  0.39230500  0.42564700  0.16176300  1
  H  260  1  0.19607600  0.46558500  0.11430200  1
  H  261  1  0.26182400  0.46900000  0.08057000  1
  H  262  1  0.15336000  0.44934900  0.16970700  1
  H  263  1  0.22116000  0.42475800  0.25290500  1
  H  265  1  0.13736100  0.41319700  0.25680500  1
  H  267  1  0.39626100  0.42585700  0.07274900  1
  H  274  1  0.24830900  0.78900300  0.40872100  1
  H  279  1  0.15991500  0.73424100  0.49503400  1
  H  284  1  0.39610100  0.93054100  0.44767500  1
  H  285  1  0.33380200  0.86481600  0.41391200  1
  H  286  1  0.42252700  0.97320700  0.50309800  1
  H  287  1  0.33009200  0.90530000  0.58626100  1
  H  289  1  0.40231600  0.98909100  0.59020800  1
  H  291  1  0.15628000  0.73034500  0.40600000  1
  H  316  1  0.57477500  0.39732100  0.60443600  1
  H  317  1  0.63065200  0.43029900  0.65161200  1
  H  318  1  0.68381900  0.47910600  0.70425500  1
  H  319  1  0.72520500  0.53551500  0.75027300  1
  H  320  1  0.63984500  0.60561900  0.73255400  1
  H  321  1  0.51862100  0.49390300  0.62609100  1
  H  322  1  0.65006400  0.59031300  0.62605200  1
  H  323  1  0.59394700  0.68693000  0.60438900  1
  H  324  1  0.53809700  0.65399600  0.65158500  1
  H  325  1  0.52895500  0.47873400  0.73259700  1
  H  326  1  0.48485800  0.60513900  0.70422000  1
  H  327  1  0.44351300  0.54877100  0.75025800  1
  H  330  1  0.68815700  0.62715800  0.78179200  1
  H  331  1  0.70184100  0.58252800  0.79713600  1
  H  333  1  0.53897000  0.43790500  0.55905600  1
  H  334  1  0.49369700  0.44943500  0.57579100  1
  H  336  1  0.62979300  0.64636000  0.55899400  1
  H  337  1  0.67505400  0.63483500  0.57575800  1
  H  339  1  0.46688800  0.50177600  0.79714900  1
  H  340  1  0.48057300  0.45714800  0.78180500  1
  H  365  1  0.94915500  0.55175200  0.93773140  1
  H  366  1  0.92626200  0.49587300  0.98492040  1
  H  367  1  0.92188400  0.44256300  0.03748900  1
  H  368  1  0.93691400  0.40115900  0.08349000  1
  H  369  1  0.09239100  0.48665900  0.06584100  1
  H  370  1  0.10188700  0.60791300  0.95939740  1
  H  371  1  0.06685900  0.47644500  0.95940440  1
  H  372  1  0.21958800  0.53243600  0.93779540  1
  H  373  1  0.24251300  0.58830400  0.98499740  1
  H  374  1  0.07639800  0.59765700  0.06587100  1
  H  375  1  0.24689400  0.64165900  0.03755900  1
  H  376  1  0.23186700  0.68305500  0.08357200  1
  H  379  1  0.06561100  0.43818700  0.11500600  1
  H  380  1  0.00732800  0.42455100  0.13038100  1
  H  382  1  0.02559200  0.58760000  0.89235800  1
  H  383  1  0.08237800  0.63287200  0.90911540  1
  H  385  1  0.14313200  0.49663200  0.89239700  1
  H  386  1  0.08636100  0.45135900  0.90917040  1
  H  388  1  0.16146500  0.65971700  0.13043800  1
  H  389  1  0.10317200  0.64605100  0.11506900  1
  H  414  1  0.72942600  0.17738200  0.27119400  1
  H  415  1  0.69642900  0.20029600  0.31836100  1
  H  416  1  0.64737300  0.20465900  0.37089800  1
  H  417  1  0.59096300  0.18962300  0.41691600  1
  H  418  1  0.52091100  0.03415200  0.39921200  1
  H  419  1  0.63264500  0.02463400  0.29278800  1
  H  420  1  0.53606900  0.05967000  0.29281300  1
  H  421  1  0.43940600  0.90692800  0.27116400  1
  H  422  1  0.47244400  0.88402500  0.31831600  1
  H  423  1  0.64788800  0.05015900  0.39918700  1
  H  424  1  0.52138800  0.87965800  0.37089300  1
  H  425  1  0.57781400  0.89469300  0.41690100  1
  H  428  1  0.49927600  0.06092200  0.44841300  1
  H  429  1  0.54390600  0.11921100  0.46378700  1
  H  431  1  0.68875900  0.10087800  0.22576600  1
  H  432  1  0.67730400  0.04413700  0.24256600  1
  H  434  1  0.48001600  0.98343500  0.22577400  1
  H  435  1  0.49147200  0.04017600  0.24257300  1
  H  437  1  0.62487000  0.96511200  0.46375800  1
  H  438  1  0.66951600  0.02339500  0.44838300  1
  H  445  1  0.50151200  0.20606400  0.41810500  1
  H  450  1  0.46782700  0.11772000  0.50444400  1
  H  455  1  0.50785500  0.35392400  0.45699800  1
  H  456  1  0.51123500  0.29157800  0.42326000  1
  H  457  1  0.49164400  0.38041600  0.51240600  1
  H  458  1  0.46701700  0.28800500  0.59559800  1
  H  460  1  0.45546600  0.36025500  0.59949300  1
  H  462  1  0.46807100  0.11400700  0.41541900  1
  H  469  1  0.83106600  0.62497100  0.75147700  1
  H  474  1  0.77645700  0.65867200  0.83783500  1
  H  479  1  0.97261500  0.61864800  0.79032900  1
  H  480  1  0.90686300  0.61525200  0.75661000  1
  H  481  1  0.01535700  0.63488300  0.84572400  1
  H  482  1  0.94761900  0.65952000  0.92893740  1
  H  484  1  0.03142400  0.67108400  0.93280740  1
  H  486  1  0.77248600  0.65850900  0.74883300  1
  H  493  1  0.92043600  0.29523500  0.08474900  1
  H  498  1  0.00885400  0.35004300  0.17104900  1
  H  503  1  0.77265100  0.15372700  0.12373500  1
  H  504  1  0.83494400  0.21943100  0.08995600  1
  H  505  1  0.74623800  0.11108400  0.17916500  1
  H  506  1  0.83868900  0.17903200  0.26231600  1
  H  508  1  0.76645600  0.09525100  0.26628500  1
  H  510  1  0.01244300  0.35389600  0.08200300  1
  H  517  1  0.66729500  0.87825300  0.41809700  1
  H  522  1  0.70088600  0.96655200  0.50445300  1
  H  527  1  0.66096100  0.73039300  0.45698100  1
  H  528  1  0.65758500  0.79274500  0.42324800  1
  H  529  1  0.67714300  0.70388500  0.51239000  1
  H  530  1  0.70166100  0.79623600  0.59559900  1
  H  532  1  0.71320300  0.72398500  0.59950300  1
  H  534  1  0.70075100  0.97031600  0.41542900  1
  H  541  1  0.33763900  0.45931400  0.75148700  1
  H  546  1  0.39230500  0.42564700  0.83783000  1
  H  551  1  0.19607600  0.46558500  0.79036900  1
  H  552  1  0.26182400  0.46900000  0.75663700  1
  H  553  1  0.15336000  0.44934900  0.84577400  1
  H  554  1  0.22116000  0.42475800  0.92897240  1
  H  556  1  0.13736100  0.41319700  0.93287240  1
  H  558  1  0.39626100  0.42585700  0.74881600  1
  H  565  1  0.24830900  0.78900300  0.08478800  1
  H  570  1  0.15991500  0.73424100  0.17110100  1
  H  575  1  0.39610100  0.93054100  0.12374200  1
  H  576  1  0.33380200  0.86481600  0.08997900  1
  H  577  1  0.42252700  0.97320700  0.17916500  1
  H  578  1  0.33009200  0.90530000  0.26232800  1
  H  580  1  0.40231600  0.98909100  0.26627500  1
  H  582  1  0.15628000  0.73034500  0.08206700  1
  H  607  1  0.57477500  0.39732100  0.28050400  1
  H  608  1  0.63065200  0.43029900  0.32768000  1
  H  609  1  0.68381900  0.47910600  0.38032300  1
  H  610  1  0.72520500  0.53551500  0.42634100  1
  H  611  1  0.63984500  0.60561900  0.40862200  1
  H  612  1  0.51862100  0.49390300  0.30215900  1
  H  613  1  0.65006400  0.59031300  0.30212000  1
  H  614  1  0.59394700  0.68693000  0.28045700  1
  H  615  1  0.53809700  0.65399600  0.32765300  1
  H  616  1  0.52895500  0.47873400  0.40866500  1
  H  617  1  0.48485800  0.60513900  0.38028800  1
  H  618  1  0.44351300  0.54877100  0.42632600  1
  H  621  1  0.68815700  0.62715800  0.45786000  1
  H  622  1  0.70184100  0.58252800  0.47320400  1
  H  624  1  0.53897000  0.43790500  0.23512400  1
  H  625  1  0.49369700  0.44943500  0.25185900  1
  H  627  1  0.62979300  0.64636000  0.23506200  1
  H  628  1  0.67505400  0.63483500  0.25182600  1
  H  630  1  0.46688800  0.50177600  0.47321700  1
  H  631  1  0.48057300  0.45714800  0.45787300  1
  H  656  1  0.94915500  0.55175200  0.61379900  1
  H  657  1  0.92626200  0.49587300  0.66098800  1
  H  658  1  0.92188400  0.44256300  0.71355700  1
  H  659  1  0.93691400  0.40115900  0.75955800  1
  H  660  1  0.09239100  0.48665900  0.74190900  1
  H  661  1  0.10188700  0.60791300  0.63546500  1
  H  662  1  0.06685900  0.47644500  0.63547200  1
  H  663  1  0.21958800  0.53243600  0.61386300  1
  H  664  1  0.24251300  0.58830400  0.66106500  1
  H  665  1  0.07639800  0.59765700  0.74193900  1
  H  666  1  0.24689400  0.64165900  0.71362700  1
  H  667  1  0.23186700  0.68305500  0.75964000  1
  H  670  1  0.06561100  0.43818700  0.79107400  1
  H  671  1  0.00732800  0.42455100  0.80644900  1
  H  673  1  0.02559200  0.58760000  0.56842600  1
  H  674  1  0.08237800  0.63287200  0.58518300  1
  H  676  1  0.14313200  0.49663200  0.56846500  1
  H  677  1  0.08636100  0.45135900  0.58523800  1
  H  679  1  0.16146500  0.65971700  0.80650600  1
  H  680  1  0.10317200  0.64605100  0.79113700  1
  H  705  1  0.72942600  0.17738200  0.94726170  1
  H  706  1  0.69642900  0.20029600  0.99442872  1
  H  707  1  0.64737300  0.20465900  0.04696600  1
  H  708  1  0.59096300  0.18962300  0.09298400  1
  H  709  1  0.52091100  0.03415200  0.07528000  1
  H  710  1  0.63264500  0.02463400  0.96885570  1
  H  711  1  0.53606900  0.05967000  0.96888070  1
  H  712  1  0.43940600  0.90692800  0.94723170  1
  H  713  1  0.47244400  0.88402500  0.99438372  1
  H  714  1  0.64788800  0.05015900  0.07525500  1
  H  715  1  0.52138800  0.87965800  0.04696100  1
  H  716  1  0.57781400  0.89469300  0.09296900  1
  H  719  1  0.49927600  0.06092200  0.12448100  1
  H  720  1  0.54390600  0.11921100  0.13985500  1
  H  722  1  0.68875900  0.10087800  0.90183370  1
  H  723  1  0.67730400  0.04413700  0.91863370  1
  H  725  1  0.48001600  0.98343500  0.90184170  1
  H  726  1  0.49147200  0.04017600  0.91864070  1
  H  728  1  0.62487000  0.96511200  0.13982600  1
  H  729  1  0.66951600  0.02339500  0.12445100  1
  H  736  1  0.50151200  0.20606400  0.09417300  1
  H  741  1  0.46782700  0.11772000  0.18051200  1
  H  746  1  0.50785500  0.35392400  0.13306600  1
  H  747  1  0.51123500  0.29157800  0.09932800  1
  H  748  1  0.49164400  0.38041600  0.18847400  1
  H  749  1  0.46701700  0.28800500  0.27166600  1
  H  751  1  0.45546600  0.36025500  0.27556100  1
  H  753  1  0.46807100  0.11400700  0.09148700  1
  H  760  1  0.83106600  0.62497100  0.42754500  1
  H  765  1  0.77645700  0.65867200  0.51390300  1
  H  770  1  0.97261500  0.61864800  0.46639700  1
  H  771  1  0.90686300  0.61525200  0.43267800  1
  H  772  1  0.01535700  0.63488300  0.52179200  1
  H  773  1  0.94761900  0.65952000  0.60500500  1
  H  775  1  0.03142400  0.67108400  0.60887500  1
  H  777  1  0.77248600  0.65850900  0.42490100  1
  H  784  1  0.92043600  0.29523500  0.76081700  1
  H  789  1  0.00885400  0.35004300  0.84711700  1
  H  794  1  0.77265100  0.15372700  0.79980300  1
  H  795  1  0.83494400  0.21943100  0.76602400  1
  H  796  1  0.74623800  0.11108400  0.85523300  1
  H  797  1  0.83868900  0.17903200  0.93838370  1
  H  799  1  0.76645600  0.09525100  0.94235270  1
  H  801  1  0.01244300  0.35389600  0.75807100  1
  H  808  1  0.66729500  0.87825300  0.09416500  1
  H  813  1  0.70088600  0.96655200  0.18052100  1
  H  818  1  0.66096100  0.73039300  0.13304900  1
  H  819  1  0.65758500  0.79274500  0.09931600  1
  H  820  1  0.67714300  0.70388500  0.18845800  1
  H  821  1  0.70166100  0.79623600  0.27166700  1
  H  823  1  0.71320300  0.72398500  0.27557100  1
  H  825  1  0.70075100  0.97031600  0.09149700  1
  H  832  1  0.33763900  0.45931400  0.42755500  1
  H  837  1  0.39230500  0.42564700  0.51389800  1
  H  842  1  0.19607600  0.46558500  0.46643700  1
  H  843  1  0.26182400  0.46900000  0.43270500  1
  H  844  1  0.15336000  0.44934900  0.52184200  1
  H  845  1  0.22116000  0.42475800  0.60504000  1
  H  847  1  0.13736100  0.41319700  0.60894000  1
  H  849  1  0.39626100  0.42585700  0.42488400  1
  H  856  1  0.24830900  0.78900300  0.76085600  1
  H  861  1  0.15991500  0.73424100  0.84716900  1
  H  866  1  0.39610100  0.93054100  0.79981000  1
  H  867  1  0.33380200  0.86481600  0.76604700  1
  H  868  1  0.42252700  0.97320700  0.85523300  1
  H  869  1  0.33009200  0.90530000  0.93839570  1
  H  871  1  0.40231600  0.98909100  0.94234270  1
  H  873  1  0.15628000  0.73034500  0.75813500  1
  C  1  1  0.54225500  0.53726000  0.02374000  1
  C  2  1  0.53063600  0.57440800  0.01582900  1
  C  3  1  0.56228800  0.60363500  0.99016000  1
  C  4  1  0.59529800  0.58626400  0.98298700  1
  C  5  1  0.62854900  0.60580700  0.95590900  1
  C  6  1  0.62807700  0.64262000  0.93519000  1
  C  7  1  0.59572600  0.66118800  0.94340900  1
  C  8  1  0.56303200  0.64213200  0.97095400  1
  C  9  1  0.49320200  0.57783400  0.03362800  1
  C  10  1  0.46920900  0.54481700  0.06045900  1
  C  11  1  0.48210400  0.50833400  0.06951400  1
  C  12  1  0.51823400  0.50410800  0.05034300  1
  C  13  1  0.57329400  0.49788100  0.98308000  1
  C  14  1  0.60642800  0.48063700  0.99018400  1
  C  15  1  0.63813100  0.50991900  0.01581400  1
  C  16  1  0.62659300  0.54714500  0.02366600  1
  C  17  1  0.67552900  0.50645900  0.03363500  1
  C  18  1  0.69954000  0.53949300  0.06045700  1
  C  19  1  0.68666500  0.57599400  0.06949400  1
  C  20  1  0.65054000  0.58021900  0.05031800  1
  C  21  1  0.54000300  0.47829000  0.95602200  1
  C  22  1  0.54058900  0.44157500  0.93525700  1
  C  23  1  0.57295400  0.42302400  0.94347400  1
  C  24  1  0.60565700  0.44210100  0.97101000  1
  C  37  1  0.58436500  0.54213600  0.00345200  1
  C  38  1  0.70813000  0.60725900  0.09985400  1
  C  41  1  0.51207100  0.42740000  0.90337400  1
  C  44  1  0.65665800  0.65685200  0.90333300  1
  C  47  1  0.46060700  0.47705300  0.09986200  1
  C  50  1  0.12162300  0.58430700  0.35704700  1
  C  51  1  0.17039100  0.59588900  0.34916000  1
  C  52  1  0.16796300  0.56420800  0.32351200  1
  C  53  1  0.11758400  0.53123900  0.31631800  1
  C  54  1  0.10385400  0.49781900  0.28933200  1
  C  55  1  0.14115000  0.49833400  0.26859600  1
  C  56  1  0.19207200  0.53068300  0.27680600  1
  C  57  1  0.20570900  0.56343000  0.30431800  1
  C  58  1  0.21124600  0.63330300  0.36697600  1
  C  59  1  0.20221900  0.65734800  0.39377300  1
  C  60  1  0.15284300  0.64448500  0.40280800  1
  C  61  1  0.11249500  0.60835900  0.38363200  1
  C  62  1  0.05120800  0.55321100  0.31636800  1
  C  63  1  0.00082200  0.52008500  0.32347700  1
  C  64  1  0.99839400  0.48839300  0.34911800  1
  C  65  1  0.04716200  0.50001200  0.35702200  1
  C  66  1  0.95753800  0.45094800  0.36691400  1
  C  67  1  0.96656300  0.42689300  0.39370600  1
  C  68  1  0.01594600  0.43978500  0.40275400  1
  C  69  1  0.05629600  0.47597000  0.38360900  1
  C  70  1  0.06489200  0.58651300  0.28932000  1
  C  71  1  0.02759300  0.58593600  0.26855800  1
  C  72  1  0.97667800  0.55355600  0.27676100  1
  C  73  1  0.96305600  0.52080900  0.30427100  1
  C  86  1  0.08438800  0.54218100  0.33677400  1
  C  87  1  0.02573300  0.41825300  0.43308100  1
  C  90  1  0.04196200  0.61448400  0.23668600  1
  C  93  1  0.12677600  0.46976000  0.23673300  1
  C  96  1  0.14304400  0.66599900  0.43314100  1
  C  99  1  0.58932400  0.00492500  0.69035800  1
  C  100  1  0.55216500  0.95615400  0.68245900  1
  C  101  1  0.52284900  0.95858000  0.65685100  1
  C  102  1  0.54020400  0.00896300  0.64969200  1
  C  103  1  0.52050700  0.02266300  0.62269400  1
  C  104  1  0.48370900  0.98537200  0.60196900  1
  C  105  1  0.46519500  0.93445400  0.61015700  1
  C  106  1  0.48433400  0.92082400  0.63765700  1
  C  107  1  0.54869900  0.91530800  0.70029500  1
  C  108  1  0.58177400  0.92433700  0.72709200  1
  C  109  1  0.61829200  0.97371500  0.73612000  1
  C  110  1  0.62251100  0.01405900  0.71693800  1
  C  111  1  0.62851000  0.07535600  0.64965500  1
  C  112  1  0.64588500  0.12573600  0.65683100  1
  C  113  1  0.61664400  0.12815500  0.68249400  1
  C  114  1  0.57948200  0.07938500  0.69038800  1
  C  115  1  0.62009100  0.16900400  0.70031500  1
  C  116  1  0.58702500  0.15997600  0.72711900  1
  C  117  1  0.55052000  0.11059700  0.73615700  1
  C  118  1  0.54632800  0.07025000  0.71699000  1
  C  119  1  0.64821100  0.06164200  0.62266600  1
  C  120  1  0.68504000  0.09893400  0.60195700  1
  C  121  1  0.70358500  0.14985200  0.61016200  1
  C  122  1  0.68442500  0.16348400  0.63764900  1
  C  135  1  0.58438100  0.04215600  0.67011200  1
  C  136  1  0.51920600  0.10079900  0.76648700  1
  C  139  1  0.69928700  0.08455900  0.57011700  1
  C  142  1  0.46948300  0.99975300  0.57012200  1
  C  145  1  0.64958400  0.98351600  0.76646200  1
  C  148  1  0.48539200  0.15609100  0.78213400  1
  C  149  1  0.47633200  0.15042700  0.81672300  1
  C  151  1  0.48764800  0.23242700  0.82144200  1
  C  152  1  0.49674700  0.24027100  0.78661600  1
  C  153  1  0.49586900  0.20168400  0.76723200  1
  C  155  1  0.48670800  0.26952800  0.84143400  1
  C  156  1  0.47475500  0.29623300  0.89483800  1
  C  157  1  0.48013600  0.34090200  0.88144600  1
  C  158  1  0.48910400  0.34906000  0.84686600  1
  C  161  1  0.49346400  0.31417900  0.82653600  1
  C  162  1  0.50289600  0.32192600  0.79200500  1
  C  163  1  0.50497000  0.28544000  0.77224400  1
  C  172  1  0.79724000  0.64110100  0.11552000  1
  C  173  1  0.80065300  0.65016600  0.15010600  1
  C  175  1  0.87134200  0.63885100  0.15480300  1
  C  176  1  0.87006400  0.62974600  0.11997800  1
  C  177  1  0.83234500  0.63061800  0.10060400  1
  C  179  1  0.90940000  0.63980200  0.17478500  1
  C  180  1  0.94809300  0.65177500  0.22817600  1
  C  181  1  0.98737400  0.64639400  0.21477300  1
  C  182  1  0.98654200  0.63741700  0.18019200  1
  C  185  1  0.94728700  0.63304700  0.15987400  1
  C  186  1  0.94558200  0.62360800  0.12534300  1
  C  187  1  0.90700600  0.62152200  0.10559500  1
  C  196  1  0.97044200  0.32916000  0.44875200  1
  C  197  1  0.97613800  0.32581600  0.48334300  1
  C  199  1  0.89415500  0.25511900  0.48811200  1
  C  200  1  0.88628000  0.25632300  0.45328700  1
  C  201  1  0.92483900  0.29401100  0.43387600  1
  C  203  1  0.85708300  0.21709200  0.50812900  1
  C  204  1  0.83043900  0.17850300  0.56155500  1
  C  205  1  0.78577300  0.13917400  0.54818900  1
  C  206  1  0.77758900  0.13993100  0.51360800  1
  C  209  1  0.81243200  0.17915900  0.49325500  1
  C  210  1  0.80464900  0.18079300  0.45872400  1
  C  211  1  0.84110500  0.21934100  0.43893900  1
  C  220  1  0.68336800  0.92820200  0.78213500  1
  C  221  1  0.69239500  0.93385100  0.81672800  1
  C  223  1  0.68109200  0.85185500  0.82144000  1
  C  224  1  0.67202500  0.84402800  0.78661000  1
  C  225  1  0.67291100  0.88261900  0.76722800  1
  C  227  1  0.68203000  0.81474900  0.84143000  1
  C  228  1  0.69394700  0.78802200  0.89483600  1
  C  229  1  0.68859300  0.74336700  0.88143800  1
  C  230  1  0.67966100  0.73523100  0.84685500  1
  C  233  1  0.67530300  0.77011400  0.82652700  1
  C  234  1  0.66590100  0.76238100  0.79199200  1
  C  235  1  0.66382800  0.79887100  0.77223300  1
  C  244  1  0.37149300  0.44320300  0.11552000  1
  C  245  1  0.36809700  0.43414200  0.15010600  1
  C  247  1  0.29739500  0.44542700  0.15482100  1
  C  248  1  0.29865000  0.45452500  0.11999600  1
  C  249  1  0.33637200  0.45366900  0.10061400  1
  C  251  1  0.25933700  0.44446400  0.17481000  1
  C  252  1  0.22067000  0.43249500  0.22821100  1
  C  253  1  0.18137200  0.43785800  0.21481800  1
  C  254  1  0.18218400  0.44682400  0.18023700  1
  C  257  1  0.22143300  0.45120200  0.15990900  1
  C  258  1  0.22312100  0.46063800  0.12537800  1
  C  259  1  0.26169300  0.46273100  0.10562000  1
  C  268  1  0.19831400  0.75509900  0.44880200  1
  C  269  1  0.19262600  0.75846400  0.48339000  1
  C  271  1  0.27460600  0.82916500  0.48814200  1
  C  272  1  0.28247300  0.82794200  0.45331700  1
  C  273  1  0.24391100  0.79024300  0.43391600  1
  C  275  1  0.31168400  0.86720300  0.50814900  1
  C  276  1  0.33833600  0.90581800  0.56156800  1
  C  277  1  0.38299900  0.94513800  0.54819400  1
  C  278  1  0.39117600  0.94436300  0.51361300  1
  C  281  1  0.35633000  0.90512700  0.49326800  1
  C  282  1  0.36410200  0.90347700  0.45873700  1
  C  283  1  0.32764200  0.86491700  0.43896200  1
  C  292  1  0.54225500  0.53726000  0.69980700  1
  C  293  1  0.53063600  0.57440800  0.69189600  1
  C  294  1  0.56228800  0.60363500  0.66622700  1
  C  295  1  0.59529800  0.58626400  0.65905400  1
  C  296  1  0.62854900  0.60580700  0.63197600  1
  C  297  1  0.62807700  0.64262000  0.61125700  1
  C  298  1  0.59572600  0.66118800  0.61947600  1
  C  299  1  0.56303200  0.64213200  0.64702100  1
  C  300  1  0.49320200  0.57783400  0.70969500  1
  C  301  1  0.46920900  0.54481700  0.73652600  1
  C  302  1  0.48210400  0.50833400  0.74558100  1
  C  303  1  0.51823400  0.50410800  0.72641000  1
  C  304  1  0.57329400  0.49788100  0.65914700  1
  C  305  1  0.60642800  0.48063700  0.66625100  1
  C  306  1  0.63813100  0.50991900  0.69188100  1
  C  307  1  0.62659300  0.54714500  0.69973300  1
  C  308  1  0.67552900  0.50645900  0.70970200  1
  C  309  1  0.69954000  0.53949300  0.73652400  1
  C  310  1  0.68666500  0.57599400  0.74556100  1
  C  311  1  0.65054000  0.58021900  0.72638500  1
  C  312  1  0.54000300  0.47829000  0.63208900  1
  C  313  1  0.54058900  0.44157500  0.61132400  1
  C  314  1  0.57295400  0.42302400  0.61954100  1
  C  315  1  0.60565700  0.44210100  0.64707700  1
  C  328  1  0.58436500  0.54213600  0.67951900  1
  C  329  1  0.70813000  0.60725900  0.77592100  1
  C  332  1  0.51207100  0.42740000  0.57944100  1
  C  335  1  0.65665800  0.65685200  0.57940000  1
  C  338  1  0.46060700  0.47705300  0.77592900  1
  C  341  1  0.12162300  0.58430700  0.03311400  1
  C  342  1  0.17039100  0.59588900  0.02522700  1
  C  343  1  0.16796300  0.56420800  0.99957936  1
  C  344  1  0.11758400  0.53123900  0.99238536  1
  C  345  1  0.10385400  0.49781900  0.96539940  1
  C  346  1  0.14115000  0.49833400  0.94466340  1
  C  347  1  0.19207200  0.53068300  0.95287340  1
  C  348  1  0.20570900  0.56343000  0.98038540  1
  C  349  1  0.21124600  0.63330300  0.04304300  1
  C  350  1  0.20221900  0.65734800  0.06984000  1
  C  351  1  0.15284300  0.64448500  0.07887500  1
  C  352  1  0.11249500  0.60835900  0.05969900  1
  C  353  1  0.05120800  0.55321100  0.99243536  1
  C  354  1  0.00082200  0.52008500  0.99954436  1
  C  355  1  0.99839400  0.48839300  0.02518500  1
  C  356  1  0.04716200  0.50001200  0.03308900  1
  C  357  1  0.95753800  0.45094800  0.04298100  1
  C  358  1  0.96656300  0.42689300  0.06977300  1
  C  359  1  0.01594600  0.43978500  0.07882100  1
  C  360  1  0.05629600  0.47597000  0.05967600  1
  C  361  1  0.06489200  0.58651300  0.96538740  1
  C  362  1  0.02759300  0.58593600  0.94462540  1
  C  363  1  0.97667800  0.55355600  0.95282840  1
  C  364  1  0.96305600  0.52080900  0.98033840  1
  C  377  1  0.08438800  0.54218100  0.01284100  1
  C  378  1  0.02573300  0.41825300  0.10914800  1
  C  381  1  0.04196200  0.61448400  0.91275340  1
  C  384  1  0.12677600  0.46976000  0.91280040  1
  C  387  1  0.14304400  0.66599900  0.10920800  1
  C  390  1  0.58932400  0.00492500  0.36642500  1
  C  391  1  0.55216500  0.95615400  0.35852600  1
  C  392  1  0.52284900  0.95858000  0.33291800  1
  C  393  1  0.54020400  0.00896300  0.32575900  1
  C  394  1  0.52050700  0.02266300  0.29876100  1
  C  395  1  0.48370900  0.98537200  0.27803600  1
  C  396  1  0.46519500  0.93445400  0.28622400  1
  C  397  1  0.48433400  0.92082400  0.31372400  1
  C  398  1  0.54869900  0.91530800  0.37636200  1
  C  399  1  0.58177400  0.92433700  0.40315900  1
  C  400  1  0.61829200  0.97371500  0.41218700  1
  C  401  1  0.62251100  0.01405900  0.39300500  1
  C  402  1  0.62851000  0.07535600  0.32572200  1
  C  403  1  0.64588500  0.12573600  0.33289800  1
  C  404  1  0.61664400  0.12815500  0.35856100  1
  C  405  1  0.57948200  0.07938500  0.36645500  1
  C  406  1  0.62009100  0.16900400  0.37638200  1
  C  407  1  0.58702500  0.15997600  0.40318600  1
  C  408  1  0.55052000  0.11059700  0.41222400  1
  C  409  1  0.54632800  0.07025000  0.39305700  1
  C  410  1  0.64821100  0.06164200  0.29873300  1
  C  411  1  0.68504000  0.09893400  0.27802400  1
  C  412  1  0.70358500  0.14985200  0.28622900  1
  C  413  1  0.68442500  0.16348400  0.31371600  1
  C  426  1  0.58438100  0.04215600  0.34617900  1
  C  427  1  0.51920600  0.10079900  0.44255400  1
  C  430  1  0.69928700  0.08455900  0.24618400  1
  C  433  1  0.46948300  0.99975300  0.24618900  1
  C  436  1  0.64958400  0.98351600  0.44252900  1
  C  439  1  0.48539200  0.15609100  0.45820100  1
  C  440  1  0.47633200  0.15042700  0.49279000  1
  C  442  1  0.48764800  0.23242700  0.49750900  1
  C  443  1  0.49674700  0.24027100  0.46268300  1
  C  444  1  0.49586900  0.20168400  0.44329900  1
  C  446  1  0.48670800  0.26952800  0.51750100  1
  C  447  1  0.47475500  0.29623300  0.57090500  1
  C  448  1  0.48013600  0.34090200  0.55751300  1
  C  449  1  0.48910400  0.34906000  0.52293300  1
  C  452  1  0.49346400  0.31417900  0.50260300  1
  C  453  1  0.50289600  0.32192600  0.46807200  1
  C  454  1  0.50497000  0.28544000  0.44831100  1
  C  463  1  0.79724000  0.64110100  0.79158700  1
  C  464  1  0.80065300  0.65016600  0.82617300  1
  C  466  1  0.87134200  0.63885100  0.83087000  1
  C  467  1  0.87006400  0.62974600  0.79604500  1
  C  468  1  0.83234500  0.63061800  0.77667100  1
  C  470  1  0.90940000  0.63980200  0.85085200  1
  C  471  1  0.94809300  0.65177500  0.90424340  1
  C  472  1  0.98737400  0.64639400  0.89084000  1
  C  473  1  0.98654200  0.63741700  0.85625900  1
  C  476  1  0.94728700  0.63304700  0.83594100  1
  C  477  1  0.94558200  0.62360800  0.80141000  1
  C  478  1  0.90700600  0.62152200  0.78166200  1
  C  487  1  0.97044200  0.32916000  0.12481900  1
  C  488  1  0.97613800  0.32581600  0.15941000  1
  C  490  1  0.89415500  0.25511900  0.16417900  1
  C  491  1  0.88628000  0.25632300  0.12935400  1
  C  492  1  0.92483900  0.29401100  0.10994300  1
  C  494  1  0.85708300  0.21709200  0.18419600  1
  C  495  1  0.83043900  0.17850300  0.23762200  1
  C  496  1  0.78577300  0.13917400  0.22425600  1
  C  497  1  0.77758900  0.13993100  0.18967500  1
  C  500  1  0.81243200  0.17915900  0.16932200  1
  C  501  1  0.80464900  0.18079300  0.13479100  1
  C  502  1  0.84110500  0.21934100  0.11500600  1
  C  511  1  0.68336800  0.92820200  0.45820200  1
  C  512  1  0.69239500  0.93385100  0.49279500  1
  C  514  1  0.68109200  0.85185500  0.49750700  1
  C  515  1  0.67202500  0.84402800  0.46267700  1
  C  516  1  0.67291100  0.88261900  0.44329500  1
  C  518  1  0.68203000  0.81474900  0.51749700  1
  C  519  1  0.69394700  0.78802200  0.57090300  1
  C  520  1  0.68859300  0.74336700  0.55750500  1
  C  521  1  0.67966100  0.73523100  0.52292200  1
  C  524  1  0.67530300  0.77011400  0.50259400  1
  C  525  1  0.66590100  0.76238100  0.46805900  1
  C  526  1  0.66382800  0.79887100  0.44830000  1
  C  535  1  0.37149300  0.44320300  0.79158700  1
  C  536  1  0.36809700  0.43414200  0.82617300  1
  C  538  1  0.29739500  0.44542700  0.83088800  1
  C  539  1  0.29865000  0.45452500  0.79606300  1
  C  540  1  0.33637200  0.45366900  0.77668100  1
  C  542  1  0.25933700  0.44446400  0.85087700  1
  C  543  1  0.22067000  0.43249500  0.90427840  1
  C  544  1  0.18137200  0.43785800  0.89088500  1
  C  545  1  0.18218400  0.44682400  0.85630400  1
  C  548  1  0.22143300  0.45120200  0.83597600  1
  C  549  1  0.22312100  0.46063800  0.80144500  1
  C  550  1  0.26169300  0.46273100  0.78168700  1
  C  559  1  0.19831400  0.75509900  0.12486900  1
  C  560  1  0.19262600  0.75846400  0.15945700  1
  C  562  1  0.27460600  0.82916500  0.16420900  1
  C  563  1  0.28247300  0.82794200  0.12938400  1
  C  564  1  0.24391100  0.79024300  0.10998300  1
  C  566  1  0.31168400  0.86720300  0.18421600  1
  C  567  1  0.33833600  0.90581800  0.23763500  1
  C  568  1  0.38299900  0.94513800  0.22426100  1
  C  569  1  0.39117600  0.94436300  0.18968000  1
  C  572  1  0.35633000  0.90512700  0.16933500  1
  C  573  1  0.36410200  0.90347700  0.13480400  1
  C  574  1  0.32764200  0.86491700  0.11502900  1
  C  583  1  0.54225500  0.53726000  0.37587500  1
  C  584  1  0.53063600  0.57440800  0.36796400  1
  C  585  1  0.56228800  0.60363500  0.34229500  1
  C  586  1  0.59529800  0.58626400  0.33512200  1
  C  587  1  0.62854900  0.60580700  0.30804400  1
  C  588  1  0.62807700  0.64262000  0.28732500  1
  C  589  1  0.59572600  0.66118800  0.29554400  1
  C  590  1  0.56303200  0.64213200  0.32308900  1
  C  591  1  0.49320200  0.57783400  0.38576300  1
  C  592  1  0.46920900  0.54481700  0.41259400  1
  C  593  1  0.48210400  0.50833400  0.42164900  1
  C  594  1  0.51823400  0.50410800  0.40247800  1
  C  595  1  0.57329400  0.49788100  0.33521500  1
  C  596  1  0.60642800  0.48063700  0.34231900  1
  C  597  1  0.63813100  0.50991900  0.36794900  1
  C  598  1  0.62659300  0.54714500  0.37580100  1
  C  599  1  0.67552900  0.50645900  0.38577000  1
  C  600  1  0.69954000  0.53949300  0.41259200  1
  C  601  1  0.68666500  0.57599400  0.42162900  1
  C  602  1  0.65054000  0.58021900  0.40245300  1
  C  603  1  0.54000300  0.47829000  0.30815700  1
  C  604  1  0.54058900  0.44157500  0.28739200  1
  C  605  1  0.57295400  0.42302400  0.29560900  1
  C  606  1  0.60565700  0.44210100  0.32314500  1
  C  619  1  0.58436500  0.54213600  0.35558700  1
  C  620  1  0.70813000  0.60725900  0.45198900  1
  C  623  1  0.51207100  0.42740000  0.25550900  1
  C  626  1  0.65665800  0.65685200  0.25546800  1
  C  629  1  0.46060700  0.47705300  0.45199700  1
  C  632  1  0.12162300  0.58430700  0.70918200  1
  C  633  1  0.17039100  0.59588900  0.70129500  1
  C  634  1  0.16796300  0.56420800  0.67564700  1
  C  635  1  0.11758400  0.53123900  0.66845300  1
  C  636  1  0.10385400  0.49781900  0.64146700  1
  C  637  1  0.14115000  0.49833400  0.62073100  1
  C  638  1  0.19207200  0.53068300  0.62894100  1
  C  639  1  0.20570900  0.56343000  0.65645300  1
  C  640  1  0.21124600  0.63330300  0.71911100  1
  C  641  1  0.20221900  0.65734800  0.74590800  1
  C  642  1  0.15284300  0.64448500  0.75494300  1
  C  643  1  0.11249500  0.60835900  0.73576700  1
  C  644  1  0.05120800  0.55321100  0.66850300  1
  C  645  1  0.00082200  0.52008500  0.67561200  1
  C  646  1  0.99839400  0.48839300  0.70125300  1
  C  647  1  0.04716200  0.50001200  0.70915700  1
  C  648  1  0.95753800  0.45094800  0.71904900  1
  C  649  1  0.96656300  0.42689300  0.74584100  1
  C  650  1  0.01594600  0.43978500  0.75488900  1
  C  651  1  0.05629600  0.47597000  0.73574400  1
  C  652  1  0.06489200  0.58651300  0.64145500  1
  C  653  1  0.02759300  0.58593600  0.62069300  1
  C  654  1  0.97667800  0.55355600  0.62889600  1
  C  655  1  0.96305600  0.52080900  0.65640600  1
  C  668  1  0.08438800  0.54218100  0.68890900  1
  C  669  1  0.02573300  0.41825300  0.78521600  1
  C  672  1  0.04196200  0.61448400  0.58882100  1
  C  675  1  0.12677600  0.46976000  0.58886800  1
  C  678  1  0.14304400  0.66599900  0.78527600  1
  C  681  1  0.58932400  0.00492500  0.04249300  1
  C  682  1  0.55216500  0.95615400  0.03459400  1
  C  683  1  0.52284900  0.95858000  0.00898600  1
  C  684  1  0.54020400  0.00896300  0.00182700  1
  C  685  1  0.52050700  0.02266300  0.97482870  1
  C  686  1  0.48370900  0.98537200  0.95410370  1
  C  687  1  0.46519500  0.93445400  0.96229170  1
  C  688  1  0.48433400  0.92082400  0.98979170  1
  C  689  1  0.54869900  0.91530800  0.05243000  1
  C  690  1  0.58177400  0.92433700  0.07922700  1
  C  691  1  0.61829200  0.97371500  0.08825500  1
  C  692  1  0.62251100  0.01405900  0.06907300  1
  C  693  1  0.62851000  0.07535600  0.00179000  1
  C  694  1  0.64588500  0.12573600  0.00896600  1
  C  695  1  0.61664400  0.12815500  0.03462900  1
  C  696  1  0.57948200  0.07938500  0.04252300  1
  C  697  1  0.62009100  0.16900400  0.05245000  1
  C  698  1  0.58702500  0.15997600  0.07925400  1
  C  699  1  0.55052000  0.11059700  0.08829200  1
  C  700  1  0.54632800  0.07025000  0.06912500  1
  C  701  1  0.64821100  0.06164200  0.97480070  1
  C  702  1  0.68504000  0.09893400  0.95409170  1
  C  703  1  0.70358500  0.14985200  0.96229670  1
  C  704  1  0.68442500  0.16348400  0.98978370  1
  C  717  1  0.58438100  0.04215600  0.02224700  1
  C  718  1  0.51920600  0.10079900  0.11862200  1
  C  721  1  0.69928700  0.08455900  0.92225170  1
  C  724  1  0.46948300  0.99975300  0.92225670  1
  C  727  1  0.64958400  0.98351600  0.11859700  1
  C  730  1  0.48539200  0.15609100  0.13426900  1
  C  731  1  0.47633200  0.15042700  0.16885800  1
  C  733  1  0.48764800  0.23242700  0.17357700  1
  C  734  1  0.49674700  0.24027100  0.13875100  1
  C  735  1  0.49586900  0.20168400  0.11936700  1
  C  737  1  0.48670800  0.26952800  0.19356900  1
  C  738  1  0.47475500  0.29623300  0.24697300  1
  C  739  1  0.48013600  0.34090200  0.23358100  1
  C  740  1  0.48910400  0.34906000  0.19900100  1
  C  743  1  0.49346400  0.31417900  0.17867100  1
  C  744  1  0.50289600  0.32192600  0.14414000  1
  C  745  1  0.50497000  0.28544000  0.12437900  1
  C  754  1  0.79724000  0.64110100  0.46765500  1
  C  755  1  0.80065300  0.65016600  0.50224100  1
  C  757  1  0.87134200  0.63885100  0.50693800  1
  C  758  1  0.87006400  0.62974600  0.47211300  1
  C  759  1  0.83234500  0.63061800  0.45273900  1
  C  761  1  0.90940000  0.63980200  0.52692000  1
  C  762  1  0.94809300  0.65177500  0.58031100  1
  C  763  1  0.98737400  0.64639400  0.56690800  1
  C  764  1  0.98654200  0.63741700  0.53232700  1
  C  767  1  0.94728700  0.63304700  0.51200900  1
  C  768  1  0.94558200  0.62360800  0.47747800  1
  C  769  1  0.90700600  0.62152200  0.45773000  1
  C  778  1  0.97044200  0.32916000  0.80088700  1
  C  779  1  0.97613800  0.32581600  0.83547800  1
  C  781  1  0.89415500  0.25511900  0.84024700  1
  C  782  1  0.88628000  0.25632300  0.80542200  1
  C  783  1  0.92483900  0.29401100  0.78601100  1
  C  785  1  0.85708300  0.21709200  0.86026400  1
  C  786  1  0.83043900  0.17850300  0.91368970  1
  C  787  1  0.78577300  0.13917400  0.90032370  1
  C  788  1  0.77758900  0.13993100  0.86574300  1
  C  791  1  0.81243200  0.17915900  0.84539000  1
  C  792  1  0.80464900  0.18079300  0.81085900  1
  C  793  1  0.84110500  0.21934100  0.79107400  1
  C  802  1  0.68336800  0.92820200  0.13427000  1
  C  803  1  0.69239500  0.93385100  0.16886300  1
  C  805  1  0.68109200  0.85185500  0.17357500  1
  C  806  1  0.67202500  0.84402800  0.13874500  1
  C  807  1  0.67291100  0.88261900  0.11936300  1
  C  809  1  0.68203000  0.81474900  0.19356500  1
  C  810  1  0.69394700  0.78802200  0.24697100  1
  C  811  1  0.68859300  0.74336700  0.23357300  1
  C  812  1  0.67966100  0.73523100  0.19899000  1
  C  815  1  0.67530300  0.77011400  0.17866200  1
  C  816  1  0.66590100  0.76238100  0.14412700  1
  C  817  1  0.66382800  0.79887100  0.12436800  1
  C  826  1  0.37149300  0.44320300  0.46765500  1
  C  827  1  0.36809700  0.43414200  0.50224100  1
  C  829  1  0.29739500  0.44542700  0.50695600  1
  C  830  1  0.29865000  0.45452500  0.47213100  1
  C  831  1  0.33637200  0.45366900  0.45274900  1
  C  833  1  0.25933700  0.44446400  0.52694500  1
  C  834  1  0.22067000  0.43249500  0.58034600  1
  C  835  1  0.18137200  0.43785800  0.56695300  1
  C  836  1  0.18218400  0.44682400  0.53237200  1
  C  839  1  0.22143300  0.45120200  0.51204400  1
  C  840  1  0.22312100  0.46063800  0.47751300  1
  C  841  1  0.26169300  0.46273100  0.45775500  1
  C  850  1  0.19831400  0.75509900  0.80093700  1
  C  851  1  0.19262600  0.75846400  0.83552500  1
  C  853  1  0.27460600  0.82916500  0.84027700  1
  C  854  1  0.28247300  0.82794200  0.80545200  1
  C  855  1  0.24391100  0.79024300  0.78605100  1
  C  857  1  0.31168400  0.86720300  0.86028400  1
  C  858  1  0.33833600  0.90581800  0.91370270  1
  C  859  1  0.38299900  0.94513800  0.90032870  1
  C  860  1  0.39117600  0.94436300  0.86574800  1
  C  863  1  0.35633000  0.90512700  0.84540300  1
  C  864  1  0.36410200  0.90347700  0.81087200  1
  C  865  1  0.32764200  0.86491700  0.79109700  1
  N  150  1  0.47788500  0.18810100  0.83492000  1
  N  160  1  0.47770900  0.26252400  0.87473600  1
  N  168  1  0.47151900  0.37443600  0.90065000  1
  N  170  1  0.48002800  0.11498400  0.76338200  1
  N  174  1  0.83678700  0.64861800  0.16829400  1
  N  184  1  0.91141300  0.64880900  0.20808500  1
  N  192  1  0.02954300  0.65502800  0.23396200  1
  N  194  1  0.76148900  0.64646200  0.09678000  1
  N  198  1  0.93848700  0.28971200  0.50156500  1
  N  208  1  0.86411700  0.21514900  0.54143100  1
  N  216  1  0.75227400  0.09704200  0.56742300  1
  N  218  1  0.01153000  0.36488400  0.42997400  1
  N  222  1  0.69083400  0.89617100  0.83492300  1
  N  232  1  0.69099800  0.82173600  0.87473600  1
  N  240  1  0.69719800  0.70982400  0.90064400  1
  N  242  1  0.68875800  0.96932100  0.76338400  1
  N  246  1  0.33196600  0.43567900  0.16830100  1
  N  256  1  0.25734500  0.43546800  0.20811300  1
  N  264  1  0.13921600  0.42922800  0.23402000  1
  N  266  1  0.40724900  0.43785600  0.09677000  1
  N  270  1  0.23027800  0.79457700  0.50160300  1
  N  280  1  0.30465500  0.86915900  0.54145100  1
  N  288  1  0.41649900  0.98728000  0.56741800  1
  N  290  1  0.15722600  0.71936100  0.43003400  1
  N  441  1  0.47788500  0.18810100  0.51098700  1
  N  451  1  0.47770900  0.26252400  0.55080300  1
  N  459  1  0.47151900  0.37443600  0.57671700  1
  N  461  1  0.48002800  0.11498400  0.43944900  1
  N  465  1  0.83678700  0.64861800  0.84436100  1
  N  475  1  0.91141300  0.64880900  0.88415200  1
  N  483  1  0.02954300  0.65502800  0.91002940  1
  N  485  1  0.76148900  0.64646200  0.77284700  1
  N  489  1  0.93848700  0.28971200  0.17763200  1
  N  499  1  0.86411700  0.21514900  0.21749800  1
  N  507  1  0.75227400  0.09704200  0.24349000  1
  N  509  1  0.01153000  0.36488400  0.10604100  1
  N  513  1  0.69083400  0.89617100  0.51099000  1
  N  523  1  0.69099800  0.82173600  0.55080300  1
  N  531  1  0.69719800  0.70982400  0.57671100  1
  N  533  1  0.68875800  0.96932100  0.43945100  1
  N  537  1  0.33196600  0.43567900  0.84436800  1
  N  547  1  0.25734500  0.43546800  0.88418000  1
  N  555  1  0.13921600  0.42922800  0.91008740  1
  N  557  1  0.40724900  0.43785600  0.77283700  1
  N  561  1  0.23027800  0.79457700  0.17767000  1
  N  571  1  0.30465500  0.86915900  0.21751800  1
  N  579  1  0.41649900  0.98728000  0.24348500  1
  N  581  1  0.15722600  0.71936100  0.10610100  1
  N  732  1  0.47788500  0.18810100  0.18705500  1
  N  742  1  0.47770900  0.26252400  0.22687100  1
  N  750  1  0.47151900  0.37443600  0.25278500  1
  N  752  1  0.48002800  0.11498400  0.11551700  1
  N  756  1  0.83678700  0.64861800  0.52042900  1
  N  766  1  0.91141300  0.64880900  0.56022000  1
  N  774  1  0.02954300  0.65502800  0.58609700  1
  N  776  1  0.76148900  0.64646200  0.44891500  1
  N  780  1  0.93848700  0.28971200  0.85370000  1
  N  790  1  0.86411700  0.21514900  0.89356600  1
  N  798  1  0.75227400  0.09704200  0.91955770  1
  N  800  1  0.01153000  0.36488400  0.78210900  1
  N  804  1  0.69083400  0.89617100  0.18705800  1
  N  814  1  0.69099800  0.82173600  0.22687100  1
  N  822  1  0.69719800  0.70982400  0.25277900  1
  N  824  1  0.68875800  0.96932100  0.11551900  1
  N  828  1  0.33196600  0.43567900  0.52043600  1
  N  838  1  0.25734500  0.43546800  0.56024800  1
  N  846  1  0.13921600  0.42922800  0.58615500  1
  N  848  1  0.40724900  0.43785600  0.44890500  1
  N  852  1  0.23027800  0.79457700  0.85373800  1
  N  862  1  0.30465500  0.86915900  0.89358600  1
  N  870  1  0.41649900  0.98728000  0.91955270  1
  N  872  1  0.15722600  0.71936100  0.78216900  1
