# generated using pymatgen
data_H24C49(NO)12
_symmetry_space_group_name_H-M   'P 1'
_cell_length_a   36.81290000
_cell_length_b   55.87295000
_cell_length_c   55.87300000
_cell_angle_alpha   120.00008881
_cell_angle_beta   90.00460000
_cell_angle_gamma   89.99999999
_symmetry_Int_Tables_number   1
_chemical_formula_structural   H24C49(NO)12
_chemical_formula_sum   'H288 C588 N144 O144'
_cell_volume   99525.38469274
_cell_formula_units_Z   12
loop_
 _symmetry_equiv_pos_site_id
 _symmetry_equiv_pos_as_xyz
  1  'x, y, z'
loop_
 _atom_site_type_symbol
 _atom_site_label
 _atom_site_symmetry_multiplicity
 _atom_site_fract_x
 _atom_site_fract_y
 _atom_site_fract_z
 _atom_site_occupancy
  H  25  1  0.65217600  0.52588800  0.49550800  1
  H  26  1  0.71654200  0.52477500  0.50152500  1
  H  27  1  0.78244600  0.52217400  0.49885200  1
  H  28  1  0.84624700  0.52238900  0.49109600  1
  H  29  1  0.82665400  0.54847900  0.43284100  1
  H  30  1  0.66936300  0.54862100  0.43451700  1
  H  31  1  0.75102900  0.49027400  0.40009400  1
  H  32  1  0.71970200  0.49790400  0.33129400  1
  H  33  1  0.72291200  0.54701100  0.35904500  1
  H  34  1  0.75760700  0.60441000  0.48367500  1
  H  35  1  0.73559600  0.59640000  0.39386400  1
  H  36  1  0.74479400  0.64106400  0.43360200  1
  H  70  1  0.65209500  0.96707500  0.47209500  1
  H  71  1  0.71645300  0.97415100  0.47308300  1
  H  72  1  0.78234700  0.97403500  0.47551500  1
  H  73  1  0.84614900  0.96605200  0.47520400  1
  H  74  1  0.82655500  0.88177800  0.44944600  1
  H  75  1  0.66923800  0.88336500  0.44944700  1
  H  76  1  0.75104500  0.90725500  0.50768100  1
  H  77  1  0.71979700  0.83082700  0.50010000  1
  H  78  1  0.72290400  0.80946300  0.45099000  1
  H  79  1  0.75752100  0.87666600  0.39354600  1
  H  80  1  0.73557300  0.79488200  0.40159400  1
  H  81  1  0.74483700  0.78993100  0.35692700  1
  H  115  1  0.65186900  0.50256500  0.03087200  1
  H  116  1  0.71622500  0.49651700  0.02368900  1
  H  117  1  0.78214400  0.49902800  0.02375800  1
  H  118  1  0.84597100  0.50657100  0.03173300  1
  H  119  1  0.82650700  0.56483100  0.11610000  1
  H  120  1  0.66919500  0.56337500  0.11464900  1
  H  121  1  0.75103600  0.59781600  0.09069800  1
  H  122  1  0.71978800  0.66661600  0.16714700  1
  H  123  1  0.72286600  0.63882700  0.18846800  1
  H  124  1  0.75741300  0.51417600  0.12117000  1
  H  125  1  0.73548800  0.60397400  0.20300500  1
  H  126  1  0.74467700  0.56422100  0.20790600  1
  H  160  1  0.15183300  0.47078500  0.50330900  1
  H  161  1  0.21618200  0.47189100  0.49725500  1
  H  162  1  0.28207500  0.47446900  0.49986000  1
  H  163  1  0.34589000  0.47420100  0.50751500  1
  H  164  1  0.32644500  0.44837700  0.56599400  1
  H  165  1  0.16912300  0.44824900  0.56443700  1
  H  166  1  0.25091800  0.50658000  0.59880500  1
  H  167  1  0.21970800  0.49897100  0.66763800  1
  H  168  1  0.22283000  0.44986300  0.63988200  1
  H  169  1  0.25741800  0.39244900  0.51523700  1
  H  170  1  0.23546100  0.40046900  0.60505500  1
  H  171  1  0.24470500  0.35580600  0.56532800  1
  H  205  1  0.15232400  0.02959800  0.52650300  1
  H  206  1  0.21670700  0.02248400  0.52524400  1
  H  207  1  0.28262700  0.02262500  0.52261000  1
  H  208  1  0.34642800  0.03072100  0.52301800  1
  H  209  1  0.32666800  0.11517300  0.54969400  1
  H  210  1  0.16937300  0.11347500  0.54974700  1
  H  211  1  0.25107500  0.08962000  0.49124500  1
  H  212  1  0.21968100  0.16605500  0.49892200  1
  H  213  1  0.22281100  0.18737300  0.54803200  1
  H  214  1  0.25772500  0.12008600  0.60534700  1
  H  215  1  0.23547200  0.20190400  0.59741600  1
  H  216  1  0.24477600  0.20680800  0.64206200  1
  H  250  1  0.15188700  0.49429200  0.96788300  1
  H  251  1  0.21623700  0.50041800  0.97508000  1
  H  252  1  0.28214800  0.49786300  0.97507500  1
  H  253  1  0.34597100  0.49017600  0.96719200  1
  H  254  1  0.32657000  0.43180000  0.88284800  1
  H  255  1  0.16928000  0.43332400  0.88418200  1
  H  256  1  0.25095300  0.39900900  0.90820400  1
  H  257  1  0.21976800  0.33017800  0.83174800  1
  H  258  1  0.22299300  0.35792600  0.81038600  1
  H  259  1  0.25751600  0.48258400  0.87763600  1
  H  260  1  0.23566500  0.39274700  0.79582700  1
  H  261  1  0.24485700  0.43248300  0.79089700  1
  H  277  1  0.89952900  0.54344900  0.52484500  1
  H  284  1  0.10312700  0.52710100  0.53789700  1
  H  285  1  0.03461800  0.46733800  0.53889400  1
  H  286  1  0.96630100  0.53539700  0.46015000  1
  H  294  1  0.12001000  0.50291200  0.56185500  1
  H  296  1  0.88715800  0.56717500  0.49850400  1
  H  303  1  0.89988700  0.97880800  0.45423800  1
  H  310  1  0.10340400  0.00817300  0.47114600  1
  H  311  1  0.03466200  0.06916000  0.53040700  1
  H  312  1  0.96623300  0.92235300  0.46294500  1
  H  320  1  0.11990900  0.05648300  0.49489000  1
  H  322  1  0.88721400  0.92879400  0.43077400  1
  H  329  1  0.89971100  0.47257400  0.01876400  1
  H  336  1  0.10319800  0.45988300  0.98959800  1
  H  337  1  0.03481400  0.45884800  0.92875600  1
  H  338  1  0.96602300  0.53766000  0.07538900  1
  H  346  1  0.11993400  0.43576700  0.94145800  1
  H  348  1  0.88711800  0.49899500  0.06876100  1
  H  355  1  0.39956700  0.45372100  0.47402900  1
  H  362  1  0.60317700  0.46955400  0.46092800  1
  H  363  1  0.53507900  0.52975000  0.46038600  1
  H  364  1  0.46617900  0.46132700  0.53863000  1
  H  372  1  0.62026600  0.49386500  0.43715600  1
  H  374  1  0.38711400  0.42976800  0.50011100  1
  H  381  1  0.39939300  0.01810700  0.54460100  1
  H  388  1  0.60297300  0.98877400  0.52849900  1
  H  389  1  0.53468800  0.92801200  0.46850200  1
  H  390  1  0.46622200  0.07472200  0.53654200  1
  H  398  1  0.61995900  0.94069700  0.50423900  1
  H  400  1  0.38696000  0.06817500  0.56824800  1
  H  407  1  0.39970800  0.52419900  0.97993000  1
  H  414  1  0.60329100  0.53640800  0.00934300  1
  H  415  1  0.53433700  0.53866500  0.07047700  1
  H  416  1  0.46598100  0.45885500  0.92367600  1
  H  424  1  0.61964700  0.56120200  0.05765400  1
  H  426  1  0.38696800  0.49745600  0.92994100  1
  H  433  1  0.71370100  0.42254200  0.26844200  1
  H  440  1  0.83204200  0.50665200  0.21683500  1
  H  441  1  0.72156200  0.48858400  0.19706200  1
  H  442  1  0.79415800  0.47912700  0.31783100  1
  H  450  1  0.79413900  0.53159300  0.20030300  1
  H  452  1  0.74017000  0.42349500  0.30959400  1
  H  459  1  0.71392400  0.84333200  0.57540500  1
  H  466  1  0.83216100  0.70757800  0.49118300  1
  H  467  1  0.72169800  0.70587500  0.50928700  1
  H  468  1  0.79433200  0.83614400  0.51879800  1
  H  476  1  0.79426200  0.66612200  0.46622300  1
  H  478  1  0.74050300  0.88354800  0.57448500  1
  H  485  1  0.71381200  0.72945400  0.15468000  1
  H  492  1  0.83219500  0.78105100  0.29038000  1
  H  493  1  0.72165500  0.80073700  0.29212300  1
  H  494  1  0.79430600  0.68006200  0.16182400  1
  H  502  1  0.79431800  0.79754800  0.33189400  1
  H  504  1  0.74035800  0.68833400  0.11445600  1
  H  511  1  0.21384100  0.57430600  0.73048300  1
  H  518  1  0.33218800  0.49009000  0.78197300  1
  H  519  1  0.22170200  0.50817400  0.80177900  1
  H  520  1  0.29422600  0.51770000  0.68103000  1
  H  528  1  0.29431300  0.46513000  0.79851000  1
  H  530  1  0.24031300  0.57336300  0.68932300  1
  H  537  1  0.21374300  0.15358000  0.42357900  1
  H  544  1  0.33209600  0.28928800  0.50770800  1
  H  545  1  0.22158000  0.29100500  0.48973200  1
  H  546  1  0.29418200  0.16075200  0.48016800  1
  H  554  1  0.29416600  0.33076100  0.53270300  1
  H  556  1  0.24028000  0.11336700  0.42450000  1
  H  563  1  0.21384600  0.26734500  0.84426300  1
  H  570  1  0.33218000  0.21582800  0.70855400  1
  H  571  1  0.22175100  0.19591500  0.70682000  1
  H  572  1  0.29425300  0.31678100  0.83709600  1
  H  580  1  0.29432400  0.19925000  0.66707400  1
  H  582  1  0.24033400  0.30849800  0.88447600  1
  H  607  1  0.65217600  0.95315950  0.11965450  1
  H  608  1  0.71654200  0.95204650  0.12567150  1
  H  609  1  0.78244600  0.94944550  0.12299850  1
  H  610  1  0.84624700  0.94966050  0.11524250  1
  H  611  1  0.82665400  0.97575050  0.05698760  1
  H  612  1  0.66936300  0.97589250  0.05866360  1
  H  613  1  0.75102900  0.91754550  0.02424050  1
  H  614  1  0.71970200  0.92517550  0.95544060  1
  H  615  1  0.72291200  0.97428250  0.98319156  1
  H  616  1  0.75760700  0.03168200  0.10782210  1
  H  617  1  0.73559600  0.02367200  0.01801100  1
  H  618  1  0.74479400  0.06833600  0.05774900  1
  H  652  1  0.65209500  0.39434700  0.09624200  1
  H  653  1  0.71645300  0.40142300  0.09723000  1
  H  654  1  0.78234700  0.40130700  0.09966200  1
  H  655  1  0.84614900  0.39332400  0.09935100  1
  H  656  1  0.82655500  0.30905000  0.07359300  1
  H  657  1  0.66923800  0.31063700  0.07359400  1
  H  658  1  0.75104500  0.33452700  0.13182800  1
  H  659  1  0.71979700  0.25809900  0.12424700  1
  H  660  1  0.72290400  0.23673500  0.07513700  1
  H  661  1  0.75752100  0.30393800  0.01769300  1
  H  662  1  0.73557300  0.22215400  0.02574100  1
  H  663  1  0.74483700  0.21720300  0.98107400  1
  H  697  1  0.65186900  0.92983650  0.65501850  1
  H  698  1  0.71622500  0.92378850  0.64783550  1
  H  699  1  0.78214400  0.92629950  0.64790450  1
  H  700  1  0.84597100  0.93384250  0.65587950  1
  H  701  1  0.82650700  0.99210254  0.74024654  1
  H  702  1  0.66919500  0.99064654  0.73879554  1
  H  703  1  0.75103600  0.02508800  0.71484500  1
  H  704  1  0.71978800  0.09388800  0.79129400  1
  H  705  1  0.72286600  0.06609900  0.81261500  1
  H  706  1  0.75741300  0.94144750  0.74531650  1
  H  707  1  0.73548800  0.03124600  0.82715200  1
  H  708  1  0.74467700  0.99149254  0.83205254  1
  H  742  1  0.15183300  0.89805700  0.12745600  1
  H  743  1  0.21618200  0.89916300  0.12140200  1
  H  744  1  0.28207500  0.90174050  0.12400650  1
  H  745  1  0.34589000  0.90147250  0.13166150  1
  H  746  1  0.32644500  0.87564900  0.19014100  1
  H  747  1  0.16912300  0.87552100  0.18858400  1
  H  748  1  0.25091800  0.93385150  0.22295150  1
  H  749  1  0.21970800  0.92624250  0.29178450  1
  H  750  1  0.22283000  0.87713500  0.26402900  1
  H  751  1  0.25741800  0.81972100  0.13938400  1
  H  752  1  0.23546100  0.82774100  0.22920200  1
  H  753  1  0.24470500  0.78307800  0.18947500  1
  H  787  1  0.15232400  0.45687000  0.15065000  1
  H  788  1  0.21670700  0.44975600  0.14939100  1
  H  789  1  0.28262700  0.44989700  0.14675700  1
  H  790  1  0.34642800  0.45799300  0.14716500  1
  H  791  1  0.32666800  0.54244500  0.17384100  1
  H  792  1  0.16937300  0.54074700  0.17389400  1
  H  793  1  0.25107500  0.51689200  0.11539200  1
  H  794  1  0.21968100  0.59332700  0.12306900  1
  H  795  1  0.22281100  0.61464500  0.17217900  1
  H  796  1  0.25772500  0.54735800  0.22949400  1
  H  797  1  0.23547200  0.62917600  0.22156300  1
  H  798  1  0.24477600  0.63408000  0.26620900  1
  H  832  1  0.15188700  0.92156350  0.59202950  1
  H  833  1  0.21623700  0.92768950  0.59922650  1
  H  834  1  0.28214800  0.92513450  0.59922150  1
  H  835  1  0.34597100  0.91744750  0.59133850  1
  H  836  1  0.32657000  0.85907200  0.50699500  1
  H  837  1  0.16928000  0.86059600  0.50832900  1
  H  838  1  0.25095300  0.82628100  0.53235100  1
  H  839  1  0.21976800  0.75745000  0.45589500  1
  H  840  1  0.22299300  0.78519800  0.43453300  1
  H  841  1  0.25751600  0.90985550  0.50178250  1
  H  842  1  0.23566500  0.82001900  0.41997400  1
  H  843  1  0.24485700  0.85975500  0.41504400  1
  H  859  1  0.89952900  0.97072050  0.14899150  1
  H  866  1  0.10312700  0.95437250  0.16204350  1
  H  867  1  0.03461800  0.89461000  0.16304100  1
  H  868  1  0.96630100  0.96266850  0.08429650  1
  H  876  1  0.12001000  0.93018350  0.18600150  1
  H  878  1  0.88715800  0.99444654  0.12265054  1
  H  885  1  0.89988700  0.40608000  0.07838500  1
  H  892  1  0.10340400  0.43544500  0.09529300  1
  H  893  1  0.03466200  0.49643200  0.15455400  1
  H  894  1  0.96623300  0.34962500  0.08709200  1
  H  902  1  0.11990900  0.48375500  0.11903700  1
  H  904  1  0.88721400  0.35606600  0.05492100  1
  H  911  1  0.89971100  0.89984600  0.64291100  1
  H  918  1  0.10319800  0.88715500  0.61374500  1
  H  919  1  0.03481400  0.88612000  0.55290300  1
  H  920  1  0.96602300  0.96493150  0.69953550  1
  H  928  1  0.11993400  0.86303900  0.56560500  1
  H  930  1  0.88711800  0.92626650  0.69290750  1
  H  937  1  0.39956700  0.88099300  0.09817600  1
  H  944  1  0.60317700  0.89682600  0.08507500  1
  H  945  1  0.53507900  0.95702150  0.08453250  1
  H  946  1  0.46617900  0.88859900  0.16277700  1
  H  954  1  0.62026600  0.92113650  0.06130250  1
  H  956  1  0.38711400  0.85704000  0.12425800  1
  H  963  1  0.39939300  0.44537900  0.16874800  1
  H  970  1  0.60297300  0.41604600  0.15264600  1
  H  971  1  0.53468800  0.35528400  0.09264900  1
  H  972  1  0.46622200  0.50199400  0.16068900  1
  H  980  1  0.61995900  0.36796900  0.12838600  1
  H  982  1  0.38696000  0.49544700  0.19239500  1
  H  989  1  0.39970800  0.95147050  0.60407650  1
  H  996  1  0.60329100  0.96367950  0.63348950  1
  H  997  1  0.53433700  0.96593650  0.69462350  1
  H  998  1  0.46598100  0.88612700  0.54782300  1
  H  1006  1  0.61964700  0.98847350  0.68180050  1
  H  1008  1  0.38696800  0.92472750  0.55408750  1
  H  1015  1  0.71370100  0.84981400  0.89258910  1
  H  1022  1  0.83204200  0.93392350  0.84098150  1
  H  1023  1  0.72156200  0.91585550  0.82120850  1
  H  1024  1  0.79415800  0.90639850  0.94197760  1
  H  1032  1  0.79413900  0.95886450  0.82444950  1
  H  1034  1  0.74017000  0.85076700  0.93374110  1
  H  1041  1  0.71392400  0.27060400  0.19955200  1
  H  1048  1  0.83216100  0.13485000  0.11533000  1
  H  1049  1  0.72169800  0.13314700  0.13343406  1
  H  1050  1  0.79433200  0.26341600  0.14294500  1
  H  1058  1  0.79426200  0.09339400  0.09037000  1
  H  1060  1  0.74050300  0.31082000  0.19863200  1
  H  1067  1  0.71381200  0.15672600  0.77882700  1
  H  1074  1  0.83219500  0.20832300  0.91452700  1
  H  1075  1  0.72165500  0.22800900  0.91627000  1
  H  1076  1  0.79430600  0.10733400  0.78597100  1
  H  1084  1  0.79431800  0.22482000  0.95604100  1
  H  1086  1  0.74035800  0.11560600  0.73860300  1
  H  1093  1  0.21384100  0.00157800  0.35463000  1
  H  1100  1  0.33218800  0.91736150  0.40611950  1
  H  1101  1  0.22170200  0.93544550  0.42592550  1
  H  1102  1  0.29422600  0.94497150  0.30517650  1
  H  1110  1  0.29431300  0.89240200  0.42265700  1
  H  1112  1  0.24031300  0.00063500  0.31347000  1
  H  1119  1  0.21374300  0.58085200  0.04772600  1
  H  1126  1  0.33209600  0.71656000  0.13185500  1
  H  1127  1  0.22158000  0.71827700  0.11387900  1
  H  1128  1  0.29418200  0.58802400  0.10431500  1
  H  1136  1  0.29416600  0.75803300  0.15685000  1
  H  1138  1  0.24028000  0.54063900  0.04864700  1
  H  1145  1  0.21384600  0.69461700  0.46841000  1
  H  1152  1  0.33218000  0.64310000  0.33270100  1
  H  1153  1  0.22175100  0.62318700  0.33096700  1
  H  1154  1  0.29425300  0.74405300  0.46124300  1
  H  1162  1  0.29432400  0.62652200  0.29122100  1
  H  1164  1  0.24033400  0.73577000  0.50862300  1
  C  1  1  0.74763600  0.57659400  0.44134100  1
  C  2  1  0.74128700  0.57460700  0.41569000  1
  C  3  1  0.73851600  0.54702000  0.39557000  1
  C  4  1  0.74487900  0.53083700  0.40775200  1
  C  5  1  0.74547900  0.50177300  0.39093100  1
  C  6  1  0.73867100  0.48881700  0.36196000  1
  C  7  1  0.72847100  0.50607700  0.35117500  1
  C  8  1  0.72960200  0.53503200  0.36746000  1
  C  9  1  0.73998900  0.59808300  0.41270900  1
  C  10  1  0.74593700  0.62411800  0.43607000  1
  C  11  1  0.75294700  0.62702200  0.46237700  1
  C  12  1  0.75266400  0.60297500  0.46499000  1
  C  13  1  0.71713200  0.54390200  0.45293000  1
  C  14  1  0.73014300  0.53647200  0.47184000  1
  C  15  1  0.76760800  0.53544300  0.47059700  1
  C  16  1  0.77969200  0.54252400  0.45115100  1
  C  17  1  0.79163000  0.52783900  0.48513800  1
  C  18  1  0.82895100  0.52810400  0.48050400  1
  C  19  1  0.84241800  0.53625300  0.46188000  1
  C  20  1  0.81750900  0.54291700  0.44665600  1
  C  21  1  0.67913700  0.54440100  0.44914500  1
  C  22  1  0.65500400  0.53766700  0.46469500  1
  C  23  1  0.66914000  0.53113000  0.48432200  1
  C  24  1  0.70672000  0.53040400  0.48794600  1
  C  37  1  0.74795900  0.54853600  0.43833900  1
  C  38  1  0.88066500  0.53713000  0.45924700  1
  C  39  1  0.61702000  0.53503400  0.45999400  1
  C  40  1  0.73974200  0.45930900  0.34502600  1
  C  41  1  0.75886400  0.65402100  0.48527600  1
  C  46  1  0.74750500  0.86216400  0.42136900  1
  C  47  1  0.74112600  0.83851000  0.42336600  1
  C  48  1  0.73837200  0.84599200  0.45095600  1
  C  49  1  0.74479500  0.87435000  0.46712900  1
  C  50  1  0.74546800  0.88659800  0.49619400  1
  C  51  1  0.73870300  0.87058600  0.50915800  1
  C  52  1  0.72850600  0.84253900  0.49191500  1
  C  53  1  0.72952900  0.82987200  0.46295900  1
  C  54  1  0.73992500  0.81204100  0.39989900  1
  C  55  1  0.74593500  0.80935400  0.37386600  1
  C  56  1  0.75291900  0.83275200  0.37095100  1
  C  57  1  0.75259700  0.85941800  0.39498800  1
  C  58  1  0.71701800  0.90645400  0.45406100  1
  C  59  1  0.73003700  0.93278500  0.46146200  1
  C  60  1  0.76750400  0.93255100  0.46241600  1
  C  61  1  0.77958900  0.90603800  0.45539000  1
  C  62  1  0.79153000  0.95467000  0.46990400  1
  C  63  1  0.82885300  0.94976200  0.46958500  1
  C  64  1  0.84232000  0.92300700  0.46152400  1
  C  65  1  0.81740900  0.90114600  0.45497800  1
  C  66  1  0.67902300  0.90219500  0.45361600  1
  C  67  1  0.65490400  0.92448300  0.46033500  1
  C  68  1  0.66904500  0.95063700  0.46685000  1
  C  69  1  0.70662500  0.95496300  0.46752800  1
  C  82  1  0.74784900  0.88722900  0.44942200  1
  C  83  1  0.88055800  0.91952400  0.46063600  1
  C  84  1  0.61699600  0.92253900  0.46314100  1
  C  85  1  0.73986400  0.88315900  0.53866700  1
  C  86  1  0.75884800  0.82864300  0.34395000  1
  C  91  1  0.74742800  0.55651200  0.13570700  1
  C  92  1  0.74106900  0.58215300  0.15937800  1
  C  93  1  0.73840800  0.60229900  0.15193900  1
  C  94  1  0.74480100  0.59013200  0.12357800  1
  C  95  1  0.74547600  0.60697200  0.11135600  1
  C  96  1  0.73872300  0.63594800  0.12738700  1
  C  97  1  0.72851300  0.64672500  0.15542600  1
  C  98  1  0.72954000  0.63041500  0.16807200  1
  C  99  1  0.73985800  0.58513100  0.18583600  1
  C  100  1  0.74578600  0.56175800  0.18849200  1
  C  101  1  0.75276700  0.53545400  0.16507800  1
  C  102  1  0.75246000  0.53285400  0.13842400  1
  C  103  1  0.71692800  0.54503800  0.09143400  1
  C  104  1  0.72989600  0.52614400  0.06507800  1
  C  105  1  0.76736600  0.52731200  0.06528400  1
  C  106  1  0.77949800  0.54669100  0.09182300  1
  C  107  1  0.79135900  0.51271500  0.04313700  1
  C  108  1  0.82869500  0.51722700  0.04803900  1
  C  109  1  0.84220800  0.53581100  0.07481700  1
  C  110  1  0.81733000  0.55107700  0.09671400  1
  C  111  1  0.67894100  0.54881100  0.09576400  1
  C  112  1  0.65477600  0.53329100  0.07349100  1
  C  113  1  0.66886100  0.51373500  0.04728800  1
  C  114  1  0.70643400  0.51011300  0.04290200  1
  C  127  1  0.74779100  0.55953900  0.11066500  1
  C  128  1  0.88046100  0.53828000  0.07833300  1
  C  129  1  0.61684600  0.53792900  0.07556800  1
  C  130  1  0.73986300  0.65289100  0.11482200  1
  C  131  1  0.75872100  0.51254700  0.16916100  1
  C  136  1  0.24741900  0.42026400  0.55756500  1
  C  137  1  0.24107300  0.42225400  0.58321600  1
  C  138  1  0.23830000  0.44984500  0.60333100  1
  C  139  1  0.24469700  0.46602100  0.59114500  1
  C  140  1  0.24536000  0.49508600  0.60797000  1
  C  141  1  0.23860100  0.50804500  0.63694600  1
  C  142  1  0.22843100  0.49079300  0.64774600  1
  C  143  1  0.22949800  0.46183900  0.63145900  1
  C  144  1  0.23983400  0.39878300  0.58620800  1
  C  145  1  0.24581100  0.37275000  0.56285200  1
  C  146  1  0.25280000  0.36984400  0.53654300  1
  C  147  1  0.25247400  0.39388500  0.53392100  1
  C  148  1  0.21686700  0.45294300  0.54598400  1
  C  149  1  0.22984100  0.46033900  0.52704000  1
  C  150  1  0.26730900  0.46130500  0.52820700  1
  C  151  1  0.27943700  0.45429900  0.54769900  1
  C  152  1  0.29129200  0.46884700  0.51359800  1
  C  153  1  0.32862400  0.46854700  0.51817300  1
  C  154  1  0.34214100  0.46047400  0.53684500  1
  C  155  1  0.31726700  0.45390800  0.55216500  1
  C  156  1  0.17888000  0.45247800  0.54981100  1
  C  157  1  0.15472000  0.45911500  0.53420100  1
  C  158  1  0.16881300  0.46557300  0.51451000  1
  C  159  1  0.20638700  0.46632000  0.51088300  1
  C  172  1  0.24773100  0.44831800  0.56055700  1
  C  173  1  0.38037800  0.45958900  0.53941400  1
  C  174  1  0.11676100  0.46175700  0.53888500  1
  C  175  1  0.23976400  0.53755200  0.65388600  1
  C  176  1  0.25876000  0.34285200  0.51364300  1
  C  181  1  0.24761400  0.13462000  0.57756000  1
  C  182  1  0.24116300  0.15828700  0.57560000  1
  C  183  1  0.23840300  0.15084400  0.54801500  1
  C  184  1  0.24492200  0.12250400  0.53181700  1
  C  185  1  0.24549600  0.11027600  0.50275400  1
  C  186  1  0.23865300  0.12630000  0.48981600  1
  C  187  1  0.22845300  0.15434100  0.50708700  1
  C  188  1  0.22950400  0.16698100  0.53604100  1
  C  189  1  0.23992400  0.18474100  0.59908400  1
  C  190  1  0.24592700  0.18739900  0.62510600  1
  C  191  1  0.25299300  0.16399000  0.62798700  1
  C  192  1  0.25271600  0.13733600  0.60392900  1
  C  193  1  0.21719000  0.09030700  0.54476700  1
  C  194  1  0.23024500  0.06392400  0.53712700  1
  C  195  1  0.26771100  0.06418600  0.53614600  1
  C  196  1  0.27975000  0.09078100  0.54343900  1
  C  197  1  0.29177600  0.04204400  0.52842200  1
  C  198  1  0.32909100  0.04701500  0.52879000  1
  C  199  1  0.34250800  0.07385800  0.53717800  1
  C  200  1  0.31755700  0.09574100  0.54393900  1
  C  201  1  0.17919000  0.09457800  0.54532700  1
  C  202  1  0.15509800  0.07226000  0.53854600  1
  C  203  1  0.16926400  0.04604800  0.53178300  1
  C  204  1  0.20685700  0.04170000  0.53094600  1
  C  217  1  0.24798700  0.10958300  0.54948700  1
  C  218  1  0.38076600  0.07747600  0.53823500  1
  C  219  1  0.11714700  0.07429300  0.53601800  1
  C  220  1  0.23973700  0.11373900  0.46030800  1
  C  221  1  0.25896100  0.16807400  0.65497600  1
  C  226  1  0.24758200  0.44024300  0.86311800  1
  C  227  1  0.24128000  0.41458700  0.83945200  1
  C  228  1  0.23850300  0.39446900  0.84692100  1
  C  229  1  0.24481100  0.40666100  0.87529300  1
  C  230  1  0.24542800  0.38984100  0.88753900  1
  C  231  1  0.23866600  0.36086400  0.87151700  1
  C  232  1  0.22850200  0.35007000  0.84346400  1
  C  233  1  0.22961300  0.36635700  0.83079800  1
  C  234  1  0.24002500  0.41159700  0.81298800  1
  C  235  1  0.24597100  0.43495900  0.81031700  1
  C  236  1  0.25293600  0.46127200  0.83372000  1
  C  237  1  0.25260700  0.46389200  0.86038400  1
  C  238  1  0.21698700  0.45181600  0.90736100  1
  C  239  1  0.22993600  0.47074700  0.93371600  1
  C  240  1  0.26740400  0.46955200  0.93354700  1
  C  241  1  0.27955200  0.45009700  0.90704400  1
  C  242  1  0.29137600  0.48413900  0.95571600  1
  C  243  1  0.32871100  0.47954100  0.95086700  1
  C  244  1  0.34224200  0.46089600  0.92411700  1
  C  245  1  0.31738100  0.44562800  0.90220600  1
  C  246  1  0.17900500  0.44797500  0.90303700  1
  C  247  1  0.15482100  0.46349000  0.92529500  1
  C  248  1  0.16888900  0.48313800  0.95147400  1
  C  249  1  0.20645800  0.48681000  0.95586700  1
  C  262  1  0.24786200  0.43725000  0.88817900  1
  C  263  1  0.38050800  0.45827200  0.92066800  1
  C  264  1  0.11686400  0.45870000  0.92317800  1
  C  265  1  0.23975600  0.34392700  0.88409000  1
  C  266  1  0.25885500  0.48416900  0.82961700  1
  C  271  1  0.92769800  0.54072800  0.49061700  1
  C  272  1  0.96139000  0.53300800  0.47683000  1
  C  274  1  0.98513200  0.52033000  0.50904300  1
  C  275  1  0.95162900  0.52716300  0.52348200  1
  C  276  1  0.92349000  0.53772400  0.51413800  1
  C  278  1  0.01610300  0.51209400  0.51828800  1
  C  279  1  0.05000700  0.52581100  0.52322000  1
  C  280  1  0.07859500  0.51723500  0.53415100  1
  C  281  1  0.07428700  0.49539300  0.53981400  1
  C  282  1  0.03981000  0.48270400  0.53452600  1
  C  297  1  0.92783100  0.94740700  0.45729300  1
  C  298  1  0.96139700  0.94138800  0.46522900  1
  C  300  1  0.98529600  0.98620200  0.47775300  1
  C  301  1  0.95191500  0.99375200  0.47069200  1
  C  302  1  0.92376400  0.97386000  0.46010500  1
  C  304  1  0.01628800  0.00366300  0.48601400  1
  C  305  1  0.05026500  0.99480600  0.47242800  1
  C  306  1  0.07883400  0.01432300  0.48094100  1
  C  307  1  0.07442000  0.04190600  0.50259400  1
  C  308  1  0.03989600  0.04937200  0.51518000  1
  C  323  1  0.92766700  0.50694800  0.05026800  1
  C  324  1  0.96122200  0.52092200  0.05633900  1
  C  326  1  0.98518600  0.48869500  0.01153700  1
  C  327  1  0.95180000  0.47409300  0.00391300  1
  C  328  1  0.92360900  0.48336500  0.02376900  1
  C  330  1  0.01620600  0.47952200  0.99411500  1
  C  331  1  0.05008600  0.47460800  0.00294500  1
  C  332  1  0.07869300  0.46364500  0.98346000  1
  C  333  1  0.07441700  0.45794200  0.95593700  1
  C  334  1  0.03998300  0.46327100  0.94851000  1
  C  349  1  0.42764900  0.45620900  0.50819200  1
  C  350  1  0.46131900  0.46384200  0.52202100  1
  C  352  1  0.48523200  0.47665200  0.48995200  1
  C  353  1  0.45174900  0.46992900  0.47549200  1
  C  354  1  0.42352600  0.45935800  0.48475000  1
  C  356  1  0.51627600  0.48486200  0.48076300  1
  C  357  1  0.55008200  0.47099900  0.47570300  1
  C  358  1  0.57872100  0.47953200  0.46477500  1
  C  359  1  0.57456200  0.50147900  0.45925000  1
  C  360  1  0.54018000  0.51432200  0.46467900  1
  C  375  1  0.42760000  0.04960400  0.54188500  1
  C  376  1  0.46130300  0.05566200  0.53417000  1
  C  378  1  0.48502600  0.01078300  0.52153600  1
  C  379  1  0.45151000  0.00317800  0.52835300  1
  C  380  1  0.42337300  0.02308700  0.53889700  1
  C  382  1  0.51600400  0.99331700  0.51334200  1
  C  383  1  0.54985600  0.00211500  0.52713800  1
  C  384  1  0.57847400  0.98264000  0.51858500  1
  C  385  1  0.57424400  0.95515100  0.49669000  1
  C  386  1  0.53981600  0.94773500  0.48392000  1
  C  401  1  0.42761900  0.48965500  0.94862400  1
  C  402  1  0.46115900  0.47567000  0.94267100  1
  C  404  1  0.48507500  0.50808200  0.98743600  1
  C  405  1  0.45171900  0.52272700  0.99492300  1
  C  406  1  0.42357400  0.51337300  0.97502200  1
  C  408  1  0.51605800  0.51729600  0.00490800  1
  C  409  1  0.55010300  0.52186700  0.99600900  1
  C  410  1  0.57867200  0.53287700  0.01552500  1
  C  411  1  0.57419600  0.53897000  0.04315400  1
  C  412  1  0.53961300  0.53399500  0.05066000  1
  C  427  1  0.75157300  0.45039500  0.29726300  1
  C  428  1  0.77887500  0.46940600  0.30025000  1
  C  430  1  0.76597900  0.46420800  0.25555200  1
  C  431  1  0.73955200  0.44370600  0.25071200  1
  C  432  1  0.73301000  0.43705300  0.27170700  1
  C  434  1  0.77270500  0.47446000  0.23704700  1
  C  435  1  0.80640800  0.48555300  0.23472400  1
  C  436  1  0.80817700  0.49775900  0.21778000  1
  C  437  1  0.77774700  0.49884700  0.20289800  1
  C  438  1  0.74527200  0.48701600  0.20565000  1
  C  453  1  0.75178200  0.84430700  0.54755100  1
  C  454  1  0.77905700  0.82827800  0.52851600  1
  C  456  1  0.76614200  0.78876100  0.53368000  1
  C  457  1  0.73973300  0.80442300  0.55419500  1
  C  458  1  0.73321000  0.83208000  0.56087600  1
  C  460  1  0.77282900  0.75999200  0.52337900  1
  C  461  1  0.80653100  0.74657200  0.51228300  1
  C  462  1  0.80829200  0.71741800  0.50006300  1
  C  463  1  0.77785100  0.70145700  0.49897200  1
  C  464  1  0.74537700  0.71603900  0.51078600  1
  C  479  1  0.75170100  0.70063400  0.15368900  1
  C  480  1  0.77899800  0.69763300  0.16970900  1
  C  482  1  0.76607800  0.74230200  0.20923100  1
  C  483  1  0.73964600  0.74715600  0.19358100  1
  C  484  1  0.73311500  0.72617800  0.16592300  1
  C  486  1  0.77278600  0.76077700  0.23799600  1
  C  487  1  0.80651700  0.76313400  0.25139700  1
  C  488  1  0.80829900  0.78005200  0.28055300  1
  C  489  1  0.77783700  0.79485200  0.29652400  1
  C  490  1  0.74533600  0.79207500  0.28196400  1
  C  505  1  0.25165100  0.54642800  0.70162300  1
  C  506  1  0.27896200  0.52741700  0.69862000  1
  C  508  1  0.26610500  0.53258800  0.74330900  1
  C  509  1  0.23969100  0.55310500  0.74817500  1
  C  510  1  0.23312200  0.55977000  0.72719100  1
  C  512  1  0.27282600  0.52229800  0.76178300  1
  C  513  1  0.30653100  0.51119600  0.76409100  1
  C  514  1  0.30830500  0.49894600  0.78099700  1
  C  515  1  0.27785900  0.49781500  0.79583400  1
  C  516  1  0.24537900  0.50964400  0.79309400  1
  C  531  1  0.25161000  0.15260200  0.45143000  1
  C  532  1  0.27890500  0.16862200  0.47045400  1
  C  534  1  0.26601600  0.20813200  0.46527400  1
  C  535  1  0.23959000  0.19247600  0.44476700  1
  C  536  1  0.23304900  0.16482400  0.43809700  1
  C  538  1  0.27273900  0.23688800  0.47553800  1
  C  539  1  0.30645200  0.25029800  0.48661000  1
  C  540  1  0.30822100  0.27945200  0.49883200  1
  C  541  1  0.27778000  0.29542300  0.49994900  1
  C  542  1  0.24529500  0.28084600  0.48814200  1
  C  557  1  0.25169200  0.29618500  0.84524500  1
  C  558  1  0.27898400  0.29919100  0.82922700  1
  C  560  1  0.26611100  0.25449700  0.78971300  1
  C  561  1  0.23969300  0.24964000  0.80536700  1
  C  562  1  0.23313800  0.27062500  0.83301700  1
  C  564  1  0.27282600  0.23602000  0.76094900  1
  C  565  1  0.30652600  0.23372000  0.74753800  1
  C  566  1  0.30831300  0.21676800  0.71838600  1
  C  567  1  0.27789500  0.20185700  0.70241600  1
  C  568  1  0.24541900  0.20460700  0.71699000  1
  C  583  1  0.74763600  0.00386600  0.06548810  1
  C  584  1  0.74128700  0.00187900  0.03983710  1
  C  585  1  0.73851600  0.97429150  0.01971660  1
  C  586  1  0.74487900  0.95810850  0.03189860  1
  C  587  1  0.74547900  0.92904450  0.01507760  1
  C  588  1  0.73867100  0.91608850  0.98610660  1
  C  589  1  0.72847100  0.93334850  0.97532160  1
  C  590  1  0.72960200  0.96230350  0.99160660  1
  C  591  1  0.73998900  0.02535500  0.03685610  1
  C  592  1  0.74593700  0.05139000  0.06021706  1
  C  593  1  0.75294700  0.05429400  0.08652410  1
  C  594  1  0.75266400  0.03024700  0.08913710  1
  C  595  1  0.71713200  0.97117350  0.07707650  1
  C  596  1  0.73014300  0.96374350  0.09598650  1
  C  597  1  0.76760800  0.96271450  0.09474350  1
  C  598  1  0.77969200  0.96979550  0.07529750  1
  C  599  1  0.79163000  0.95511050  0.10928450  1
  C  600  1  0.82895100  0.95537550  0.10465050  1
  C  601  1  0.84241800  0.96352450  0.08602650  1
  C  602  1  0.81750900  0.97018850  0.07080250  1
  C  603  1  0.67913700  0.97167250  0.07329150  1
  C  604  1  0.65500400  0.96493850  0.08884150  1
  C  605  1  0.66914000  0.95840150  0.10846850  1
  C  606  1  0.70672000  0.95767550  0.11209250  1
  C  619  1  0.74795900  0.97580750  0.06248560  1
  C  620  1  0.88066500  0.96440150  0.08339350  1
  C  621  1  0.61702000  0.96230550  0.08414050  1
  C  622  1  0.73974200  0.88658100  0.96917310  1
  C  623  1  0.75886400  0.08129300  0.10942310  1
  C  628  1  0.74750500  0.28943600  0.04551600  1
  C  629  1  0.74112600  0.26578200  0.04751300  1
  C  630  1  0.73837200  0.27326400  0.07510300  1
  C  631  1  0.74479500  0.30162200  0.09127600  1
  C  632  1  0.74546800  0.31387000  0.12034100  1
  C  633  1  0.73870300  0.29785800  0.13330500  1
  C  634  1  0.72850600  0.26981100  0.11606200  1
  C  635  1  0.72952900  0.25714400  0.08710600  1
  C  636  1  0.73992500  0.23931300  0.02404600  1
  C  637  1  0.74593500  0.23662600  0.99801300  1
  C  638  1  0.75291900  0.26002400  0.99509800  1
  C  639  1  0.75259700  0.28669000  0.01913500  1
  C  640  1  0.71701800  0.33372600  0.07820800  1
  C  641  1  0.73003700  0.36005700  0.08560900  1
  C  642  1  0.76750400  0.35982300  0.08656300  1
  C  643  1  0.77958900  0.33333333  0.07956033  1
  C  644  1  0.79153000  0.38194200  0.09405100  1
  C  645  1  0.82885300  0.37703400  0.09373200  1
  C  646  1  0.84232000  0.35027900  0.08567100  1
  C  647  1  0.81740900  0.32841800  0.07912500  1
  C  648  1  0.67902300  0.32946700  0.07776300  1
  C  649  1  0.65490400  0.35175500  0.08448200  1
  C  650  1  0.66904500  0.37790900  0.09099700  1
  C  651  1  0.70662500  0.38223500  0.09167500  1
  C  664  1  0.74784900  0.31450100  0.07356900  1
  C  665  1  0.88055800  0.34679600  0.08478300  1
  C  666  1  0.61699600  0.34981100  0.08728800  1
  C  667  1  0.73986400  0.31043100  0.16281400  1
  C  668  1  0.75884800  0.25591500  0.96809700  1
  C  673  1  0.74742800  0.98378350  0.75985350  1
  C  674  1  0.74106900  0.00942500  0.78352500  1
  C  675  1  0.73840800  0.02957100  0.77608600  1
  C  676  1  0.74480100  0.01740400  0.74772500  1
  C  677  1  0.74547600  0.03424400  0.73550300  1
  C  678  1  0.73872300  0.06322000  0.75153400  1
  C  679  1  0.72851300  0.07399700  0.77957300  1
  C  680  1  0.72954000  0.05768700  0.79221900  1
  C  681  1  0.73985800  0.01240300  0.80998300  1
  C  682  1  0.74578600  0.98902950  0.81263850  1
  C  683  1  0.75276700  0.96272550  0.78922450  1
  C  684  1  0.75246000  0.96012550  0.76257050  1
  C  685  1  0.71692800  0.97230950  0.71558050  1
  C  686  1  0.72989600  0.95341550  0.68922450  1
  C  687  1  0.76736600  0.95458350  0.68943050  1
  C  688  1  0.77949800  0.97396250  0.71596950  1
  C  689  1  0.79135900  0.93998650  0.66728350  1
  C  690  1  0.82869500  0.94449850  0.67218550  1
  C  691  1  0.84220800  0.96308250  0.69896350  1
  C  692  1  0.81733000  0.97834850  0.72086050  1
  C  693  1  0.67894100  0.97608250  0.71991050  1
  C  694  1  0.65477600  0.96056250  0.69763750  1
  C  695  1  0.66886100  0.94100650  0.67143450  1
  C  696  1  0.70643400  0.93738450  0.66704850  1
  C  709  1  0.74779100  0.98681050  0.73481150  1
  C  710  1  0.88046100  0.96555150  0.70247950  1
  C  711  1  0.61684600  0.96520050  0.69971450  1
  C  712  1  0.73986300  0.08016300  0.73896900  1
  C  713  1  0.75872100  0.93981850  0.79330750  1
  C  718  1  0.24741900  0.84753600  0.18171200  1
  C  719  1  0.24107300  0.84952600  0.20736300  1
  C  720  1  0.23830000  0.87711700  0.22747800  1
  C  721  1  0.24469700  0.89329300  0.21529200  1
  C  722  1  0.24536000  0.92235750  0.23211650  1
  C  723  1  0.23860100  0.93531650  0.26109250  1
  C  724  1  0.22843100  0.91806450  0.27189250  1
  C  725  1  0.22949800  0.88911100  0.25560600  1
  C  726  1  0.23983400  0.82605500  0.21035500  1
  C  727  1  0.24581100  0.80002200  0.18699900  1
  C  728  1  0.25280000  0.79711600  0.16069000  1
  C  729  1  0.25247400  0.82115700  0.15806800  1
  C  730  1  0.21686700  0.88021500  0.17013100  1
  C  731  1  0.22984100  0.88761100  0.15118700  1
  C  732  1  0.26730900  0.88857700  0.15235400  1
  C  733  1  0.27943700  0.88157100  0.17184600  1
  C  734  1  0.29129200  0.89611900  0.13774500  1
  C  735  1  0.32862400  0.89581900  0.14232000  1
  C  736  1  0.34214100  0.88774600  0.16099200  1
  C  737  1  0.31726700  0.88118000  0.17631200  1
  C  738  1  0.17888000  0.87975000  0.17395800  1
  C  739  1  0.15472000  0.88638700  0.15834800  1
  C  740  1  0.16881300  0.89284500  0.13865700  1
  C  741  1  0.20638700  0.89359200  0.13503000  1
  C  754  1  0.24773100  0.87559000  0.18470400  1
  C  755  1  0.38037800  0.88686100  0.16356100  1
  C  756  1  0.11676100  0.88902900  0.16303200  1
  C  757  1  0.23976400  0.96482350  0.27803250  1
  C  758  1  0.25876000  0.77012400  0.13779000  1
  C  763  1  0.24761400  0.56189200  0.20170700  1
  C  764  1  0.24116300  0.58555900  0.19974700  1
  C  765  1  0.23840300  0.57811600  0.17216200  1
  C  766  1  0.24492200  0.54977600  0.15596400  1
  C  767  1  0.24549600  0.53754800  0.12690100  1
  C  768  1  0.23865300  0.55357200  0.11396300  1
  C  769  1  0.22845300  0.58161300  0.13123400  1
  C  770  1  0.22950400  0.59425300  0.16018800  1
  C  771  1  0.23992400  0.61201300  0.22323100  1
  C  772  1  0.24592700  0.61467100  0.24925300  1
  C  773  1  0.25299300  0.59126200  0.25213400  1
  C  774  1  0.25271600  0.56460800  0.22807600  1
  C  775  1  0.21719000  0.51757900  0.16891400  1
  C  776  1  0.23024500  0.49119600  0.16127400  1
  C  777  1  0.26771100  0.49145800  0.16029300  1
  C  778  1  0.27975000  0.51805300  0.16758600  1
  C  779  1  0.29177600  0.46931600  0.15256900  1
  C  780  1  0.32909100  0.47428700  0.15293700  1
  C  781  1  0.34250800  0.50113000  0.16132500  1
  C  782  1  0.31755700  0.52301300  0.16808600  1
  C  783  1  0.17919000  0.52185000  0.16947400  1
  C  784  1  0.15509800  0.49953200  0.16269300  1
  C  785  1  0.16926400  0.47332000  0.15593000  1
  C  786  1  0.20685700  0.46897200  0.15509300  1
  C  799  1  0.24798700  0.53685500  0.17363400  1
  C  800  1  0.38076600  0.50474800  0.16238200  1
  C  801  1  0.11714700  0.50156500  0.16016500  1
  C  802  1  0.23973700  0.54101100  0.08445500  1
  C  803  1  0.25896100  0.59534600  0.27912300  1
  C  808  1  0.24758200  0.86751500  0.48726500  1
  C  809  1  0.24128000  0.84185900  0.46359900  1
  C  810  1  0.23850300  0.82174100  0.47106800  1
  C  811  1  0.24481100  0.83393300  0.49944000  1
  C  812  1  0.24542800  0.81711300  0.51168600  1
  C  813  1  0.23866600  0.78813600  0.49566400  1
  C  814  1  0.22850200  0.77734200  0.46761100  1
  C  815  1  0.22961300  0.79362900  0.45494500  1
  C  816  1  0.24002500  0.83886900  0.43713500  1
  C  817  1  0.24597100  0.86223100  0.43446400  1
  C  818  1  0.25293600  0.88854400  0.45786700  1
  C  819  1  0.25260700  0.89116400  0.48453100  1
  C  820  1  0.21698700  0.87908800  0.53150800  1
  C  821  1  0.22993600  0.89801900  0.55786300  1
  C  822  1  0.26740400  0.89682400  0.55769400  1
  C  823  1  0.27955200  0.87736900  0.53119100  1
  C  824  1  0.29137600  0.91141050  0.57986250  1
  C  825  1  0.32871100  0.90681250  0.57501350  1
  C  826  1  0.34224200  0.88816800  0.54826400  1
  C  827  1  0.31738100  0.87290000  0.52635300  1
  C  828  1  0.17900500  0.87524700  0.52718400  1
  C  829  1  0.15482100  0.89076200  0.54944200  1
  C  830  1  0.16888900  0.91040950  0.57562050  1
  C  831  1  0.20645800  0.91408150  0.58001350  1
  C  844  1  0.24786200  0.86452200  0.51232600  1
  C  845  1  0.38050800  0.88554400  0.54481500  1
  C  846  1  0.11686400  0.88597200  0.54732500  1
  C  847  1  0.23975600  0.77119900  0.50823700  1
  C  848  1  0.25885500  0.91144050  0.45376350  1
  C  853  1  0.92769800  0.96799950  0.11476350  1
  C  854  1  0.96139000  0.96027950  0.10097650  1
  C  856  1  0.98513200  0.94760150  0.13318950  1
  C  857  1  0.95162900  0.95443450  0.14762850  1
  C  858  1  0.92349000  0.96499550  0.13828450  1
  C  860  1  0.01610300  0.93936550  0.14243450  1
  C  861  1  0.05000700  0.95308250  0.14736650  1
  C  862  1  0.07859500  0.94450650  0.15829750  1
  C  863  1  0.07428700  0.92266450  0.16396050  1
  C  864  1  0.03981000  0.90997550  0.15867250  1
  C  879  1  0.92783100  0.37467900  0.08144000  1
  C  880  1  0.96139700  0.36866000  0.08937600  1
  C  882  1  0.98529600  0.41347400  0.10190000  1
  C  883  1  0.95191500  0.42102400  0.09483900  1
  C  884  1  0.92376400  0.40113200  0.08425200  1
  C  886  1  0.01628800  0.43093500  0.11016100  1
  C  887  1  0.05026500  0.42207800  0.09657500  1
  C  888  1  0.07883400  0.44159500  0.10508800  1
  C  889  1  0.07442000  0.46917800  0.12674100  1
  C  890  1  0.03989600  0.47664400  0.13932700  1
  C  905  1  0.92766700  0.93421950  0.67441450  1
  C  906  1  0.96122200  0.94819350  0.68048550  1
  C  908  1  0.98518600  0.91596650  0.63568350  1
  C  909  1  0.95180000  0.90136450  0.62805950  1
  C  910  1  0.92360900  0.91063650  0.64791550  1
  C  912  1  0.01620600  0.90679350  0.61826150  1
  C  913  1  0.05008600  0.90187950  0.62709150  1
  C  914  1  0.07869300  0.89091700  0.60760700  1
  C  915  1  0.07441700  0.88521400  0.58008400  1
  C  916  1  0.03998300  0.89054300  0.57265700  1
  C  931  1  0.42764900  0.88348100  0.13233900  1
  C  932  1  0.46131900  0.89111400  0.14616800  1
  C  934  1  0.48523200  0.90392350  0.11409850  1
  C  935  1  0.45174900  0.89720100  0.09963900  1
  C  936  1  0.42352600  0.88663000  0.10889700  1
  C  938  1  0.51627600  0.91213350  0.10490950  1
  C  939  1  0.55008200  0.89827100  0.09985000  1
  C  940  1  0.57872100  0.90680350  0.08892150  1
  C  941  1  0.57456200  0.92875050  0.08339650  1
  C  942  1  0.54018000  0.94159350  0.08882550  1
  C  957  1  0.42760000  0.47687600  0.16603200  1
  C  958  1  0.46130300  0.48293400  0.15831700  1
  C  960  1  0.48502600  0.43805500  0.14568300  1
  C  961  1  0.45151000  0.43045000  0.15250000  1
  C  962  1  0.42337300  0.45035900  0.16304400  1
  C  964  1  0.51600400  0.42058900  0.13748900  1
  C  965  1  0.54985600  0.42938700  0.15128500  1
  C  966  1  0.57847400  0.40991200  0.14273200  1
  C  967  1  0.57424400  0.38242300  0.12083700  1
  C  968  1  0.53981600  0.37500700  0.10806700  1
  C  983  1  0.42761900  0.91692650  0.57277050  1
  C  984  1  0.46115900  0.90294150  0.56681750  1
  C  986  1  0.48507500  0.93535350  0.61158250  1
  C  987  1  0.45171900  0.94999850  0.61906950  1
  C  988  1  0.42357400  0.94064450  0.59916850  1
  C  990  1  0.51605800  0.94456750  0.62905450  1
  C  991  1  0.55010300  0.94913850  0.62015550  1
  C  992  1  0.57867200  0.96014850  0.63967150  1
  C  993  1  0.57419600  0.96624150  0.66730050  1
  C  994  1  0.53961300  0.96126650  0.67480650  1
  C  1009  1  0.75157300  0.87766700  0.92141010  1
  C  1010  1  0.77887500  0.89667800  0.92439710  1
  C  1012  1  0.76597900  0.89148000  0.87969900  1
  C  1013  1  0.73955200  0.87097800  0.87485906  1
  C  1014  1  0.73301000  0.86432500  0.89585410  1
  C  1016  1  0.77270500  0.90173150  0.86119350  1
  C  1017  1  0.80640800  0.91282450  0.85887050  1
  C  1018  1  0.80817700  0.92503050  0.84192650  1
  C  1019  1  0.77774700  0.92611850  0.82704450  1
  C  1020  1  0.74527200  0.91428750  0.82979650  1
  C  1035  1  0.75178200  0.27157900  0.17169800  1
  C  1036  1  0.77905700  0.25555000  0.15266300  1
  C  1038  1  0.76614200  0.21603300  0.15782700  1
  C  1039  1  0.73973300  0.23169500  0.17834200  1
  C  1040  1  0.73321000  0.25935200  0.18502300  1
  C  1042  1  0.77282900  0.18726400  0.14752600  1
  C  1043  1  0.80653100  0.17384400  0.13643000  1
  C  1044  1  0.80829200  0.14469000  0.12421000  1
  C  1045  1  0.77785100  0.12872900  0.12311900  1
  C  1046  1  0.74537700  0.14331100  0.13493300  1
  C  1061  1  0.75170100  0.12790600  0.77783600  1
  C  1062  1  0.77899800  0.12490500  0.79385600  1
  C  1064  1  0.76607800  0.16957400  0.83337800  1
  C  1065  1  0.73964600  0.17442800  0.81772800  1
  C  1066  1  0.73311500  0.15345000  0.79007000  1
  C  1068  1  0.77278600  0.18804900  0.86214300  1
  C  1069  1  0.80651700  0.19040600  0.87554400  1
  C  1070  1  0.80829900  0.20732400  0.90470000  1
  C  1071  1  0.77783700  0.22212400  0.92067100  1
  C  1072  1  0.74533600  0.21934700  0.90611100  1
  C  1087  1  0.25165100  0.97369950  0.32576950  1
  C  1088  1  0.27896200  0.95468850  0.32276650  1
  C  1090  1  0.26610500  0.95985950  0.36745550  1
  C  1091  1  0.23969100  0.98037650  0.37232150  1
  C  1092  1  0.23312200  0.98704150  0.35133750  1
  C  1094  1  0.27282600  0.94956950  0.38592950  1
  C  1095  1  0.30653100  0.93846750  0.38823750  1
  C  1096  1  0.30830500  0.92621750  0.40514350  1
  C  1097  1  0.27785900  0.92508650  0.41998050  1
  C  1098  1  0.24537900  0.93691550  0.41724050  1
  C  1113  1  0.25161000  0.57987400  0.07557700  1
  C  1114  1  0.27890500  0.59589400  0.09460100  1
  C  1116  1  0.26601600  0.63540400  0.08942100  1
  C  1117  1  0.23959000  0.61974800  0.06891400  1
  C  1118  1  0.23304900  0.59209600  0.06224400  1
  C  1120  1  0.27273900  0.66416000  0.09968500  1
  C  1121  1  0.30645200  0.67757000  0.11075700  1
  C  1122  1  0.30822100  0.70672400  0.12297900  1
  C  1123  1  0.27778000  0.72269500  0.12409600  1
  C  1124  1  0.24529500  0.70811800  0.11228900  1
  C  1139  1  0.25169200  0.72345700  0.46939200  1
  C  1140  1  0.27898400  0.72646300  0.45337400  1
  C  1142  1  0.26611100  0.68176900  0.41386000  1
  C  1143  1  0.23969300  0.67691200  0.42951400  1
  C  1144  1  0.23313800  0.69789700  0.45716400  1
  C  1146  1  0.27282600  0.66329200  0.38509600  1
  C  1147  1  0.30652600  0.66099200  0.37168500  1
  C  1148  1  0.30831300  0.64404000  0.34253300  1
  C  1149  1  0.27789500  0.62912900  0.32656300  1
  C  1150  1  0.24541900  0.63187900  0.34113700  1
  N  273  1  0.98842300  0.52368400  0.48659900  1
  N  283  1  0.01257200  0.49146200  0.52439000  1
  N  287  1  0.05425800  0.54831700  0.51852500  1
  N  288  1  0.94739100  0.52470600  0.54735100  1
  N  293  1  0.10308600  0.48798300  0.55042900  1
  N  295  1  0.90019300  0.55217400  0.48302000  1
  N  299  1  0.98846000  0.96045900  0.47456100  1
  N  309  1  0.01268000  0.03046400  0.50647600  1
  N  313  1  0.05460100  0.96752700  0.45008400  1
  N  314  1  0.94781200  0.02000100  0.47294900  1
  N  319  1  0.10311100  0.06001400  0.50987800  1
  N  321  1  0.90029900  0.92843100  0.44583300  1
  N  325  1  0.98832300  0.51121300  0.03730400  1
  N  335  1  0.01271300  0.47340100  0.96737300  1
  N  339  1  0.05428300  0.47933500  0.03016000  1
  N  340  1  0.94772900  0.45016000  0.97761700  1
  N  345  1  0.10317000  0.44720900  0.93786100  1
  N  347  1  0.90005800  0.51451700  0.06919900  1
  N  351  1  0.48843800  0.47316900  0.51232500  1
  N  361  1  0.51288500  0.50559200  0.47478900  1
  N  365  1  0.55417500  0.44839300  0.48025900  1
  N  366  1  0.44759600  0.47251700  0.45169200  1
  N  371  1  0.60338900  0.50881900  0.44860300  1
  N  373  1  0.40005000  0.44476300  0.51569600  1
  N  377  1  0.48833400  0.03657200  0.52487300  1
  N  387  1  0.51254300  0.96660000  0.49265700  1
  N  391  1  0.55402600  0.02930000  0.54969200  1
  N  392  1  0.44726200  0.97685500  0.52589500  1
  N  397  1  0.60309300  0.93716900  0.48926900  1
  N  399  1  0.40008500  0.06864500  0.55327200  1
  N  403  1  0.48821500  0.48545200  0.96174600  1
  N  413  1  0.51239900  0.52377900  0.03174900  1
  N  417  1  0.55450900  0.51677000  0.96868000  1
  N  418  1  0.44763400  0.54679100  0.02112000  1
  N  423  1  0.60287800  0.54980300  0.06129000  1
  N  425  1  0.40007400  0.48207300  0.92964900  1
  N  429  1  0.78423900  0.47578900  0.28005600  1
  N  439  1  0.74404700  0.47609300  0.22250700  1
  N  443  1  0.83744700  0.48445500  0.24909600  1
  N  444  1  0.72094300  0.42970200  0.22514000  1
  N  449  1  0.77880400  0.51517600  0.19090600  1
  N  451  1  0.74385600  0.44328800  0.31699300  1
  N  455  1  0.78439800  0.80169100  0.52210600  1
  N  465  1  0.74416900  0.74382600  0.52175200  1
  N  469  1  0.83758000  0.76204000  0.51340300  1
  N  470  1  0.72110900  0.79283800  0.56817600  1
  N  475  1  0.77895500  0.67313600  0.48265500  1
  N  477  1  0.74409100  0.87115100  0.55468100  1
  N  481  1  0.78436000  0.71781000  0.19629200  1
  N  491  1  0.74411700  0.77528000  0.25417400  1
  N  495  1  0.83757600  0.74883800  0.23590500  1
  N  496  1  0.72101600  0.77271800  0.20517400  1
  N  501  1  0.77895300  0.80690900  0.32485000  1
  N  503  1  0.74399200  0.68092300  0.12684600  1
  N  507  1  0.28434100  0.52101500  0.71879800  1
  N  517  1  0.24416400  0.52064900  0.77630900  1
  N  521  1  0.33757500  0.51234200  0.74975200  1
  N  522  1  0.22111600  0.56710500  0.77375900  1
  N  527  1  0.27897000  0.48154300  0.80789000  1
  N  529  1  0.24393600  0.55356400  0.68191500  1
  N  533  1  0.28427000  0.19520200  0.47684900  1
  N  543  1  0.24406900  0.25306300  0.47720400  1
  N  547  1  0.33749900  0.23482000  0.48547100  1
  N  548  1  0.22098000  0.20405700  0.43077400  1
  N  553  1  0.27884000  0.32374100  0.51627900  1
  N  555  1  0.24390100  0.12575800  0.44430000  1
  N  559  1  0.28434900  0.27901000  0.80264600  1
  N  569  1  0.24418900  0.22144200  0.74477400  1
  N  573  1  0.33755300  0.24811100  0.76301100  1
  N  574  1  0.22109100  0.22406500  0.79378900  1
  N  579  1  0.27901600  0.18983800  0.67409300  1
  N  581  1  0.24397400  0.31590400  0.87208400  1
  N  855  1  0.98842300  0.95095550  0.11074550  1
  N  865  1  0.01257200  0.91873350  0.14853650  1
  N  869  1  0.05425800  0.97558850  0.14267150  1
  N  870  1  0.94739100  0.95197750  0.17149750  1
  N  875  1  0.10308600  0.91525450  0.17457550  1
  N  877  1  0.90019300  0.97944550  0.10716650  1
  N  881  1  0.98846000  0.38773100  0.09870800  1
  N  891  1  0.01268000  0.45773600  0.13062300  1
  N  895  1  0.05460100  0.39479900  0.07423100  1
  N  896  1  0.94781200  0.44727300  0.09709600  1
  N  901  1  0.10311100  0.48728600  0.13402500  1
  N  903  1  0.90029900  0.35570300  0.06998000  1
  N  907  1  0.98832300  0.93848450  0.66145050  1
  N  917  1  0.01271300  0.90067250  0.59151950  1
  N  921  1  0.05428300  0.90660650  0.65430650  1
  N  922  1  0.94772900  0.87743200  0.60176400  1
  N  927  1  0.10317000  0.87448100  0.56200800  1
  N  929  1  0.90005800  0.94178850  0.69334550  1
  N  933  1  0.48843800  0.90044050  0.13647150  1
  N  943  1  0.51288500  0.93286350  0.09893550  1
  N  947  1  0.55417500  0.87566500  0.10440600  1
  N  948  1  0.44759600  0.89978900  0.07583900  1
  N  953  1  0.60338900  0.93609050  0.07274950  1
  N  955  1  0.40005000  0.87203500  0.13984300  1
  N  959  1  0.48833400  0.46384400  0.14902000  1
  N  969  1  0.51254300  0.39387200  0.11680400  1
  N  973  1  0.55402600  0.45657200  0.17383900  1
  N  974  1  0.44726200  0.40412700  0.15004200  1
  N  979  1  0.60309300  0.36444100  0.11341600  1
  N  981  1  0.40008500  0.49591700  0.17741900  1
  N  985  1  0.48821500  0.91272350  0.58589250  1
  N  995  1  0.51239900  0.95105050  0.65589550  1
  N  999  1  0.55450900  0.94404150  0.59282650  1
  N  1000  1  0.44763400  0.97406250  0.64526650  1
  N  1005  1  0.60287800  0.97707450  0.68543650  1
  N  1007  1  0.40007400  0.90934450  0.55379550  1
  N  1011  1  0.78423900  0.90306050  0.90420256  1
  N  1021  1  0.74404700  0.90336450  0.84665350  1
  N  1025  1  0.83744700  0.91172650  0.87324250  1
  N  1026  1  0.72094300  0.85697400  0.84928700  1
  N  1031  1  0.77880400  0.94244750  0.81505250  1
  N  1033  1  0.74385600  0.87056000  0.94114010  1
  N  1037  1  0.78439800  0.22896300  0.14625300  1
  N  1047  1  0.74416900  0.17109800  0.14589900  1
  N  1051  1  0.83758000  0.18931200  0.13755000  1
  N  1052  1  0.72110900  0.22011000  0.19232300  1
  N  1057  1  0.77895500  0.10040800  0.10680206  1
  N  1059  1  0.74409100  0.29842300  0.17882800  1
  N  1063  1  0.78436000  0.14508200  0.82043900  1
  N  1073  1  0.74411700  0.20255200  0.87832100  1
  N  1077  1  0.83757600  0.17611000  0.86005200  1
  N  1078  1  0.72101600  0.19999000  0.82932100  1
  N  1083  1  0.77895300  0.23418100  0.94899700  1
  N  1085  1  0.74399200  0.10819500  0.75099300  1
  N  1089  1  0.28434100  0.94828650  0.34294450  1
  N  1099  1  0.24416400  0.94792050  0.40045550  1
  N  1103  1  0.33757500  0.93961350  0.37389850  1
  N  1104  1  0.22111600  0.99437654  0.39790554  1
  N  1109  1  0.27897000  0.90881450  0.43203650  1
  N  1111  1  0.24393600  0.98083550  0.30606150  1
  N  1115  1  0.28427000  0.62247400  0.10099600  1
  N  1125  1  0.24406900  0.68033500  0.10135100  1
  N  1129  1  0.33749900  0.66209200  0.10961800  1
  N  1130  1  0.22098000  0.63132900  0.05492100  1
  N  1135  1  0.27884000  0.75101300  0.14042600  1
  N  1137  1  0.24390100  0.55303000  0.06844700  1
  N  1141  1  0.28434900  0.70628200  0.42679300  1
  N  1151  1  0.24418900  0.64871400  0.36892100  1
  N  1155  1  0.33755300  0.67538300  0.38715800  1
  N  1156  1  0.22109100  0.65133700  0.41793600  1
  N  1161  1  0.27901600  0.61711000  0.29824000  1
  N  1163  1  0.24397400  0.74317600  0.49623100  1
  O  42  1  0.59792600  0.55665300  0.47962900  1
  O  43  1  0.89516400  0.51394500  0.43804300  1
  O  44  1  0.73383600  0.44482500  0.35819500  1
  O  45  1  0.74229900  0.66079400  0.50947800  1
  O  87  1  0.59755400  0.92057400  0.44165200  1
  O  88  1  0.89509500  0.92129400  0.48372400  1
  O  89  1  0.73408600  0.91082900  0.55317000  1
  O  90  1  0.74222000  0.84603000  0.33714800  1
  O  132  1  0.59735900  0.51839200  0.07746500  1
  O  133  1  0.89466500  0.55948500  0.07618800  1
  O  134  1  0.73398200  0.63973900  0.08716400  1
  O  135  1  0.74207400  0.48836800  0.15176700  1
  O  177  1  0.09732500  0.44026000  0.51940900  1
  O  178  1  0.39497600  0.48263900  0.56074500  1
  O  179  1  0.23388000  0.55205200  0.64072900  1
  O  180  1  0.24212400  0.33605800  0.48945700  1
  O  222  1  0.09774000  0.07616300  0.55747300  1
  O  223  1  0.39511400  0.07525100  0.51490400  1
  O  224  1  0.23393400  0.08607200  0.44580200  1
  O  225  1  0.24235500  0.15066700  0.66175900  1
  O  267  1  0.09787900  0.47849400  0.92137700  1
  O  268  1  0.39491900  0.43701500  0.92259900  1
  O  269  1  0.23392600  0.35709500  0.91175300  1
  O  270  1  0.24225500  0.50836400  0.84702200  1
  O  289  1  0.07893700  0.54372700  0.50121800  1
  O  290  1  0.92211600  0.50829800  0.54429700  1
  O  291  1  0.94092900  0.54767700  0.56841800  1
  O  292  1  0.06157400  0.57026400  0.54051600  1
  O  315  1  0.07922800  0.95493200  0.45489300  1
  O  316  1  0.92244500  0.03343900  0.48920800  1
  O  317  1  0.94158600  0.01794600  0.44988300  1
  O  318  1  0.06204600  0.96737100  0.42805900  1
  O  341  1  0.07896200  0.49664200  0.04288400  1
  O  342  1  0.92241300  0.45304900  0.96418500  1
  O  343  1  0.94144300  0.42910700  0.97958500  1
  O  344  1  0.06156500  0.45735700  0.03015200  1
  O  367  1  0.57889500  0.45280200  0.49748900  1
  O  368  1  0.42239300  0.48899700  0.45480400  1
  O  369  1  0.44109000  0.44960400  0.43056000  1
  O  370  1  0.56132500  0.42647400  0.45819600  1
  O  393  1  0.57871800  0.04206900  0.54518700  1
  O  394  1  0.42200200  0.96349900  0.50947000  1
  O  395  1  0.44076700  0.97875800  0.54886200  1
  O  396  1  0.56126500  0.02921200  0.57162700  1
  O  419  1  0.57906900  0.49927700  0.95615800  1
  O  420  1  0.42224100  0.54406400  0.03459700  1
  O  421  1  0.44146200  0.56774700  0.01895600  1
  O  422  1  0.56210200  0.53855100  0.96839100  1
  O  445  1  0.84901400  0.50824700  0.26584100  1
  O  446  1  0.68718800  0.43322800  0.22831000  1
  O  447  1  0.72748400  0.40421500  0.21271500  1
  O  448  1  0.86265500  0.47086100  0.23274800  1
  O  471  1  0.84916300  0.75500500  0.48962000  1
  O  472  1  0.68735700  0.79249900  0.56464900  1
  O  473  1  0.72765300  0.80587500  0.59366300  1
  O  474  1  0.86277400  0.75927200  0.52700200  1
  O  497  1  0.84924900  0.73209400  0.24291800  1
  O  498  1  0.68726700  0.76952500  0.20552200  1
  O  499  1  0.72753600  0.78517200  0.19213800  1
  O  500  1  0.86271100  0.76524600  0.23867400  1
  O  523  1  0.34916600  0.48856900  0.73298600  1
  O  524  1  0.18735800  0.56359300  0.77061000  1
  O  525  1  0.22767300  0.59259100  0.78619000  1
  O  526  1  0.36276700  0.52593300  0.76612600  1
  O  549  1  0.34911400  0.24185100  0.50924700  1
  O  550  1  0.18722800  0.20441000  0.43430100  1
  O  551  1  0.22752100  0.19100700  0.40528700  1
  O  552  1  0.36267500  0.23758300  0.47185700  1
  O  575  1  0.34909800  0.26485900  0.75596200  1
  O  576  1  0.18733700  0.22722800  0.79342700  1
  O  577  1  0.22763800  0.21163000  0.80684000  1
  O  578  1  0.36278100  0.23177900  0.76026600  1
  O  624  1  0.59792600  0.98392450  0.10377550  1
  O  625  1  0.89516400  0.94121650  0.06218950  1
  O  626  1  0.73383600  0.87209700  0.98234200  1
  O  627  1  0.74229900  0.08806600  0.13362510  1
  O  669  1  0.59755400  0.34784600  0.06579900  1
  O  670  1  0.89509500  0.34856600  0.10787100  1
  O  671  1  0.73408600  0.33810100  0.17731700  1
  O  672  1  0.74222000  0.27330200  0.96129500  1
  O  714  1  0.59735900  0.94566350  0.70161150  1
  O  715  1  0.89466500  0.98675650  0.70033450  1
  O  716  1  0.73398200  0.06701100  0.71131100  1
  O  717  1  0.74207400  0.91563950  0.77591350  1
  O  759  1  0.09732500  0.86753200  0.14355600  1
  O  760  1  0.39497600  0.90991050  0.18489150  1
  O  761  1  0.23388000  0.97932350  0.26487550  1
  O  762  1  0.24212400  0.76333000  0.11360400  1
  O  804  1  0.09774000  0.50343500  0.18162000  1
  O  805  1  0.39511400  0.50252300  0.13905100  1
  O  806  1  0.23393400  0.51334400  0.06994900  1
  O  807  1  0.24235500  0.57793900  0.28590600  1
  O  849  1  0.09787900  0.90576550  0.54552350  1
  O  850  1  0.39491900  0.86428700  0.54674600  1
  O  851  1  0.23392600  0.78436700  0.53590000  1
  O  852  1  0.24225500  0.93563550  0.47116850  1
  O  871  1  0.07893700  0.97099850  0.12536450  1
  O  872  1  0.92211600  0.93556950  0.16844350  1
  O  873  1  0.94092900  0.97494850  0.19256450  1
  O  874  1  0.06157400  0.99753554  0.16466254  1
  O  897  1  0.07922800  0.38220400  0.07904000  1
  O  898  1  0.92244500  0.46071100  0.11335500  1
  O  899  1  0.94158600  0.44521800  0.07403000  1
  O  900  1  0.06204600  0.39464300  0.05220600  1
  O  923  1  0.07896200  0.92391350  0.66703050  1
  O  924  1  0.92241300  0.88032100  0.58833200  1
  O  925  1  0.94144300  0.85637900  0.60373200  1
  O  926  1  0.06156500  0.88462900  0.65429900  1
  O  949  1  0.57889500  0.88007400  0.12163600  1
  O  950  1  0.42239300  0.91626850  0.07895050  1
  O  951  1  0.44109000  0.87687600  0.05470700  1
  O  952  1  0.56132500  0.85374600  0.08234300  1
  O  975  1  0.57871800  0.46934100  0.16933400  1
  O  976  1  0.42200200  0.39077100  0.13361700  1
  O  977  1  0.44076700  0.40603000  0.17300900  1
  O  978  1  0.56126500  0.45648400  0.19577400  1
  O  1001  1  0.57906900  0.92654850  0.58030450  1
  O  1002  1  0.42224100  0.97133550  0.65874350  1
  O  1003  1  0.44146200  0.99501854  0.64310254  1
  O  1004  1  0.56210200  0.96582250  0.59253750  1
  O  1027  1  0.84901400  0.93551850  0.88998750  1
  O  1028  1  0.68718800  0.86050000  0.85245700  1
  O  1029  1  0.72748400  0.83148700  0.83686206  1
  O  1030  1  0.86265500  0.89813300  0.85689500  1
  O  1053  1  0.84916300  0.18227700  0.11376700  1
  O  1054  1  0.68735700  0.21977100  0.18879600  1
  O  1055  1  0.72765300  0.23314700  0.21781000  1
  O  1056  1  0.86277400  0.18654400  0.15114900  1
  O  1079  1  0.84924900  0.15936600  0.86706500  1
  O  1080  1  0.68726700  0.19679700  0.82966900  1
  O  1081  1  0.72753600  0.21244400  0.81628500  1
  O  1082  1  0.86271100  0.19251800  0.86282100  1
  O  1105  1  0.34916600  0.91584050  0.35713250  1
  O  1106  1  0.18735800  0.99086454  0.39475654  1
  O  1107  1  0.22767300  0.01986300  0.41033700  1
  O  1108  1  0.36276700  0.95320450  0.39027250  1
  O  1131  1  0.34911400  0.66912300  0.13339400  1
  O  1132  1  0.18722800  0.63168200  0.05844800  1
  O  1133  1  0.22752100  0.61827900  0.02943400  1
  O  1134  1  0.36267500  0.66485500  0.09600400  1
  O  1157  1  0.34909800  0.69213100  0.38010900  1
  O  1158  1  0.18733700  0.65450000  0.41757400  1
  O  1159  1  0.22763800  0.63890200  0.43098700  1
  O  1160  1  0.36278100  0.65905100  0.38441300  1
