# generated using pymatgen
data_H11C16(N2O)3
_symmetry_space_group_name_H-M   'P 1'
_cell_length_a   22.61670000
_cell_length_b   61.47890000
_cell_length_c   61.47890000
_cell_angle_alpha   90.00000000
_cell_angle_beta   90.00000000
_cell_angle_gamma   90.00000000
_symmetry_Int_Tables_number   1
_chemical_formula_structural   H11C16(N2O)3
_chemical_formula_sum   'H352 C512 N192 O96'
_cell_volume   85483.32652267
_cell_formula_units_Z   32
loop_
 _symmetry_equiv_pos_site_id
 _symmetry_equiv_pos_as_xyz
  1  'x, y, z'
loop_
 _atom_site_type_symbol
 _atom_site_label
 _atom_site_symmetry_multiplicity
 _atom_site_fract_x
 _atom_site_fract_y
 _atom_site_fract_z
 _atom_site_occupancy
  C  1  1  0.28504600  0.08471700  0.98689300  1
  C  2  1  0.33145800  0.07001500  0.99150600  1
  C  3  1  0.38681600  0.07074000  0.98081500  1
  C  4  1  0.39783300  0.08872600  0.96666900  1
  C  5  1  0.35002700  0.10245500  0.96005000  1
  C  6  1  0.29322000  0.10053600  0.97013500  1
  C  9  1  0.23178000  0.08312600  0.99921500  1
  C  10  1  0.19624500  0.06393900  0.00103600  1
  C  11  1  0.14530000  0.06404200  0.01504500  1
  C  12  1  0.12987300  0.08339200  0.02680000  1
  C  13  1  0.16863500  0.10162000  0.02618100  1
  C  14  1  0.21744000  0.10144400  0.01203700  1
  C  27  1  0.15907700  0.12087300  0.03852300  1
  C  28  1  0.10992700  0.04503100  0.01742300  1
  C  29  1  0.42603400  0.05261500  0.98252800  1
  C  30  1  0.35814600  0.11580600  0.94122900  1
  C  35  1  0.78508800  0.41775600  0.01553000  1
  C  36  1  0.83150000  0.43245700  0.01091000  1
  C  37  1  0.88684400  0.43174300  0.02161300  1
  C  38  1  0.89788000  0.41375200  0.03575100  1
  C  39  1  0.85008800  0.40000600  0.04235500  1
  C  40  1  0.79328000  0.40193000  0.03227900  1
  C  43  1  0.73185000  0.41933300  0.00319100  1
  C  44  1  0.69622000  0.43850000  0.00140300  1
  C  45  1  0.64524400  0.43837500  0.98740900  1
  C  46  1  0.62983200  0.41902200  0.97565000  1
  C  47  1  0.66862500  0.40080100  0.97628500  1
  C  48  1  0.71748700  0.40099800  0.99040000  1
  C  61  1  0.65912300  0.38153900  0.96395100  1
  C  62  1  0.60982400  0.45737500  0.98503900  1
  C  63  1  0.92603600  0.44987500  0.01990900  1
  C  64  1  0.85822800  0.38667600  0.06118900  1
  C  69  1  0.53523200  0.26556100  0.83482800  1
  C  70  1  0.58168000  0.26092900  0.82014500  1
  C  71  1  0.63700600  0.27164600  0.82084900  1
  C  72  1  0.64791400  0.28586100  0.83878700  1
  C  73  1  0.60010400  0.29247100  0.85251600  1
  C  74  1  0.54333700  0.28235400  0.85061400  1
  C  77  1  0.48204600  0.25319300  0.83326200  1
  C  78  1  0.44646200  0.25136100  0.81408800  1
  C  79  1  0.39558700  0.23732100  0.81421000  1
  C  80  1  0.38017000  0.22559500  0.83357600  1
  C  81  1  0.41890100  0.22627100  0.85181000  1
  C  82  1  0.46770700  0.24041300  0.85161000  1
  C  95  1  0.40933000  0.21394000  0.87106300  1
  C  96  1  0.36028200  0.23487100  0.79519500  1
  C  97  1  0.67619400  0.26990900  0.80271800  1
  C  98  1  0.60817600  0.31130900  0.86584900  1
  C  103  1  0.03507900  0.23691900  0.16760900  1
  C  104  1  0.08151900  0.24154600  0.18229300  1
  C  105  1  0.13682800  0.23081900  0.18159600  1
  C  106  1  0.14775700  0.21661400  0.16365100  1
  C  107  1  0.09993900  0.20999900  0.14992400  1
  C  108  1  0.04318800  0.22012900  0.15181700  1
  C  111  1  0.98187100  0.24927700  0.16917800  1
  C  112  1  0.94636000  0.25114800  0.18836700  1
  C  113  1  0.89552400  0.26520700  0.18825200  1
  C  114  1  0.88011000  0.27692600  0.16888400  1
  C  115  1  0.91881600  0.27623600  0.15064300  1
  C  116  1  0.96757600  0.26207400  0.15083700  1
  C  129  1  0.90924400  0.28857400  0.13139200  1
  C  130  1  0.86026200  0.26767900  0.20727300  1
  C  131  1  0.17607800  0.23258400  0.19970400  1
  C  132  1  0.10800400  0.19115300  0.13660000  1
  C  137  1  0.71653600  0.91859400  0.01650000  1
  C  138  1  0.66882000  0.93288300  0.01239400  1
  C  139  1  0.61427200  0.93150200  0.02359200  1
  C  140  1  0.60600800  0.91348800  0.03799700  1
  C  141  1  0.65550800  0.90045400  0.04427100  1
  C  142  1  0.71112400  0.90284800  0.03347600  1
  C  145  1  0.76798500  0.92013900  0.00321100  1
  C  146  1  0.80386100  0.93918400  0.00101200  1
  C  147  1  0.85398200  0.93871300  0.98668400  1
  C  148  1  0.86899200  0.91910900  0.97529400  1
  C  149  1  0.82957600  0.90109300  0.97610800  1
  C  150  1  0.78117000  0.90165100  0.99043400  1
  C  163  1  0.83835800  0.88173200  0.96383000  1
  C  164  1  0.89013800  0.95745100  0.98400600  1
  C  165  1  0.57177200  0.94857000  0.02157500  1
  C  166  1  0.64987800  0.88696200  0.06310100  1
  C  171  1  0.21660900  0.58387500  0.98601200  1
  C  172  1  0.16885600  0.56960900  0.99014200  1
  C  173  1  0.11431300  0.57099300  0.97894100  1
  C  174  1  0.10606100  0.58900700  0.96453600  1
  C  175  1  0.15557500  0.60203300  0.95825600  1
  C  176  1  0.21120700  0.59961600  0.96903400  1
  C  179  1  0.26805300  0.58232800  0.99930600  1
  C  180  1  0.30393700  0.56328300  0.00149000  1
  C  181  1  0.35409900  0.56376100  0.01580000  1
  C  182  1  0.36915500  0.58336300  0.02718600  1
  C  183  1  0.32975500  0.60138700  0.02636300  1
  C  184  1  0.28130900  0.60082600  0.01205400  1
  C  197  1  0.33855900  0.62075300  0.03864100  1
  C  198  1  0.39028100  0.54503300  0.01847000  1
  C  199  1  0.07180400  0.55392800  0.98095500  1
  C  200  1  0.14995600  0.61551100  0.93941400  1
  C  205  1  0.46946200  0.73633400  0.16755000  1
  C  206  1  0.42311600  0.74091100  0.18230000  1
  C  207  1  0.36772800  0.73023300  0.18160100  1
  C  208  1  0.35663500  0.71609000  0.16362200  1
  C  209  1  0.40428000  0.70958000  0.14977200  1
  C  210  1  0.46106600  0.71968900  0.15162300  1
  C  213  1  0.52287400  0.74856400  0.16925600  1
  C  214  1  0.55828400  0.75017800  0.18850100  1
  C  215  1  0.60931600  0.76413700  0.18857500  1
  C  216  1  0.62521900  0.77592200  0.16930000  1
  C  217  1  0.58664200  0.77552200  0.15101600  1
  C  218  1  0.53757200  0.76149200  0.15104600  1
  C  231  1  0.59662200  0.78806300  0.13191000  1
  C  232  1  0.64426700  0.76649200  0.20769200  1
  C  233  1  0.32871100  0.73192000  0.19978600  1
  C  234  1  0.39615000  0.69074100  0.13644900  1
  C  239  1  0.96942900  0.76616900  0.83493400  1
  C  240  1  0.92311400  0.76159300  0.82017400  1
  C  241  1  0.86773600  0.77227300  0.82086200  1
  C  242  1  0.85658400  0.78639200  0.83885700  1
  C  243  1  0.90421600  0.79292600  0.85270600  1
  C  244  1  0.96101500  0.78282200  0.85085200  1
  C  247  1  0.02285000  0.75394000  0.83325400  1
  C  248  1  0.05829300  0.75228800  0.81402400  1
  C  249  1  0.10931100  0.73831900  0.81398700  1
  C  250  1  0.12508500  0.72653600  0.83327500  1
  C  251  1  0.08640900  0.72694200  0.85153100  1
  C  252  1  0.03738800  0.74099400  0.85147000  1
  C  265  1  0.09619700  0.71440500  0.87065200  1
  C  266  1  0.14434500  0.73595400  0.79489400  1
  C  267  1  0.82866200  0.77056700  0.80269700  1
  C  268  1  0.89600100  0.81174500  0.86604900  1
  C  273  1  0.78548600  0.58485000  0.48651000  1
  C  274  1  0.83171600  0.57006100  0.49111000  1
  C  275  1  0.88713600  0.57070800  0.48045600  1
  C  276  1  0.89841200  0.58867500  0.46631100  1
  C  277  1  0.85084000  0.60253500  0.45974300  1
  C  278  1  0.79401000  0.60073500  0.46983500  1
  C  281  1  0.73205000  0.58323800  0.49874000  1
  C  282  1  0.69653800  0.56402800  0.50046900  1
  C  283  1  0.64557600  0.56405700  0.51446400  1
  C  284  1  0.62989700  0.58338700  0.52619200  1
  C  285  1  0.66865200  0.60161800  0.52572700  1
  C  286  1  0.71761300  0.60149400  0.51164600  1
  C  299  1  0.65900800  0.62076100  0.53825000  1
  C  300  1  0.61050400  0.54498700  0.51695300  1
  C  301  1  0.92614200  0.55252300  0.48220800  1
  C  302  1  0.85911200  0.61585100  0.44090600  1
  C  307  1  0.28559400  0.91761800  0.51592000  1
  C  308  1  0.33182600  0.93240200  0.51130900  1
  C  309  1  0.38723000  0.93176900  0.52197600  1
  C  310  1  0.39852300  0.91380600  0.53612400  1
  C  311  1  0.35096600  0.89992500  0.54267300  1
  C  312  1  0.29413900  0.90172400  0.53258600  1
  C  315  1  0.23217300  0.91922900  0.50368200  1
  C  316  1  0.19658900  0.93842500  0.50200700  1
  C  317  1  0.14558100  0.93839400  0.48803300  1
  C  318  1  0.12988500  0.91907300  0.47628600  1
  C  319  1  0.16864400  0.90083900  0.47675200  1
  C  320  1  0.21766900  0.90096600  0.49080100  1
  C  333  1  0.15900200  0.88169100  0.46423600  1
  C  334  1  0.11045900  0.95745900  0.48558800  1
  C  335  1  0.42621000  0.94996200  0.52022100  1
  C  336  1  0.35924700  0.88663800  0.56152900  1
  C  341  1  0.03855600  0.76623500  0.33383300  1
  C  342  1  0.08626300  0.76211200  0.31954200  1
  C  343  1  0.14078000  0.77333500  0.32088300  1
  C  344  1  0.14901400  0.78778800  0.33885900  1
  C  345  1  0.09955000  0.79405600  0.35190900  1
  C  346  1  0.04395300  0.78324300  0.34954400  1
  C  349  1  0.98716000  0.75291200  0.33233000  1
  C  350  1  0.95122600  0.75068700  0.31330100  1
  C  351  1  0.90116600  0.73633300  0.31380700  1
  C  352  1  0.88613600  0.72500700  0.33344500  1
  C  353  1  0.92554100  0.72588000  0.35146100  1
  C  354  1  0.97397600  0.74019100  0.35085700  1
  C  367  1  0.91673800  0.71363000  0.37083500  1
  C  368  1  0.86508200  0.73358700  0.29506400  1
  C  369  1  0.18321300  0.77130700  0.30379500  1
  C  370  1  0.10519200  0.81288900  0.36540000  1
  C  375  1  0.53848600  0.73625000  0.66863800  1
  C  376  1  0.58615800  0.74036500  0.68294800  1
  C  377  1  0.64067200  0.72914000  0.68162100  1
  C  378  1  0.64895600  0.71470200  0.66363400  1
  C  379  1  0.59951200  0.70843200  0.65057000  1
  C  380  1  0.54391800  0.71925200  0.65291900  1
  C  383  1  0.48706900  0.74956300  0.67013400  1
  C  384  1  0.45109100  0.75178500  0.68915200  1
  C  385  1  0.40101200  0.76613100  0.68863200  1
  C  386  1  0.38608900  0.77748200  0.66899900  1
  C  387  1  0.42558800  0.77664200  0.65100900  1
  C  388  1  0.47399600  0.76231900  0.65162100  1
  C  401  1  0.41684100  0.78890300  0.63163600  1
  C  402  1  0.36476100  0.76883200  0.70733100  1
  C  403  1  0.68310100  0.73117600  0.69871000  1
  C  404  1  0.60517200  0.68959800  0.63708200  1
  C  409  1  0.21606400  0.41842300  0.51689600  1
  C  410  1  0.16853900  0.43280100  0.51277300  1
  C  411  1  0.11388000  0.43149800  0.52390800  1
  C  412  1  0.10528500  0.41349600  0.53830400  1
  C  413  1  0.15453500  0.40032600  0.54455600  1
  C  414  1  0.21023400  0.40260800  0.53379100  1
  C  417  1  0.26774300  0.41999000  0.50371800  1
  C  418  1  0.30358000  0.43906300  0.50160200  1
  C  419  1  0.35377800  0.43865600  0.48731000  1
  C  420  1  0.36905500  0.41906900  0.47595500  1
  C  421  1  0.32965400  0.40104700  0.47662400  1
  C  422  1  0.28107000  0.40155300  0.49087900  1
  C  435  1  0.33853200  0.38179300  0.46417200  1
  C  436  1  0.38965000  0.45744700  0.48452700  1
  C  437  1  0.07161500  0.44863900  0.52184300  1
  C  438  1  0.14865600  0.38686000  0.56339500  1
  C  443  1  0.71603200  0.08405800  0.48565000  1
  C  444  1  0.66846200  0.06970200  0.48977300  1
  C  445  1  0.61383200  0.07101400  0.47862100  1
  C  446  1  0.60528200  0.08901800  0.46422600  1
  C  447  1  0.65456200  0.10218400  0.45799100  1
  C  448  1  0.71024900  0.09987800  0.46875600  1
  C  451  1  0.76770200  0.08245700  0.49882800  1
  C  452  1  0.80346400  0.06336300  0.50091300  1
  C  453  1  0.85366000  0.06372300  0.51520300  1
  C  454  1  0.86916200  0.08330500  0.52653000  1
  C  455  1  0.82990000  0.10137200  0.52585400  1
  C  456  1  0.78122300  0.10089400  0.51163900  1
  C  469  1  0.83895600  0.12062600  0.53829500  1
  C  470  1  0.88935400  0.04487900  0.51796200  1
  C  471  1  0.57155200  0.05387700  0.48067200  1
  C  472  1  0.64875000  0.11563200  0.43913800  1
  C  477  1  0.96599400  0.23566600  0.66851100  1
  C  478  1  0.91837800  0.23974100  0.68286200  1
  C  479  1  0.86376200  0.22858600  0.68149900  1
  C  480  1  0.85531800  0.21422600  0.66346400  1
  C  481  1  0.90462300  0.20804200  0.65029500  1
  C  482  1  0.96029000  0.21881300  0.65264500  1
  C  485  1  0.01765900  0.24884000  0.67018100  1
  C  486  1  0.05334600  0.25084700  0.68930200  1
  C  487  1  0.10356800  0.26512800  0.68902000  1
  C  488  1  0.11914600  0.27652400  0.66948700  1
  C  489  1  0.07999400  0.27590600  0.65138800  1
  C  490  1  0.03129400  0.26170100  0.65179100  1
  C  503  1  0.08928800  0.28835900  0.63216200  1
  C  504  1  0.13924500  0.26776800  0.70788400  1
  C  505  1  0.82147800  0.23057000  0.69864200  1
  C  506  1  0.89885300  0.18923700  0.63677800  1
  C  511  1  0.46593800  0.26683600  0.33394100  1
  C  512  1  0.41842000  0.26276300  0.31954700  1
  C  513  1  0.36378900  0.27391200  0.32087300  1
  C  514  1  0.35520200  0.28823900  0.33892500  1
  C  515  1  0.40443100  0.29444300  0.35212700  1
  C  516  1  0.46012800  0.28368600  0.34980800  1
  C  519  1  0.51762200  0.25366900  0.33232200  1
  C  520  1  0.55350200  0.25166200  0.31325100  1
  C  521  1  0.60375200  0.23739700  0.31360700  1
  C  522  1  0.61907300  0.22597700  0.33315300  1
  C  523  1  0.57966800  0.22655900  0.35118100  1
  C  524  1  0.53099400  0.24077400  0.35071600  1
  C  537  1  0.58866600  0.21409800  0.37042200  1
  C  538  1  0.63973400  0.23479100  0.29482500  1
  C  539  1  0.32157200  0.27193100  0.30370900  1
  C  540  1  0.39851500  0.31323100  0.36565600  1
  C  545  1  0.05140000  0.01594400  0.00044100  1
  C  546  1  0.06021500  0.99753100  0.01428200  1
  C  547  1  0.01812700  0.97996700  0.01452800  1
  C  548  1  0.96772200  0.98041300  0.00038700  1
  C  549  1  0.96319000  0.99798700  0.98564100  1
  C  550  1  0.00423900  0.01500700  0.98542300  1
  C  551  1  0.03296600  0.96177700  0.02784500  1
  C  553  1  0.12258500  0.97792100  0.03884300  1
  C  564  1  0.55127800  0.48644500  0.00200200  1
  C  565  1  0.56009200  0.50485000  0.98815100  1
  C  566  1  0.51800400  0.52241500  0.98789700  1
  C  567  1  0.46759400  0.52197400  0.00203600  1
  C  568  1  0.46299000  0.50438500  0.01675800  1
  C  569  1  0.50403400  0.48736700  0.01698700  1
  C  570  1  0.53287600  0.54060800  0.97459000  1
  C  572  1  0.62249600  0.52445800  0.96360100  1
  C  583  1  0.30125900  0.25173500  0.76619200  1
  C  584  1  0.31023900  0.23793500  0.74775900  1
  C  585  1  0.26804500  0.23759100  0.73023100  1
  C  586  1  0.21732500  0.25157300  0.73074200  1
  C  587  1  0.21256900  0.26627400  0.74834600  1
  C  588  1  0.25375100  0.26661200  0.76532000  1
  C  589  1  0.28305100  0.22434400  0.71200900  1
  C  591  1  0.37304700  0.21360500  0.72805700  1
  C  602  1  0.80125200  0.25086500  0.23632200  1
  C  603  1  0.81022800  0.26469700  0.25473000  1
  C  604  1  0.76806900  0.26506200  0.27227100  1
  C  605  1  0.71741800  0.25104200  0.27180200  1
  C  606  1  0.71265400  0.23631400  0.25422200  1
  C  607  1  0.75377400  0.23597900  0.23722900  1
  C  608  1  0.78307800  0.27835100  0.29046100  1
  C  610  1  0.87299200  0.28909800  0.27437100  1
  C  621  1  0.95420200  0.48471800  0.00368200  1
  C  622  1  0.95939200  0.49923200  0.02176600  1
  C  623  1  0.99655000  0.51818300  0.02043800  1
  C  624  1  0.02664800  0.52328500  0.00057800  1
  C  625  1  0.01688400  0.50944500  0.98254600  1
  C  626  1  0.98087200  0.49100000  0.98390900  1
  C  627  1  0.99630800  0.53213600  0.03895500  1
  C  629  1  0.92767600  0.50988400  0.05731300  1
  C  640  1  0.45416000  0.01776300  0.99878500  1
  C  641  1  0.45939000  0.00324100  0.98071100  1
  C  642  1  0.49649100  0.98427800  0.98207100  1
  C  643  1  0.52654400  0.97918300  0.00194100  1
  C  644  1  0.51668000  0.99301900  0.01997200  1
  C  645  1  0.48069300  0.01147300  0.01858100  1
  C  646  1  0.49641200  0.97033800  0.96354600  1
  C  648  1  0.42781600  0.99257500  0.94514900  1
  C  659  1  0.70424400  0.25352800  0.76788300  1
  C  660  1  0.70936400  0.27156000  0.75330400  1
  C  661  1  0.74632800  0.27015300  0.73430700  1
  C  662  1  0.77639900  0.25027600  0.72925000  1
  C  663  1  0.76669000  0.23229000  0.74315800  1
  C  664  1  0.73075200  0.23371600  0.76162300  1
  C  665  1  0.74603200  0.28862300  0.72029600  1
  C  667  1  0.67766200  0.30708800  0.74256400  1
  C  678  1  0.20423300  0.24897500  0.23450500  1
  C  679  1  0.20932800  0.23095400  0.24910000  1
  C  680  1  0.24641000  0.23235600  0.26806600  1
  C  681  1  0.27651200  0.25223000  0.27310500  1
  C  682  1  0.26673900  0.27022300  0.25921300  1
  C  683  1  0.23088900  0.26877200  0.24072700  1
  C  684  1  0.24612200  0.21389300  0.28208900  1
  C  686  1  0.17745100  0.19547400  0.25990600  1
  C  697  1  0.70297600  0.74955800  0.23674300  1
  C  698  1  0.69404800  0.76339100  0.25515300  1
  C  699  1  0.73623200  0.76373900  0.27268400  1
  C  700  1  0.78687400  0.74971400  0.27220200  1
  C  701  1  0.79150300  0.73495200  0.25464700  1
  C  702  1  0.75035200  0.73463000  0.23766000  1
  C  703  1  0.72128800  0.77703900  0.29087600  1
  C  705  1  0.63141400  0.78783800  0.27478900  1
  C  716  1  0.20308300  0.75282900  0.76582700  1
  C  717  1  0.19418700  0.73895500  0.74744400  1
  C  718  1  0.23635900  0.73859200  0.72990800  1
  C  719  1  0.28695100  0.75264200  0.73035700  1
  C  720  1  0.29163300  0.76740300  0.74791100  1
  C  721  1  0.25050000  0.76774000  0.76490000  1
  C  722  1  0.22141600  0.72526900  0.71173500  1
  C  724  1  0.13159100  0.71445800  0.72785300  1
  C  735  1  0.30067200  0.74829900  0.23461200  1
  C  736  1  0.29553700  0.73027400  0.24919900  1
  C  737  1  0.25853700  0.73169200  0.26818500  1
  C  738  1  0.22847300  0.75157000  0.27323400  1
  C  739  1  0.23826600  0.76955900  0.25933600  1
  C  740  1  0.27418300  0.76811700  0.24086800  1
  C  741  1  0.25873400  0.71321700  0.28219100  1
  C  743  1  0.32726200  0.69476400  0.25997200  1
  C  754  1  0.80062000  0.75420500  0.76786000  1
  C  755  1  0.79548200  0.77222500  0.75326500  1
  C  756  1  0.75845200  0.77080600  0.73428600  1
  C  757  1  0.72836000  0.75092600  0.72925700  1
  C  758  1  0.73815000  0.73294300  0.74316300  1
  C  759  1  0.77408200  0.73439200  0.76162600  1
  C  760  1  0.75868600  0.78927400  0.72027200  1
  C  762  1  0.82721400  0.80772900  0.74247800  1
  C  773  1  0.55152600  0.51589300  0.50023500  1
  C  774  1  0.56046600  0.49754300  0.51414900  1
  C  775  1  0.51818600  0.48004500  0.51463400  1
  C  776  1  0.46744600  0.48048900  0.50065500  1
  C  777  1  0.46266600  0.49802300  0.48587400  1
  C  778  1  0.50390200  0.51497400  0.48541400  1
  C  779  1  0.53323400  0.46188200  0.52795900  1
  C  781  1  0.62327200  0.47797200  0.53858500  1
  C  792  1  0.05161600  0.98655200  0.50234000  1
  C  793  1  0.06058800  0.00491400  0.48844700  1
  C  794  1  0.01834400  0.02242200  0.48798500  1
  C  795  1  0.96756800  0.02196300  0.50194300  1
  C  796  1  0.96283200  0.00444100  0.51674500  1
  C  797  1  0.00405900  0.98748200  0.51718900  1
  C  798  1  0.03333300  0.04057500  0.47464300  1
  C  800  1  0.12339600  0.02449900  0.46402100  1
  C  811  1  0.45420000  0.98473800  0.50379300  1
  C  812  1  0.45931500  0.99936800  0.52178400  1
  C  813  1  0.49635000  0.01834300  0.52033500  1
  C  814  1  0.52649800  0.02332800  0.50045600  1
  C  815  1  0.51682600  0.00936200  0.48251000  1
  C  816  1  0.48081200  0.99092100  0.48397800  1
  C  817  1  0.49604000  0.03241000  0.53876400  1
  C  819  1  0.42755400  0.01022200  0.55726800  1
  C  830  1  0.95423200  0.51776200  0.49866100  1
  C  831  1  0.95946300  0.50313400  0.48067200  1
  C  832  1  0.99658200  0.48418100  0.48213800  1
  C  833  1  0.02659900  0.47918900  0.50204100  1
  C  834  1  0.01672100  0.49312100  0.51999600  1
  C  835  1  0.98082800  0.51159000  0.51848400  1
  C  836  1  0.99641800  0.47012200  0.46370200  1
  C  838  1  0.92780500  0.49225400  0.44518700  1
  C  849  1  0.36033900  0.15087800  0.92326500  1
  C  850  1  0.33247900  0.14796100  0.90265100  1
  C  851  1  0.34916100  0.16133700  0.88454100  1
  C  852  1  0.39107900  0.17846100  0.88747200  1
  C  853  1  0.41641700  0.18144600  0.90825500  1
  C  854  1  0.40133100  0.16796700  0.92578300  1
  C  855  1  0.32054100  0.15682600  0.86444000  1
  C  857  1  0.26268100  0.12918000  0.88036100  1
  C  868  1  0.86048300  0.35163100  0.07917900  1
  C  869  1  0.83253000  0.35453600  0.09977900  1
  C  870  1  0.84918800  0.34117100  0.11790000  1
  C  871  1  0.89119000  0.32406900  0.11499400  1
  C  872  1  0.91665800  0.32110700  0.09422800  1
  C  873  1  0.90158600  0.33457300  0.07669000  1
  C  874  1  0.82045000  0.34566700  0.13798100  1
  C  876  1  0.76255100  0.37328100  0.12202300  1
  C  887  1  0.61023900  0.32932100  0.90089300  1
  C  888  1  0.58228200  0.34991900  0.89796700  1
  C  889  1  0.59884000  0.36804000  0.91135000  1
  C  890  1  0.64075800  0.36514300  0.92848000  1
  C  891  1  0.66620000  0.34437700  0.93146800  1
  C  892  1  0.65120200  0.32683400  0.91799500  1
  C  893  1  0.57008700  0.38811700  0.90685000  1
  C  895  1  0.51238600  0.37216000  0.87917800  1
  C  906  1  0.11008900  0.17313100  0.10155400  1
  C  907  1  0.08206600  0.15254700  0.10447500  1
  C  908  1  0.09859500  0.13441600  0.09110100  1
  C  909  1  0.14056800  0.13729000  0.07398400  1
  C  910  1  0.16609000  0.15804500  0.07100400  1
  C  911  1  0.15112200  0.17559500  0.08447200  1
  C  912  1  0.06976500  0.11435300  0.09560000  1
  C  914  1  0.01204400  0.13034300  0.12324600  1
  C  925  1  0.64770400  0.85160600  0.08043900  1
  C  926  1  0.67619400  0.85406900  0.10098900  1
  C  927  1  0.65945900  0.84051800  0.11896400  1
  C  928  1  0.61676500  0.82366000  0.11594600  1
  C  929  1  0.59073600  0.82114500  0.09521300  1
  C  930  1  0.60592600  0.83479200  0.07782700  1
  C  931  1  0.68881800  0.84460400  0.13901200  1
  C  933  1  0.74726600  0.87218700  0.12326400  1
  C  944  1  0.14772200  0.65087400  0.92208300  1
  C  945  1  0.17602400  0.64838900  0.90150000  1
  C  946  1  0.15918200  0.66194000  0.88353900  1
  C  947  1  0.11660000  0.67882700  0.88660200  1
  C  948  1  0.09081700  0.68138200  0.90737200  1
  C  949  1  0.10607600  0.66772500  0.92474200  1
  C  950  1  0.18829700  0.65781800  0.86345100  1
  C  952  1  0.24678600  0.63021200  0.87913800  1
  C  963  1  0.39190800  0.67289000  0.10135300  1
  C  964  1  0.42026900  0.65232600  0.10393900  1
  C  965  1  0.40278600  0.63419000  0.09073200  1
  C  966  1  0.35957800  0.63706100  0.07402200  1
  C  967  1  0.33370700  0.65780300  0.07136100  1
  C  968  1  0.34955600  0.67534100  0.08471000  1
  C  969  1  0.43194900  0.61413600  0.09499500  1
  C  971  1  0.49180800  0.63018100  0.12198500  1
  C  982  1  0.89195600  0.82960200  0.90113200  1
  C  983  1  0.92006800  0.85020600  0.89850400  1
  C  984  1  0.90243600  0.86832900  0.91170200  1
  C  985  1  0.85938200  0.86540300  0.92845500  1
  C  986  1  0.83382600  0.84461700  0.93118000  1
  C  987  1  0.84974000  0.82709900  0.91781600  1
  C  988  1  0.93133400  0.88842500  0.90739500  1
  C  990  1  0.99123200  0.87244400  0.88037600  1
  C  1001  1  0.86338800  0.65094200  0.42302800  1
  C  1002  1  0.83526400  0.64830400  0.40242800  1
  C  1003  1  0.85286900  0.66150000  0.38429800  1
  C  1004  1  0.89591200  0.67825900  0.38721400  1
  C  1005  1  0.92149100  0.68098800  0.40799500  1
  C  1006  1  0.90557800  0.66763400  0.42552300  1
  C  1007  1  0.82399000  0.65717400  0.36420300  1
  C  1009  1  0.76410800  0.63015900  0.38019600  1
  C  1020  1  0.36365600  0.85157900  0.57943500  1
  C  1021  1  0.33536500  0.85418400  0.60000900  1
  C  1022  1  0.35292800  0.84100100  0.61815200  1
  C  1023  1  0.39613600  0.82429100  0.61527600  1
  C  1024  1  0.42193500  0.82160700  0.59452600  1
  C  1025  1  0.40603600  0.83494500  0.57698500  1
  C  1026  1  0.32384000  0.84528700  0.63821600  1
  C  1028  1  0.26387500  0.87224100  0.62216700  1
  C  1039  1  0.10739800  0.83023500  0.40074600  1
  C  1040  1  0.07906300  0.85081100  0.39826400  1
  C  1041  1  0.09592500  0.86878100  0.41180000  1
  C  1042  1  0.13856500  0.86573300  0.42866900  1
  C  1043  1  0.16437900  0.84496800  0.43122500  1
  C  1044  1  0.14908700  0.82758800  0.41758600  1
  C  1045  1  0.06677200  0.88886300  0.40768000  1
  C  1047  1  0.00820600  0.87315000  0.38010900  1
  C  1058  1  0.60739000  0.67225500  0.60172500  1
  C  1059  1  0.57897000  0.65169400  0.60420100  1
  C  1060  1  0.59579000  0.63371400  0.59067000  1
  C  1061  1  0.63847400  0.63674100  0.57381000  1
  C  1062  1  0.66438000  0.65749100  0.57126400  1
  C  1063  1  0.64914000  0.67487700  0.58490300  1
  C  1064  1  0.56655000  0.61364800  0.59478500  1
  C  1066  1  0.50797800  0.62939500  0.62233200  1
  C  1077  1  0.14442700  0.35149800  0.58066800  1
  C  1078  1  0.17303600  0.35371800  0.60121900  1
  C  1079  1  0.15533600  0.34035900  0.61921800  1
  C  1080  1  0.11165200  0.32383600  0.61619900  1
  C  1081  1  0.08554700  0.32153000  0.59545300  1
  C  1082  1  0.10158700  0.33504700  0.57806400  1
  C  1083  1  0.18477400  0.34430400  0.63928300  1
  C  1085  1  0.24521200  0.37126200  0.62347100  1
  C  1096  1  0.64437000  0.15100300  0.42188100  1
  C  1097  1  0.67289600  0.14878500  0.40131200  1
  C  1098  1  0.65509500  0.16213600  0.38332200  1
  C  1099  1  0.61140600  0.17865200  0.38636500  1
  C  1100  1  0.58543200  0.18097300  0.40713200  1
  C  1101  1  0.60154600  0.16745600  0.42451000  1
  C  1102  1  0.68441400  0.15818700  0.36323500  1
  C  1104  1  0.74497100  0.13124400  0.37901500  1
  C  1115  1  0.89465700  0.17204000  0.60141300  1
  C  1116  1  0.92325500  0.15148100  0.60359300  1
  C  1117  1  0.90543800  0.13349600  0.59023800  1
  C  1118  1  0.86166200  0.13653800  0.57375500  1
  C  1119  1  0.83558400  0.15729300  0.57148100  1
  C  1120  1  0.85173800  0.17466800  0.58499400  1
  C  1121  1  0.93483500  0.11341800  0.59415700  1
  C  1123  1  0.99547600  0.12919900  0.62107200  1
  C  1134  1  0.39440800  0.33040900  0.40104300  1
  C  1135  1  0.42279300  0.35100500  0.39883300  1
  C  1136  1  0.40485600  0.36897500  0.41218400  1
  C  1137  1  0.36122300  0.36587700  0.42871000  1
  C  1138  1  0.33543300  0.34508100  0.43104100  1
  C  1139  1  0.35162400  0.32773000  0.41750100  1
  C  1140  1  0.43401000  0.38909300  0.40823000  1
  C  1142  1  0.49468700  0.37337700  0.38128500  1
  H  7  1  0.32338700  0.05796400  0.00258100  1
  H  16  1  0.24461500  0.11482900  0.01166600  1
  H  19  1  0.20593200  0.10980500  0.96835400  1
  H  20  1  0.24827600  0.12247900  0.95100300  1
  H  21  1  0.19320700  0.03182700  0.99146100  1
  H  22  1  0.24120500  0.04628300  0.97788100  1
  H  23  1  0.04404700  0.07535900  0.03400800  1
  H  24  1  0.06236900  0.09964900  0.04215600  1
  H  25  1  0.46357300  0.10745000  0.95336600  1
  H  26  1  0.48784400  0.08776200  0.96878600  1
  H  41  1  0.82339800  0.44452200  0.99985200  1
  H  50  1  0.74468800  0.38762100  0.99077000  1
  H  53  1  0.70599100  0.39262800  0.03404900  1
  H  54  1  0.74836000  0.37993000  0.05136800  1
  H  55  1  0.69309800  0.47060700  0.01099200  1
  H  56  1  0.74120400  0.45617300  0.02454100  1
  H  57  1  0.54396000  0.42702100  0.96847900  1
  H  58  1  0.56243800  0.40272000  0.96036600  1
  H  59  1  0.96364200  0.39503000  0.04904400  1
  H  60  1  0.98789200  0.41473100  0.03363600  1
  H  75  1  0.57362400  0.24984000  0.80810500  1
  H  84  1  0.49486000  0.24082600  0.86499900  1
  H  87  1  0.45604300  0.28409800  0.85987700  1
  H  88  1  0.49827800  0.30149900  0.87252600  1
  H  89  1  0.44315000  0.26098200  0.78199200  1
  H  90  1  0.49130900  0.27452700  0.79640800  1
  H  91  1  0.29437400  0.21818200  0.82548700  1
  H  92  1  0.31272800  0.21019100  0.84981400  1
  H  93  1  0.71380800  0.29939900  0.85737900  1
  H  94  1  0.73815800  0.28398500  0.83774800  1
  H  109  1  0.07347600  0.25264300  0.19432900  1
  H  118  1  0.99471400  0.26165100  0.13744400  1
  H  121  1  0.95588800  0.21837900  0.14255800  1
  H  122  1  0.99815400  0.20097600  0.12992000  1
  H  123  1  0.94311200  0.24155400  0.22047200  1
  H  124  1  0.99116200  0.22796800  0.20604300  1
  H  125  1  0.79430200  0.28432700  0.17695700  1
  H  126  1  0.81266000  0.29231500  0.15263000  1
  H  127  1  0.21346000  0.20315800  0.14500500  1
  H  128  1  0.23801400  0.21850400  0.16467600  1
  H  143  1  0.67511600  0.94497000  0.00121000  1
  H  152  1  0.75377000  0.88834600  0.99115000  1
  H  155  1  0.79906800  0.89433800  0.03421000  1
  H  156  1  0.75911600  0.88141700  0.05217700  1
  H  157  1  0.81186000  0.97098500  0.01115500  1
  H  158  1  0.76086200  0.95736800  0.02422800  1
  H  159  1  0.95494000  0.92683700  0.96785400  1
  H  160  1  0.93636500  0.90232300  0.96045300  1
  H  161  1  0.54327500  0.89375900  0.05187800  1
  H  162  1  0.51588200  0.91274400  0.03633400  1
  H  177  1  0.17515800  0.55751300  0.00131700  1
  H  186  1  0.25391400  0.61413300  0.01134000  1
  H  189  1  0.29916700  0.60813900  0.96829800  1
  H  190  1  0.25921000  0.62106900  0.95034400  1
  H  191  1  0.31184800  0.53147000  0.99137800  1
  H  192  1  0.26083800  0.54508800  0.97831000  1
  H  193  1  0.45517000  0.57565300  0.03453400  1
  H  194  1  0.43653600  0.60019300  0.04187300  1
  H  195  1  0.04333900  0.60875700  0.95067900  1
  H  196  1  0.01593900  0.58976500  0.96621600  1
  H  211  1  0.43132500  0.75190900  0.19441000  1
  H  220  1  0.51050300  0.76127400  0.13763100  1
  H  223  1  0.54814000  0.71801900  0.14206700  1
  H  224  1  0.50548000  0.70085200  0.12927400  1
  H  225  1  0.56121800  0.74026100  0.22051300  1
  H  226  1  0.51312000  0.72689200  0.20590800  1
  H  227  1  0.71119200  0.78285700  0.17754200  1
  H  228  1  0.69343400  0.79099700  0.15320700  1
  H  229  1  0.29059400  0.70253600  0.14511100  1
  H  230  1  0.26639200  0.71787700  0.16482200  1
  H  245  1  0.93132900  0.75058900  0.80806900  1
  H  254  1  0.01025800  0.74122700  0.86486800  1
  H  257  1  0.04812300  0.78453100  0.86036500  1
  H  258  1  0.00547300  0.80173700  0.87311300  1
  H  259  1  0.06129400  0.76215800  0.78199700  1
  H  260  1  0.01320600  0.77556200  0.79657400  1
  H  261  1  0.21111700  0.71959800  0.82512600  1
  H  262  1  0.19316200  0.71144100  0.84943600  1
  H  263  1  0.79067200  0.79981100  0.85743600  1
  H  264  1  0.76633200  0.78454600  0.83766500  1
  H  279  1  0.82344400  0.55798800  0.50214300  1
  H  288  1  0.74482500  0.61486800  0.51138900  1
  H  291  1  0.70697000  0.61032300  0.46809900  1
  H  292  1  0.74972800  0.62302500  0.45089500  1
  H  293  1  0.69334100  0.53197900  0.49068600  1
  H  294  1  0.74145800  0.54649000  0.47722100  1
  H  295  1  0.54391600  0.57530200  0.53307700  1
  H  296  1  0.56183600  0.59964200  0.54120000  1
  H  297  1  0.96440600  0.60723500  0.45293900  1
  H  298  1  0.98842400  0.58750400  0.46835400  1
  H  313  1  0.32352500  0.94448500  0.50029200  1
  H  322  1  0.24488900  0.88759300  0.49104700  1
  H  325  1  0.20711100  0.89209000  0.53430200  1
  H  326  1  0.24990400  0.87936500  0.55147200  1
  H  327  1  0.19340500  0.97046700  0.51181500  1
  H  328  1  0.24158900  0.95595400  0.52524200  1
  H  329  1  0.04387300  0.92714900  0.46944400  1
  H  330  1  0.06191700  0.90279900  0.46133700  1
  H  331  1  0.46453400  0.89527000  0.54951600  1
  H  332  1  0.48853700  0.91501200  0.53411000  1
  H  347  1  0.07995000  0.75091800  0.30746500  1
  H  356  1  0.00137400  0.74094700  0.36416100  1
  H  359  1  0.95602300  0.78396400  0.35806800  1
  H  360  1  0.99591000  0.80197800  0.37094400  1
  H  361  1  0.94287800  0.76087800  0.28152800  1
  H  362  1  0.99402600  0.77392800  0.29509500  1
  H  363  1  0.80018200  0.71741900  0.32568700  1
  H  364  1  0.81877000  0.71018700  0.35024100  1
  H  365  1  0.21197900  0.80185300  0.35845600  1
  H  366  1  0.23937200  0.78633700  0.33949900  1
  H  381  1  0.57982200  0.75155700  0.69502600  1
  H  390  1  0.50144800  0.76157500  0.63833100  1
  H  393  1  0.45599400  0.71853000  0.64437700  1
  H  394  1  0.49593800  0.70051900  0.63151300  1
  H  395  1  0.44282800  0.74164500  0.72094400  1
  H  396  1  0.49393100  0.72856600  0.70738300  1
  H  397  1  0.30001600  0.78499200  0.67665500  1
  H  398  1  0.31878900  0.79228200  0.65214100  1
  H  399  1  0.71176400  0.70072400  0.64399500  1
  H  400  1  0.73933000  0.71616600  0.66300300  1
  H  415  1  0.17507300  0.44491100  0.50163100  1
  H  424  1  0.25363600  0.38825400  0.49148100  1
  H  427  1  0.29796000  0.39380000  0.53454900  1
  H  428  1  0.25752500  0.38084900  0.55235700  1
  H  429  1  0.31159700  0.47081700  0.51188000  1
  H  430  1  0.26053100  0.45715200  0.52487000  1
  H  431  1  0.45514800  0.42685200  0.46881300  1
  H  432  1  0.43692100  0.40229600  0.46141900  1
  H  433  1  0.04220300  0.39393700  0.55221700  1
  H  434  1  0.01513700  0.41298400  0.53667400  1
  H  449  1  0.67497800  0.05757500  0.50089900  1
  H  458  1  0.75387200  0.11421600  0.51104400  1
  H  461  1  0.79799000  0.10869900  0.46802300  1
  H  462  1  0.75757200  0.12167500  0.45023100  1
  H  463  1  0.81150200  0.03164100  0.49052900  1
  H  464  1  0.76038900  0.04533900  0.47760100  1
  H  465  1  0.95523600  0.07543000  0.53359000  1
  H  466  1  0.93718800  0.10004900  0.54088800  1
  H  467  1  0.54225000  0.10859400  0.45030700  1
  H  468  1  0.51513200  0.08953600  0.46583000  1
  H  483  1  0.92485600  0.25083200  0.69502200  1
  H  492  1  0.00403300  0.26113500  0.63844200  1
  H  495  1  0.04806500  0.21810100  0.64390100  1
  H  496  1  0.00775400  0.20032700  0.63085700  1
  H  497  1  0.06127200  0.24033500  0.72098600  1
  H  498  1  0.01021300  0.22746200  0.70720900  1
  H  499  1  0.20517000  0.28374500  0.67748800  1
  H  500  1  0.18726400  0.29110000  0.65290200  1
  H  501  1  0.79216000  0.20019700  0.64392200  1
  H  502  1  0.76494800  0.21563000  0.66298200  1
  H  517  1  0.42497200  0.25167500  0.30738800  1
  H  526  1  0.50357800  0.24133200  0.36402300  1
  H  529  1  0.54788200  0.28443300  0.35857800  1
  H  530  1  0.50748800  0.30222400  0.37156800  1
  H  531  1  0.56152200  0.26209500  0.28154500  1
  H  532  1  0.51039200  0.27499500  0.29526100  1
  H  533  1  0.70527400  0.21883100  0.32535600  1
  H  534  1  0.68695800  0.21140100  0.34987500  1
  H  535  1  0.29208300  0.30212000  0.35850200  1
  H  536  1  0.26481700  0.28677000  0.33936000  1
  H  554  1  0.99620000  0.02784300  0.97522600  1
  H  555  1  0.92674000  0.99969100  0.97597300  1
  H  558  1  0.16146100  0.97659900  0.04723200  1
  H  559  1  0.14375100  0.00565500  0.02454900  1
  H  561  1  0.08596100  0.04274200  0.98650500  1
  H  563  1  0.91672400  0.95801800  0.01484400  1
  H  573  1  0.49609800  0.47455500  0.02722500  1
  H  574  1  0.42660100  0.50272700  0.02646700  1
  H  577  1  0.66144600  0.52581100  0.95526300  1
  H  578  1  0.64368600  0.49674900  0.97793400  1
  H  580  1  0.58587200  0.45965700  0.01596700  1
  H  582  1  0.41663000  0.54438500  0.98760100  1
  H  592  1  0.24556600  0.27674900  0.77818900  1
  H  593  1  0.17590900  0.27582300  0.75010000  1
  H  596  1  0.41218600  0.20539600  0.72664800  1
  H  597  1  0.39408100  0.22793000  0.75578300  1
  H  599  1  0.33577800  0.26576100  0.79293700  1
  H  601  1  0.16659300  0.23702400  0.70831800  1
  H  611  1  0.74559400  0.22579900  0.22439100  1
  H  612  1  0.67602600  0.22673600  0.25250600  1
  H  615  1  0.91203400  0.29737700  0.27571700  1
  H  616  1  0.89401600  0.27472500  0.24666400  1
  H  618  1  0.83574000  0.23679700  0.20959400  1
  H  620  1  0.66658600  0.26557900  0.29419900  1
  H  630  1  0.97831200  0.48107400  0.97056600  1
  H  631  1  0.03981600  0.51164600  0.96838800  1
  H  634  1  0.90127200  0.50748600  0.07060100  1
  H  635  1  0.89513000  0.48506400  0.04063500  1
  H  637  1  0.90989800  0.45991700  0.98986400  1
  H  639  1  0.08753700  0.54429400  0.01134500  1
  H  649  1  0.47825700  0.02143000  0.03190300  1
  H  650  1  0.53972000  0.99086500  0.03411300  1
  H  653  1  0.40145900  0.99496600  0.93184800  1
  H  654  1  0.39526400  0.01742000  0.96178900  1
  H  656  1  0.40990900  0.04259700  0.01256800  1
  H  658  1  0.58750400  0.95819700  0.99117900  1
  H  668  1  0.72839500  0.22042200  0.77161600  1
  H  669  1  0.78964600  0.21813300  0.74099100  1
  H  672  1  0.65124800  0.32037700  0.74493500  1
  H  673  1  0.64523200  0.29049300  0.76746200  1
  H  675  1  0.66013600  0.23981200  0.79274900  1
  H  677  1  0.83718600  0.26099500  0.70819300  1
  H  687  1  0.22842400  0.28206800  0.23073600  1
  H  688  1  0.28978900  0.28436600  0.26133700  1
  H  691  1  0.15097500  0.18219400  0.25756800  1
  H  692  1  0.14505200  0.21205000  0.23499100  1
  H  694  1  0.16000600  0.26269200  0.20967000  1
  H  696  1  0.33731100  0.24150900  0.29417600  1
  H  706  1  0.75849200  0.72444700  0.22482200  1
  H  707  1  0.82809600  0.72536100  0.25291600  1
  H  710  1  0.59241600  0.79614800  0.27613200  1
  H  711  1  0.61031800  0.77348000  0.24707800  1
  H  713  1  0.66857400  0.73558900  0.20994000  1
  H  715  1  0.83778000  0.76433200  0.29452100  1
  H  725  1  0.25851200  0.77798600  0.77769800  1
  H  726  1  0.32813700  0.77705200  0.74957400  1
  H  729  1  0.09255000  0.70617700  0.72649500  1
  H  730  1  0.11044500  0.72888600  0.75552100  1
  H  732  1  0.16861300  0.76686000  0.79259300  1
  H  734  1  0.33786400  0.73805000  0.70802900  1
  H  744  1  0.27650800  0.78139400  0.23084800  1
  H  745  1  0.21521200  0.78370200  0.26145200  1
  H  748  1  0.35366700  0.68146800  0.25761700  1
  H  749  1  0.35967600  0.71133000  0.23505600  1
  H  751  1  0.34484200  0.76201800  0.20976500  1
  H  753  1  0.16764600  0.74085900  0.29428300  1
  H  763  1  0.77644400  0.72110800  0.77163600  1
  H  764  1  0.71508600  0.71880000  0.74105300  1
  H  767  1  0.85351000  0.82104800  0.74486600  1
  H  768  1  0.85960300  0.79117300  0.76740800  1
  H  770  1  0.84475400  0.74050000  0.79274900  1
  H  772  1  0.66749800  0.76162400  0.70821700  1
  H  782  1  0.49584100  0.52775500  0.47515000  1
  H  783  1  0.42607100  0.49969500  0.47627300  1
  H  786  1  0.66240600  0.47660800  0.54680200  1
  H  787  1  0.64436400  0.50559600  0.52406100  1
  H  789  1  0.58603100  0.54257800  0.48607700  1
  H  791  1  0.41663300  0.45816500  0.51531800  1
  H  801  1  0.99588800  0.97467600  0.52740700  1
  H  802  1  0.92614700  0.00272600  0.52629000  1
  H  805  1  0.16253400  0.02586800  0.45580500  1
  H  806  1  0.14443800  0.99684000  0.47849400  1
  H  808  1  0.08609100  0.95981900  0.51646000  1
  H  810  1  0.91680000  0.04427800  0.48723400  1
  H  820  1  0.47844200  0.98089100  0.47071000  1
  H  821  1  0.53982800  0.01148000  0.46835600  1
  H  824  1  0.40110900  0.00789800  0.57055700  1
  H  825  1  0.39513200  0.98527300  0.54074200  1
  H  827  1  0.41002700  0.95982600  0.49012300  1
  H  829  1  0.58731400  0.04442200  0.51111900  1
  H  839  1  0.97827200  0.52160400  0.53176100  1
  H  840  1  0.03971000  0.49103400  0.53415700  1
  H  843  1  0.90140400  0.49456000  0.43188500  1
  H  844  1  0.89528400  0.51719700  0.46168900  1
  H  846  1  0.90987200  0.54261200  0.51231600  1
  H  848  1  0.08747500  0.45810500  0.49140900  1
  H  858  1  0.42202900  0.17032200  0.94040100  1
  H  859  1  0.44783200  0.19318000  0.91065600  1
  H  862  1  0.23041700  0.11765800  0.87863800  1
  H  863  1  0.27420400  0.12414700  0.91197300  1
  H  865  1  0.34346600  0.14491400  0.95501300  1
  H  867  1  0.42299600  0.18463900  0.85753700  1
  H  877  1  0.92230000  0.33221300  0.06207500  1
  H  878  1  0.94808000  0.30937100  0.09184200  1
  H  881  1  0.73021600  0.38477800  0.12372400  1
  H  882  1  0.77419300  0.37831500  0.09041700  1
  H  884  1  0.84368200  0.35753600  0.04742700  1
  H  886  1  0.92288000  0.31786400  0.14495400  1
  H  896  1  0.67197400  0.31223100  0.92035500  1
  H  897  1  0.69761200  0.34199900  0.94321000  1
  H  900  1  0.48011000  0.37385800  0.86765700  1
  H  901  1  0.52410600  0.34055800  0.87413600  1
  H  903  1  0.59351600  0.29756400  0.89498500  1
  H  905  1  0.67259100  0.39509500  0.93464800  1
  H  915  1  0.17193900  0.19019100  0.08211200  1
  H  916  1  0.19754900  0.16040700  0.05927700  1
  H  919  1  0.97974900  0.12866000  0.13476100  1
  H  920  1  0.02387000  0.16194000  0.12828600  1
  H  922  1  0.09338100  0.20489800  0.10747200  1
  H  924  1  0.17229200  0.10731900  0.06783800  1
  H  934  1  0.58472800  0.83277400  0.06325400  1
  H  935  1  0.55875500  0.80963400  0.09274900  1
  H  938  1  0.78001400  0.88351600  0.12502700  1
  H  939  1  0.73506700  0.87772100  0.09175600  1
  H  941  1  0.66346500  0.85807500  0.04871500  1
  H  943  1  0.58563800  0.81726400  0.14594500  1
  H  953  1  0.08497100  0.66975000  0.93933100  1
  H  954  1  0.05886300  0.69289800  0.90986200  1
  H  957  1  0.27946400  0.61886000  0.87733700  1
  H  958  1  0.23489100  0.62470900  0.91067000  1
  H  960  1  0.16364500  0.64441000  0.95378400  1
  H  962  1  0.08506400  0.68519300  0.85665400  1
  H  972  1  0.32845000  0.68991800  0.08260300  1
  H  973  1  0.30139500  0.66016800  0.05995400  1
  H  976  1  0.52498400  0.62852300  0.13316100  1
  H  977  1  0.48025100  0.66177500  0.12712300  1
  H  979  1  0.40869800  0.70465200  0.10725600  1
  H  981  1  0.32821800  0.60701000  0.06801500  1
  H  991  1  0.82885600  0.81248400  0.91996600  1
  H  992  1  0.80160800  0.84221300  0.94261500  1
  H  995  1  0.02431700  0.87414400  0.86917000  1
  H  996  1  0.98001800  0.84082500  0.87528100  1
  H  998  1  0.90890600  0.79785100  0.89522900  1
  H  1000  1  0.82763600  0.89540200  0.93444800  1
  H  1010  1  0.92651400  0.66978100  0.44012800  1
  H  1011  1  0.95371800  0.69242300  0.41039100  1
  H  1014  1  0.73103900  0.61894600  0.37850100  1
  H  1015  1  0.77531400  0.62508500  0.41181800  1
  H  1017  1  0.84639200  0.64503800  0.45478700  1
  H  1019  1  0.92759700  0.68423700  0.35720600  1
  H  1029  1  0.42704200  0.83280800  0.56239300  1
  H  1030  1  0.45422200  0.81019200  0.59215600  1
  H  1033  1  0.23069200  0.88341400  0.62382900  1
  H  1034  1  0.27530400  0.87734200  0.59056100  1
  H  1036  1  0.34677900  0.85741500  0.54766800  1
  H  1038  1  0.42749300  0.81828300  0.64532600  1
  H  1048  1  0.17022800  0.81300400  0.41960300  1
  H  1049  1  0.19636800  0.84248900  0.44273100  1
  H  1052  1  0.97548600  0.87493900  0.36877400  1
  H  1053  1  0.02013100  0.84161900  0.37461500  1
  H  1055  1  0.09158100  0.79852100  0.39430600  1
  H  1057  1  0.17005600  0.89569300  0.43501900  1
  H  1067  1  0.67033400  0.68945100  0.58289000  1
  H  1068  1  0.69641000  0.65995500  0.55977100  1
  H  1071  1  0.47523700  0.62762400  0.63366300  1
  H  1072  1  0.52002700  0.66091800  0.62783200  1
  H  1074  1  0.59161800  0.70397700  0.60819100  1
  H  1076  1  0.66984100  0.60676100  0.56747300  1
  H  1086  1  0.08027100  0.33320900  0.56349300  1
  H  1087  1  0.05287100  0.31028900  0.59298300  1
  H  1090  1  0.27868200  0.38230400  0.62522000  1
  H  1091  1  0.23352600  0.37679300  0.59193700  1
  H  1093  1  0.16042600  0.35790000  0.54893800  1
  H  1095  1  0.08052400  0.31763100  0.64623700  1
  H  1105  1  0.58024400  0.16927900  0.43908600  1
  H  1106  1  0.55270400  0.19219300  0.40961200  1
  H  1109  1  0.77844200  0.12020600  0.37724700  1
  H  1110  1  0.73346200  0.12572400  0.41056200  1
  H  1112  1  0.66044500  0.14460900  0.45359300  1
  H  1114  1  0.57999600  0.18482100  0.35635700  1
  H  1124  1  0.83039900  0.18924100  0.58319500  1
  H  1125  1  0.80282600  0.15977400  0.56027200  1
  H  1128  1  0.02900400  0.12743600  0.63208700  1
  H  1129  1  0.98388300  0.16073500  0.62663000  1
  H  1131  1  0.91051200  0.20376800  0.60784100  1
  H  1133  1  0.83038000  0.10651900  0.56756400  1
  H  1143  1  0.33046800  0.31312500  0.41933300  1
  H  1144  1  0.30276200  0.34256200  0.44227400  1
  H  1147  1  0.52813600  0.37517900  0.37024400  1
  H  1148  1  0.48340400  0.34181800  0.37576300  1
  H  1150  1  0.41052400  0.29871400  0.39458600  1
  H  1152  1  0.32961800  0.39585000  0.43490100  1
  N  8  1  0.45463700  0.09399600  0.96096300  1
  N  15  1  0.07556900  0.08577400  0.03641100  1
  N  17  1  0.24572000  0.11239800  0.96303300  1
  N  18  1  0.21132600  0.04590300  0.98918800  1
  N  42  1  0.95469200  0.40848700  0.04145600  1
  N  49  1  0.57552600  0.41664700  0.96603100  1
  N  51  1  0.74577400  0.39008500  0.03940100  1
  N  52  1  0.71127400  0.45653900  0.01325100  1
  N  76  1  0.70467600  0.29159300  0.84405700  1
  N  83  1  0.32589200  0.21596500  0.83593700  1
  N  85  1  0.49580200  0.28946200  0.86245100  1
  N  86  1  0.46143300  0.26321700  0.79604400  1
  N  110  1  0.20454400  0.21088200  0.15840000  1
  N  117  1  0.82582800  0.28655000  0.16651100  1
  N  119  1  0.99564800  0.21302800  0.13997600  1
  N  120  1  0.96133800  0.23929700  0.20641200  1
  N  144  1  0.55017200  0.90725600  0.04407700  1
  N  151  1  0.92332200  0.91638100  0.96579000  1
  N  153  1  0.75997400  0.89142800  0.04004200  1
  N  154  1  0.79082600  0.95736500  0.01294500  1
  N  178  1  0.05022700  0.59525300  0.95846900  1
  N  185  1  0.42353600  0.58607800  0.03666300  1
  N  187  1  0.26007800  0.61099800  0.96243100  1
  N  188  1  0.29083400  0.54509500  0.98958000  1
  N  212  1  0.29984700  0.71032000  0.15843500  1
  N  219  1  0.67986400  0.78529200  0.16705900  1
  N  221  1  0.50831600  0.71268900  0.13957400  1
  N  222  1  0.54301800  0.73818700  0.20642000  1
  N  246  1  0.79974200  0.79212700  0.84403000  1
  N  253  1  0.17970700  0.71715700  0.83557500  1
  N  255  1  0.00829000  0.78984200  0.86288000  1
  N  256  1  0.04309600  0.76426200  0.79608500  1
  N  280  1  0.95527600  0.59381000  0.46055700  1
  N  287  1  0.57531400  0.58574600  0.53559200  1
  N  289  1  0.74682600  0.61280100  0.46279500  1
  N  290  1  0.71161300  0.54604800  0.48853900  1
  N  314  1  0.45538400  0.90869100  0.54189500  1
  N  321  1  0.07529400  0.91674100  0.46687600  1
  N  323  1  0.24695800  0.88966800  0.53963900  1
  N  324  1  0.21168800  0.95639800  0.51394400  1
  N  348  1  0.20483000  0.79387300  0.34507500  1
  N  355  1  0.83179400  0.71552200  0.33617100  1
  N  357  1  0.99510000  0.78983100  0.36094700  1
  N  358  1  0.96414100  0.76261600  0.29510800  1
  N  382  1  0.70481500  0.70862200  0.65744500  1
  N  389  1  0.33172300  0.78693700  0.66621900  1
  N  391  1  0.49508500  0.71268100  0.64149300  1
  N  392  1  0.46397600  0.73985400  0.70734700  1
  N  416  1  0.04934800  0.40741000  0.54440300  1
  N  423  1  0.42364200  0.41636700  0.46664500  1
  N  425  1  0.25876000  0.39099600  0.54033500  1
  N  426  1  0.29048300  0.45720300  0.51358300  1
  N  450  1  0.54936400  0.09511400  0.45811500  1
  N  457  1  0.92382600  0.08593200  0.53580700  1
  N  459  1  0.75881000  0.11145900  0.46219600  1
  N  460  1  0.79031000  0.04524900  0.48890000  1
  N  484  1  0.79944800  0.20813800  0.65731800  1
  N  491  1  0.17380400  0.28581000  0.66693300  1
  N  493  1  0.00889600  0.21229900  0.64106200  1
  N  494  1  0.04010100  0.23877100  0.70736600  1
  N  518  1  0.29924600  0.29428200  0.34503100  1
  N  525  1  0.67372300  0.21671300  0.33582400  1
  N  527  1  0.50868800  0.29021000  0.36141200  1
  N  528  1  0.54039000  0.26372500  0.29516600  1
  N  552  1  0.08375200  0.96136300  0.03938100  1
  N  557  1  0.11161100  0.99530800  0.02597600  1
  N  560  1  0.08557000  0.03442200  0.00006700  1
  N  562  1  0.92348500  0.96510400  0.00096300  1
  N  571  1  0.58369200  0.54102600  0.96307200  1
  N  576  1  0.61149900  0.50706800  0.97646100  1
  N  579  1  0.58548600  0.46797500  0.00240700  1
  N  581  1  0.42343000  0.53731300  0.00148500  1
  N  590  1  0.33416400  0.21300500  0.71151600  1
  N  595  1  0.36185600  0.22638500  0.74548900  1
  N  598  1  0.33553500  0.25218400  0.78464300  1
  N  600  1  0.17304800  0.25090100  0.71544700  1
  N  609  1  0.83409400  0.28974800  0.29090300  1
  N  614  1  0.86182200  0.27627000  0.25697000  1
  N  617  1  0.83550200  0.25038800  0.21786300  1
  N  619  1  0.67319800  0.25169000  0.28711800  1
  N  628  1  0.96253600  0.52759700  0.05649300  1
  N  633  1  0.92502600  0.49638000  0.03996400  1
  N  636  1  0.92432800  0.46524800  0.00382900  1
  N  638  1  0.06579600  0.54025200  0.99843200  1
  N  647  1  0.46266000  0.97485700  0.94599600  1
  N  652  1  0.42508700  0.00608100  0.96249600  1
  N  655  1  0.42436200  0.03724600  0.99861000  1
  N  657  1  0.56577200  0.96224300  0.00409400  1
  N  666  1  0.71234200  0.30618800  0.72480700  1
  N  671  1  0.67506700  0.28977900  0.75612600  1
  N  674  1  0.67466400  0.25377000  0.78741300  1
  N  676  1  0.81549400  0.24808200  0.71227200  1
  N  685  1  0.21223900  0.19636300  0.27763500  1
  N  690  1  0.17492800  0.21275600  0.24631200  1
  N  693  1  0.17453400  0.24873400  0.21499600  1
  N  695  1  0.31564500  0.25442100  0.29007200  1
  N  704  1  0.67032700  0.78846900  0.29132000  1
  N  709  1  0.64249000  0.77498000  0.25740400  1
  N  712  1  0.66881000  0.74915200  0.21826000  1
  N  714  1  0.83122400  0.75042400  0.28746500  1
  N  723  1  0.17046600  0.71383100  0.71131100  1
  N  728  1  0.14265900  0.72734100  0.74522200  1
  N  731  1  0.16888400  0.75328500  0.78430200  1
  N  733  1  0.33120900  0.75196600  0.71505700  1
  N  742  1  0.29252100  0.69566700  0.27771300  1
  N  747  1  0.32982900  0.71205300  0.24638500  1
  N  750  1  0.33029600  0.74806200  0.21508700  1
  N  752  1  0.18934100  0.75377300  0.29019900  1
  N  761  1  0.79240500  0.80683800  0.72475500  1
  N  766  1  0.82978400  0.79044500  0.75606900  1
  N  769  1  0.83029800  0.75445100  0.78736600  1
  N  771  1  0.68920200  0.74871600  0.71230000  1
  N  780  1  0.58432400  0.46145600  0.53931000  1
  N  785  1  0.61212700  0.49531800  0.52568300  1
  N  788  1  0.58584600  0.53433100  0.49968500  1
  N  790  1  0.42316800  0.46519900  0.50139800  1
  N  799  1  0.08446400  0.04102000  0.46331200  1
  N  804  1  0.11225200  0.00714900  0.47691800  1
  N  807  1  0.08593200  0.96811500  0.50288500  1
  N  809  1  0.92322400  0.03722600  0.50115300  1
  N  818  1  0.46228600  0.02796400  0.55632900  1
  N  823  1  0.42496800  0.99660700  0.54000000  1
  N  826  1  0.42442500  0.96524700  0.50405800  1
  N  828  1  0.56564400  0.04028400  0.49822000  1
  N  837  1  0.96262000  0.47453400  0.44613900  1
  N  842  1  0.92516600  0.50587900  0.46244200  1
  N  845  1  0.92443200  0.53725100  0.49838100  1
  N  847  1  0.06574800  0.46223500  0.50429700  1
  N  856  1  0.27894800  0.14111300  0.86298400  1
  N  861  1  0.28876400  0.13273500  0.89986300  1
  N  864  1  0.35009000  0.13777100  0.94104200  1
  N  866  1  0.40932400  0.19176200  0.87076700  1
  N  875  1  0.77878200  0.36135500  0.13941000  1
  N  880  1  0.78874800  0.36974200  0.10253800  1
  N  883  1  0.85015400  0.36471400  0.06138800  1
  N  885  1  0.90932800  0.31075400  0.13170100  1
  N  894  1  0.52850000  0.38954200  0.89113200  1
  N  899  1  0.53859700  0.35267900  0.88272600  1
  N  902  1  0.59999400  0.31152300  0.88780700  1
  N  904  1  0.65891600  0.38186600  0.94177400  1
  N  913  1  0.02813900  0.11295000  0.11130500  1
  N  918  1  0.03833300  0.14981100  0.11970300  1
  N  921  1  0.09992100  0.19093400  0.11463700  1
  N  923  1  0.15871800  0.12055500  0.06070000  1
  N  932  1  0.73103400  0.86008600  0.14052900  1
  N  937  1  0.72051800  0.86904500  0.10381300  1
  N  940  1  0.65784600  0.86499000  0.06286000  1
  N  942  1  0.59833200  0.81023400  0.13253800  1
  N  951  1  0.23042600  0.64230800  0.86188600  1
  N  956  1  0.22026700  0.63338800  0.89862700  1
  N  959  1  0.15791300  0.63748100  0.93965100  1
  N  961  1  0.09801200  0.69223600  0.87002200  1
  N  970  1  0.47476800  0.61276500  0.11026300  1
  N  975  1  0.46518200  0.64963000  0.11870300  1
  N  978  1  0.40284300  0.69064700  0.11442200  1
  N  980  1  0.34071200  0.62035300  0.06081700  1
  N  989  1  0.97405000  0.88984700  0.89209000  1
  N  994  1  0.96485700  0.85295600  0.88370000  1
  N  997  1  0.90302700  0.81185300  0.88806400  1
  N  999  1  0.84039200  0.88209600  0.94165300  1
  N  1008  1  0.78129400  0.64186300  0.36278600  1
  N  1013  1  0.79046400  0.63350400  0.39968500  1
  N  1016  1  0.85238000  0.63787900  0.44078600  1
  N  1018  1  0.91489400  0.69144900  0.37051300  1
  N  1027  1  0.28100400  0.86054800  0.63959000  1
  N  1032  1  0.29043500  0.86893900  0.60270800  1
  N  1035  1  0.35255900  0.86460900  0.56166000  1
  N  1037  1  0.41500100  0.81108500  0.63198500  1
  N  1046  1  0.02458300  0.89041100  0.39219200  1
  N  1051  1  0.03478000  0.85367000  0.38327800  1
  N  1054  1  0.09713600  0.81265600  0.38736700  1
  N  1056  1  0.15715400  0.88232100  0.44206900  1
  N  1065  1  0.52432400  0.61212400  0.61026200  1
  N  1070  1  0.53464400  0.64885900  0.61917400  1
  N  1073  1  0.59723000  0.68983400  0.61510900  1
  N  1075  1  0.65704000  0.62014100  0.56041700  1
  N  1084  1  0.22799400  0.35940800  0.64077500  1
  N  1089  1  0.21834600  0.36829600  0.60401700  1
  N  1092  1  0.15534900  0.36482800  0.56310400  1
  N  1094  1  0.09247200  0.31052100  0.63278200  1
  N  1103  1  0.72764000  0.14308800  0.36171800  1
  N  1108  1  0.71822100  0.13422000  0.39849000  1
  N  1111  1  0.65534200  0.13766600  0.43943700  1
  N  1113  1  0.59208000  0.19194600  0.36978700  1
  N  1122  1  0.97814000  0.11190500  0.60922700  1
  N  1127  1  0.96864000  0.14866400  0.61813400  1
  N  1130  1  0.90575000  0.18958400  0.61475600  1
  N  1132  1  0.84235500  0.11996900  0.56044900  1
  N  1141  1  0.47722200  0.39065600  0.39312900  1
  N  1146  1  0.46807200  0.35387600  0.38425700  1
  N  1149  1  0.40548700  0.31288600  0.38767500  1
  N  1151  1  0.34181700  0.38242900  0.44201700  1
  O  31  1  0.13857900  0.13830400  0.02737900  1
  O  32  1  0.09034400  0.03988400  0.03765700  1
  O  33  1  0.46642000  0.04958400  0.96646700  1
  O  34  1  0.37860100  0.10564100  0.92316600  1
  O  65  1  0.63840400  0.36414000  0.97508800  1
  O  66  1  0.59020000  0.46251500  0.96480800  1
  O  67  1  0.96641400  0.45290200  0.03597500  1
  O  68  1  0.87859800  0.39686500  0.07925400  1
  O  99  1  0.38890100  0.22505900  0.88852000  1
  O  100  1  0.34101200  0.21459700  0.79005000  1
  O  101  1  0.71643400  0.28600400  0.79961100  1
  O  102  1  0.62849600  0.32938300  0.85566300  1
  O  133  1  0.88923600  0.27746100  0.11386500  1
  O  134  1  0.84083400  0.28794100  0.21239200  1
  O  135  1  0.21629900  0.21648200  0.20282200  1
  O  136  1  0.12826300  0.17308100  0.14680200  1
  O  167  1  0.85760000  0.86419400  0.97510700  1
  O  168  1  0.90671000  0.96226900  0.96334400  1
  O  169  1  0.53286400  0.95107900  0.03819900  1
  O  170  1  0.63023800  0.89687100  0.08142600  1
  O  201  1  0.35711100  0.63838200  0.02735100  1
  O  202  1  0.40712400  0.54018700  0.03909600  1
  O  203  1  0.03287900  0.55142500  0.96433600  1
  O  204  1  0.13010200  0.60561000  0.92111300  1
  O  235  1  0.61505800  0.77701000  0.11411300  1
  O  236  1  0.66376600  0.78673400  0.21285700  1
  O  237  1  0.28848000  0.71582300  0.20290200  1
  O  238  1  0.37670700  0.67259200  0.14673100  1
  O  269  1  0.11556800  0.72546500  0.88830800  1
  O  270  1  0.16406400  0.71572900  0.78976700  1
  O  271  1  0.78847800  0.78668000  0.79957200  1
  O  272  1  0.87645200  0.82988700  0.85578200  1
  O  303  1  0.63987800  0.63843900  0.52716500  1
  O  304  1  0.59106700  0.53992000  0.53722800  1
  O  305  1  0.96648000  0.54938500  0.46615000  1
  O  306  1  0.87879200  0.60556600  0.42279400  1
  O  337  1  0.13966600  0.86404600  0.47532100  1
  O  338  1  0.09096400  0.96255300  0.46532700  1
  O  339  1  0.46647400  0.95312400  0.53630000  1
  O  340  1  0.37876300  0.89695700  0.57964800  1
  O  371  1  0.89787200  0.72491200  0.38842400  1
  O  372  1  0.84885000  0.71286600  0.29032600  1
  O  373  1  0.22199400  0.78795700  0.30120900  1
  O  374  1  0.12489300  0.83120900  0.35549600  1
  O  405  1  0.39851300  0.77763300  0.61396200  1
  O  406  1  0.34803400  0.78949700  0.71209300  1
  O  407  1  0.72191600  0.71453600  0.70129400  1
  O  408  1  0.62477600  0.67127300  0.64700100  1
  O  439  1  0.35676700  0.36405700  0.47536600  1
  O  440  1  0.40619900  0.46220400  0.46384700  1
  O  441  1  0.03275000  0.45127000  0.53846100  1
  O  442  1  0.12967800  0.39688800  0.58174900  1
  O  473  1  0.85652600  0.13844000  0.52708300  1
  O  474  1  0.90560200  0.04018800  0.53869200  1
  O  475  1  0.53272100  0.05124400  0.46404400  1
  O  476  1  0.62966400  0.10560600  0.42079700  1
  O  507  1  0.10652200  0.27717500  0.61428600  1
  O  508  1  0.15547800  0.28846800  0.71271600  1
  O  509  1  0.78268600  0.21392200  0.70123100  1
  O  510  1  0.87992900  0.17084700  0.64675500  1
  O  541  1  0.60672000  0.22530200  0.38817700  1
  O  542  1  0.65653600  0.21414700  0.28999600  1
  O  543  1  0.28277700  0.28857600  0.30111500  1
  O  544  1  0.37951900  0.33161600  0.35568800  1
  O  556  1  0.00334200  0.94269800  0.02845400  1
  O  575  1  0.50326800  0.55969100  0.97398200  1
  O  594  1  0.25354100  0.22377600  0.69290500  1
  O  613  1  0.75335800  0.27906000  0.30951800  1
  O  632  1  0.02322200  0.55172000  0.04018000  1
  O  651  1  0.52305100  0.95069700  0.96238700  1
  O  670  1  0.77270700  0.28975300  0.70066000  1
  O  689  1  0.27267400  0.21279300  0.30174800  1
  O  708  1  0.75100800  0.77772100  0.30993100  1
  O  727  1  0.25111400  0.72456900  0.69267400  1
  O  746  1  0.23222200  0.71212300  0.30185800  1
  O  765  1  0.73187900  0.79040600  0.70066000  1
  O  784  1  0.50344000  0.44284800  0.52876900  1
  O  803  1  0.00375900  0.05966200  0.47395500  1
  O  822  1  0.52278800  0.05203400  0.53984700  1
  O  841  1  0.02301400  0.45046900  0.46265800  1
  O  860  1  0.33113900  0.16741200  0.84559600  1
  O  879  1  0.83101000  0.33509400  0.15683600  1
  O  898  1  0.58048600  0.40695300  0.91747600  1
  O  917  1  0.08015700  0.09550400  0.08499500  1
  O  936  1  0.67835200  0.83382100  0.15775400  1
  O  955  1  0.17769600  0.66860500  0.84472300  1
  O  974  1  0.42057800  0.59521600  0.08466100  1
  O  993  1  0.91979300  0.90733600  0.91772000  1
  O  1012  1  0.83553200  0.66748000  0.34528300  1
  O  1031  1  0.33531200  0.83498900  0.65714900  1
  O  1050  1  0.07738900  0.90760100  0.41844900  1
  O  1069  1  0.57714800  0.59489900  0.58403500  1
  O  1088  1  0.17326500  0.33382400  0.65810900  1
  O  1107  1  0.67279000  0.16866600  0.34441700  1
  O  1126  1  0.92318900  0.09459800  0.58368700  1
  O  1145  1  0.42220900  0.40790400  0.41869200  1
