# generated using pymatgen
data_H11C16(N2O)2
_symmetry_space_group_name_H-M   'P 1'
_cell_length_a   44.79590000
_cell_length_b   44.79590000
_cell_length_c   44.79590000
_cell_angle_alpha   90.00000000
_cell_angle_beta   90.00000000
_cell_angle_gamma   90.00000000
_symmetry_Int_Tables_number   1
_chemical_formula_structural   H11C16(N2O)2
_chemical_formula_sum   'H528 C768 N192 O96'
_cell_volume   89890.70766720
_cell_formula_units_Z   48
loop_
 _symmetry_equiv_pos_site_id
 _symmetry_equiv_pos_as_xyz
  1  'x, y, z'
loop_
 _atom_site_type_symbol
 _atom_site_label
 _atom_site_symmetry_multiplicity
 _atom_site_fract_x
 _atom_site_fract_y
 _atom_site_fract_z
 _atom_site_occupancy
  H  7  1  0.16371200  0.40433900  0.40639000  1
  H  16  1  0.07961300  0.36657400  0.36062000  1
  H  19  1  0.12016600  0.37249900  0.31445500  1
  H  20  1  0.17650200  0.34502500  0.40251000  1
  H  21  1  0.18583100  0.46653400  0.32036400  1
  H  22  1  0.08863100  0.27095800  0.41149100  1
  H  29  1  0.34360300  0.60297500  0.90635600  1
  H  38  1  0.42769300  0.64079800  0.86057700  1
  H  41  1  0.38715800  0.63488400  0.81443700  1
  H  42  1  0.33083200  0.66226200  0.90264800  1
  H  43  1  0.32151400  0.54080900  0.82030100  1
  H  44  1  0.41876000  0.73633600  0.91161500  1
  H  51  1  0.84353300  0.90429800  0.10091000  1
  H  60  1  0.92763700  0.86656000  0.14671700  1
  H  63  1  0.88711300  0.87249600  0.19287200  1
  H  64  1  0.83078200  0.84497300  0.10474300  1
  H  65  1  0.82144600  0.96663200  0.18686100  1
  H  66  1  0.91877200  0.77099300  0.09566700  1
  H  73  1  0.66375300  0.10302400  0.60087900  1
  H  82  1  0.57957600  0.14068700  0.64660900  1
  H  85  1  0.62008800  0.13478700  0.69280000  1
  H  86  1  0.67646000  0.16237200  0.60479500  1
  H  87  1  0.68590900  0.04083100  0.68689400  1
  H  88  1  0.58847400  0.23629400  0.59566400  1
  H  95  1  0.40640600  0.16373700  0.40430300  1
  H  104  1  0.36064500  0.07961700  0.36653800  1
  H  107  1  0.31448400  0.12015600  0.37248700  1
  H  108  1  0.40255700  0.17650500  0.34499600  1
  H  109  1  0.32038400  0.18581500  0.46651400  1
  H  110  1  0.41150200  0.08864500  0.27091300  1
  H  117  1  0.90635400  0.34353400  0.60302400  1
  H  126  1  0.86058600  0.42766700  0.64081400  1
  H  129  1  0.81444100  0.38719200  0.63484000  1
  H  130  1  0.90266100  0.33081000  0.66229800  1
  H  131  1  0.82036800  0.32150500  0.54075100  1
  H  132  1  0.91162900  0.41874600  0.73635100  1
  H  139  1  0.10089200  0.84360000  0.90434500  1
  H  148  1  0.14671800  0.92765300  0.86655800  1
  H  151  1  0.19286400  0.88707300  0.87244400  1
  H  152  1  0.10472000  0.83080200  0.84501300  1
  H  153  1  0.18691800  0.82144400  0.96656500  1
  H  154  1  0.09566500  0.91877700  0.77099700  1
  H  161  1  0.60087700  0.66371700  0.10300300  1
  H  170  1  0.64662200  0.57956900  0.14066900  1
  H  173  1  0.69280700  0.62011500  0.13479700  1
  H  174  1  0.60482600  0.67645300  0.16236000  1
  H  175  1  0.68689400  0.68591800  0.04083000  1
  H  176  1  0.59566700  0.58845400  0.23627200  1
  H  183  1  0.40428700  0.40634100  0.16378200  1
  H  192  1  0.36653400  0.36061600  0.07963300  1
  H  195  1  0.37249900  0.31443700  0.12013300  1
  H  196  1  0.34498300  0.40249900  0.17653000  1
  H  197  1  0.46658500  0.32036900  0.18578800  1
  H  198  1  0.27092200  0.41149100  0.08865900  1
  H  205  1  0.60299100  0.90639600  0.34357200  1
  H  214  1  0.64078700  0.86060200  0.42768200  1
  H  217  1  0.63483800  0.81446600  0.38716500  1
  H  218  1  0.66227300  0.90267700  0.33082500  1
  H  219  1  0.54080900  0.82035900  0.32146900  1
  H  220  1  0.73634000  0.91161800  0.41876000  1
  H  227  1  0.90433300  0.10085800  0.84361600  1
  H  236  1  0.86657300  0.14670800  0.92767000  1
  H  239  1  0.87246400  0.19285000  0.88708400  1
  H  240  1  0.84499500  0.10473700  0.83081800  1
  H  241  1  0.96655100  0.18686900  0.82141300  1
  H  242  1  0.77100400  0.09566000  0.91880800  1
  H  249  1  0.10299100  0.60092600  0.66372200  1
  H  258  1  0.14068100  0.64664700  0.57957100  1
  H  261  1  0.13481400  0.69284300  0.62009700  1
  H  262  1  0.16234400  0.60483900  0.67646000  1
  H  263  1  0.04081200  0.68695600  0.68587400  1
  H  264  1  0.23627600  0.59568400  0.58847400  1
  H  271  1  0.15376500  0.41588000  0.85368400  1
  H  280  1  0.11494200  0.33118500  0.89720100  1
  H  283  1  0.12094200  0.37035800  0.94445500  1
  H  284  1  0.09460500  0.42922500  0.85703000  1
  H  285  1  0.21645800  0.43476300  0.94070300  1
  H  286  1  0.01998500  0.34021000  0.84579900  1
  H  293  1  0.35355000  0.59147400  0.35371600  1
  H  302  1  0.39241800  0.67614900  0.39718400  1
  H  305  1  0.38640800  0.63702100  0.44449000  1
  H  306  1  0.41271000  0.57802900  0.35716900  1
  H  307  1  0.29083000  0.57264700  0.44073300  1
  H  308  1  0.48743800  0.66692800  0.34589100  1
  H  315  1  0.65373200  0.09137300  0.15364900  1
  H  324  1  0.61490700  0.17606000  0.11013900  1
  H  327  1  0.62094100  0.13693100  0.06285700  1
  H  328  1  0.59454600  0.07799700  0.15020700  1
  H  329  1  0.71661500  0.07259200  0.06673900  1
  H  330  1  0.51997200  0.16705500  0.16162800  1
  H  337  1  0.85355600  0.91585000  0.65370300  1
  H  346  1  0.89233900  0.83115500  0.61016100  1
  H  349  1  0.88637200  0.87035500  0.56290200  1
  H  350  1  0.91275200  0.92919100  0.65029400  1
  H  351  1  0.79081000  0.93475800  0.56671500  1
  H  352  1  0.98729200  0.84008900  0.66162100  1
  H  359  1  0.91581400  0.65372300  0.85352100  1
  H  368  1  0.83120800  0.61009200  0.89239900  1
  H  371  1  0.87046000  0.56287800  0.88637200  1
  H  372  1  0.92922900  0.65034300  0.91268000  1
  H  373  1  0.93469600  0.56676200  0.79072000  1
  H  374  1  0.84020900  0.66150100  0.98735700  1
  H  381  1  0.09143700  0.15364200  0.65375400  1
  H  390  1  0.17608500  0.11010500  0.61485100  1
  H  393  1  0.13697000  0.06283600  0.62093700  1
  H  394  1  0.07800100  0.15024200  0.59460800  1
  H  395  1  0.07266800  0.06672300  0.71663100  1
  H  396  1  0.16696400  0.16151900  0.51989400  1
  H  403  1  0.59140900  0.35371800  0.35357100  1
  H  412  1  0.67612000  0.39717500  0.39237500  1
  H  415  1  0.63698100  0.44448100  0.38640200  1
  H  416  1  0.57803300  0.35717100  0.41276100  1
  H  417  1  0.57256600  0.44072800  0.29084400  1
  H  418  1  0.66704400  0.34577500  0.48735500  1
  H  425  1  0.41588000  0.85369000  0.15373700  1
  H  434  1  0.33113500  0.89716300  0.11498500  1
  H  437  1  0.37031500  0.94444200  0.12090900  1
  H  438  1  0.42918200  0.85707700  0.09453800  1
  H  439  1  0.43477700  0.94073200  0.21641500  1
  H  440  1  0.34005600  0.84567800  0.02004700  1
  H  447  1  0.15365300  0.65377000  0.09143700  1
  H  456  1  0.11008800  0.61488000  0.17607000  1
  H  459  1  0.06283700  0.62095200  0.13689400  1
  H  460  1  0.15022900  0.59460800  0.07801400  1
  H  461  1  0.06674800  0.71667500  0.07267000  1
  H  462  1  0.16149600  0.51992700  0.16699500  1
  H  469  1  0.65370500  0.85351000  0.91581000  1
  H  478  1  0.61010300  0.89239700  0.83119900  1
  H  481  1  0.56286200  0.88637600  0.87040600  1
  H  482  1  0.65030100  0.91266500  0.92926000  1
  H  483  1  0.56673500  0.79072000  0.93468400  1
  H  484  1  0.66148500  0.98738100  0.84028300  1
  H  491  1  0.85367700  0.15373300  0.41590700  1
  H  500  1  0.89717900  0.11495300  0.33119600  1
  H  503  1  0.94445500  0.12090200  0.37036500  1
  H  504  1  0.85708300  0.09453900  0.42924500  1
  H  505  1  0.94069400  0.21644500  0.43479500  1
  H  506  1  0.84569400  0.02001000  0.34015400  1
  H  513  1  0.35374700  0.35356800  0.59143400  1
  H  522  1  0.39714800  0.39232200  0.67619600  1
  H  525  1  0.44447800  0.38638200  0.63707400  1
  H  526  1  0.35721400  0.41277000  0.57809800  1
  H  527  1  0.44078200  0.29088800  0.57257300  1
  H  528  1  0.34578900  0.48731900  0.66712400  1
  H  535  1  0.27478000  0.58461900  0.35275100  1
  H  542  1  0.22527300  0.41986000  0.36288800  1
  H  543  1  0.17401900  0.48780400  0.40218200  1
  H  544  1  0.33166200  0.52962500  0.40302600  1
  H  546  1  0.29073900  0.46383500  0.35357700  1
  H  547  1  0.27581800  0.43021200  0.34986700  1
  H  549  1  0.22910800  0.56401900  0.33448200  1
  H  550  1  0.21822300  0.52958500  0.34233700  1
  H  557  1  0.23247900  0.42268900  0.85275300  1
  H  564  1  0.28203900  0.58746900  0.86281400  1
  H  565  1  0.33329900  0.51951700  0.90210800  1
  H  566  1  0.17558300  0.47778700  0.90291100  1
  H  568  1  0.21661900  0.54348100  0.85343100  1
  H  569  1  0.23151500  0.57712000  0.84977700  1
  H  571  1  0.27814200  0.44327500  0.83440500  1
  H  572  1  0.28904000  0.47771400  0.84224500  1
  H  579  1  0.73253600  0.08459700  0.15468700  1
  H  586  1  0.78209700  0.91985000  0.14447900  1
  H  587  1  0.83326700  0.98777900  0.10505100  1
  H  588  1  0.67563600  0.02961500  0.10435600  1
  H  590  1  0.71665800  0.96382100  0.15393600  1
  H  591  1  0.73157200  0.93018800  0.15758600  1
  H  593  1  0.77823900  0.06395500  0.17292200  1
  H  594  1  0.78912000  0.02952800  0.16501600  1
  H  601  1  0.77471700  0.92270600  0.65465200  1
  H  608  1  0.72532400  0.08750800  0.64438300  1
  H  609  1  0.67405300  0.01949800  0.60525000  1
  H  610  1  0.83174200  0.97765900  0.60443100  1
  H  612  1  0.79077200  0.04354200  0.65375200  1
  H  613  1  0.77588400  0.07719000  0.65736200  1
  H  615  1  0.72915700  0.94346900  0.67305100  1
  H  616  1  0.71831600  0.97790700  0.66513100  1
  H  623  1  0.35281400  0.27484000  0.58460500  1
  H  630  1  0.36287900  0.22528200  0.41983600  1
  H  631  1  0.40221100  0.17405100  0.48777300  1
  H  632  1  0.40305300  0.33172300  0.52954400  1
  H  634  1  0.35356400  0.29075000  0.46380200  1
  H  635  1  0.34984700  0.27582500  0.43018300  1
  H  637  1  0.33454900  0.22915300  0.56402500  1
  H  638  1  0.34238200  0.21825900  0.52958700  1
  H  645  1  0.85272600  0.23245000  0.42270900  1
  H  652  1  0.86279200  0.28199700  0.58748500  1
  H  653  1  0.90216600  0.33322900  0.51955900  1
  H  654  1  0.90290900  0.17552300  0.47778700  1
  H  656  1  0.85341100  0.21657600  0.54349400  1
  H  657  1  0.84973900  0.23147700  0.57712900  1
  H  659  1  0.83438700  0.27810200  0.44333600  1
  H  660  1  0.84224700  0.28900700  0.47776700  1
  H  667  1  0.15472400  0.73262300  0.08463500  1
  H  674  1  0.14442700  0.78212100  0.91988200  1
  H  675  1  0.10510400  0.83335400  0.98782300  1
  H  676  1  0.10435000  0.67573400  0.02971600  1
  H  678  1  0.15387100  0.71669600  0.96387500  1
  H  679  1  0.15750400  0.73159200  0.93023100  1
  H  681  1  0.17297100  0.77830600  0.06398000  1
  H  682  1  0.16504700  0.78918400  0.02955600  1
  H  689  1  0.65467900  0.77462700  0.92269000  1
  H  696  1  0.64435200  0.72530600  0.08749000  1
  H  697  1  0.60525700  0.67400000  0.01948400  1
  H  698  1  0.60442900  0.83165700  0.97757900  1
  H  700  1  0.65371400  0.79074300  0.04350600  1
  H  701  1  0.65731700  0.77586600  0.07716100  1
  H  703  1  0.67308700  0.72908500  0.94347500  1
  H  704  1  0.66514800  0.71825600  0.97791600  1
  H  711  1  0.58461000  0.35273300  0.27484500  1
  H  718  1  0.41984200  0.36280800  0.22529500  1
  H  719  1  0.48776800  0.40216900  0.17407000  1
  H  720  1  0.52956200  0.40302400  0.33172900  1
  H  722  1  0.46381300  0.35350100  0.29076300  1
  H  723  1  0.43019400  0.34977300  0.27583800  1
  H  725  1  0.56400100  0.33445900  0.22916000  1
  H  726  1  0.52956400  0.34231100  0.21827200  1
  H  733  1  0.42270000  0.85272100  0.23243200  1
  H  740  1  0.58746900  0.86283600  0.28199500  1
  H  741  1  0.51953900  0.90218400  0.33324300  1
  H  742  1  0.47775600  0.90296500  0.17553700  1
  H  744  1  0.54347400  0.85346000  0.21657600  1
  H  745  1  0.57711100  0.84979300  0.23147200  1
  H  747  1  0.44329100  0.83445600  0.27813300  1
  H  748  1  0.47771400  0.84233200  0.28904700  1
  H  755  1  0.08460800  0.15465200  0.73260500  1
  H  762  1  0.91985900  0.14439300  0.78212100  1
  H  763  1  0.98780300  0.10504900  0.83333600  1
  H  764  1  0.02966600  0.10434600  0.67571200  1
  H  766  1  0.96384600  0.15385300  0.71669600  1
  H  767  1  0.93020600  0.15748200  0.73159600  1
  H  769  1  0.06398500  0.17288600  0.77829700  1
  H  770  1  0.02955900  0.16498000  0.78918000  1
  H  777  1  0.92268100  0.65471900  0.77463600  1
  H  784  1  0.08747700  0.64440300  0.72529200  1
  H  785  1  0.01946200  0.60532600  0.67398200  1
  H  786  1  0.97757900  0.60445800  0.83164800  1
  H  788  1  0.04350100  0.65375200  0.79073600  1
  H  789  1  0.07715400  0.65735700  0.77585700  1
  H  791  1  0.94346000  0.67313800  0.72909600  1
  H  792  1  0.97789600  0.66520600  0.71826000  1
  H  799  1  0.77639700  0.08292800  0.85166300  1
  H  806  1  0.72612300  0.91907400  0.86211500  1
  H  807  1  0.67558500  0.98632800  0.90344000  1
  H  808  1  0.83247900  0.02889100  0.90394500  1
  H  810  1  0.79165100  0.96307800  0.85296700  1
  H  811  1  0.77658300  0.92957900  0.84866100  1
  H  813  1  0.73070400  0.06207500  0.83354600  1
  H  814  1  0.71962400  0.02786700  0.84214700  1
  H  821  1  0.73088200  0.92442200  0.35170400  1
  H  828  1  0.78116100  0.08831600  0.36213200  1
  H  829  1  0.83180400  0.02102000  0.40338300  1
  H  830  1  0.67483500  0.97849900  0.40392100  1
  H  832  1  0.71568400  0.04424000  0.35295700  1
  H  833  1  0.73069900  0.07776800  0.34871100  1
  H  835  1  0.77655600  0.94525000  0.33350600  1
  H  836  1  0.78766000  0.97945200  0.34210700  1
  H  843  1  0.23101000  0.58300200  0.65565200  1
  H  850  1  0.28133600  0.41912800  0.64516200  1
  H  851  1  0.33189000  0.48641100  0.60390600  1
  H  852  1  0.17496600  0.52893900  0.60341100  1
  H  854  1  0.21583800  0.46314100  0.65441300  1
  H  855  1  0.23088500  0.42962200  0.65863200  1
  H  857  1  0.27672900  0.56218600  0.67376700  1
  H  858  1  0.28783000  0.52798400  0.66516400  1
  H  865  1  0.27622600  0.42436900  0.15571300  1
  H  872  1  0.22610600  0.58824000  0.14508200  1
  H  873  1  0.17550000  0.52090100  0.10398900  1
  H  874  1  0.33240300  0.47828700  0.10345600  1
  H  876  1  0.29162100  0.54423800  0.15425500  1
  H  877  1  0.27659000  0.57776500  0.15846100  1
  H  879  1  0.23066000  0.44536900  0.17396700  1
  H  880  1  0.21961500  0.47957300  0.16529200  1
  H  887  1  0.85162300  0.77638900  0.08292300  1
  H  894  1  0.86208600  0.72617000  0.91903100  1
  H  895  1  0.90336700  0.67556500  0.98629400  1
  H  896  1  0.90392500  0.83246700  0.02890300  1
  H  898  1  0.85296000  0.79168700  0.96308000  1
  H  899  1  0.84866300  0.77664300  0.92956800  1
  H  901  1  0.83349600  0.73070400  0.06205900  1
  H  902  1  0.84209800  0.71962900  0.02784900  1
  H  909  1  0.35169500  0.73087100  0.92440200  1
  H  916  1  0.36209600  0.78115200  0.08831200  1
  H  917  1  0.40330500  0.83182000  0.02101100  1
  H  918  1  0.40391400  0.67483900  0.97849200  1
  H  920  1  0.35294800  0.71567100  0.04423400  1
  H  921  1  0.34870000  0.73068300  0.07776400  1
  H  923  1  0.33347000  0.77652200  0.94523400  1
  H  924  1  0.34205400  0.78764400  0.97943400  1
  H  931  1  0.65564100  0.23103500  0.58295800  1
  H  938  1  0.64513100  0.28131600  0.41907400  1
  H  939  1  0.60385000  0.33189200  0.48636000  1
  H  940  1  0.60339300  0.17496900  0.52892400  1
  H  942  1  0.65438600  0.21582600  0.46311900  1
  H  943  1  0.65860100  0.23085800  0.42959100  1
  H  945  1  0.67374700  0.27674900  0.56212300  1
  H  946  1  0.66513100  0.28784100  0.52792400  1
  H  953  1  0.15568200  0.27625800  0.42436700  1
  H  960  1  0.14507700  0.22610300  0.58822400  1
  H  961  1  0.10396200  0.17551400  0.52089000  1
  H  962  1  0.10342800  0.33242400  0.47829900  1
  H  964  1  0.15424300  0.29162500  0.54423300  1
  H  965  1  0.15845700  0.27658800  0.57775600  1
  H  967  1  0.17393600  0.23068400  0.44535600  1
  H  968  1  0.16526300  0.21963400  0.47955800  1
  H  975  1  0.08292400  0.85162500  0.77640900  1
  H  982  1  0.91901600  0.86209100  0.72616700  1
  H  983  1  0.98631000  0.90332400  0.67552400  1
  H  984  1  0.02888800  0.90394000  0.83245600  1
  H  986  1  0.96308400  0.85296300  0.79167800  1
  H  987  1  0.92957000  0.84867000  0.77664100  1
  H  989  1  0.06207500  0.83348800  0.73072100  1
  H  990  1  0.02786800  0.84208400  0.71963600  1
  H  997  1  0.92442900  0.35167800  0.73088700  1
  H  1004  1  0.08830700  0.36207400  0.78119000  1
  H  1005  1  0.02103600  0.40341400  0.83179300  1
  H  1006  1  0.97849400  0.40391400  0.67484800  1
  H  1008  1  0.04423400  0.35290300  0.71570700  1
  H  1009  1  0.07775700  0.34863500  0.73073000  1
  H  1011  1  0.94523200  0.33354600  0.77659400  1
  H  1012  1  0.97942700  0.34214800  0.78771300  1
  H  1019  1  0.58298500  0.65562300  0.23102400  1
  H  1026  1  0.41915000  0.64515500  0.28139200  1
  H  1027  1  0.48642200  0.60376300  0.33185400  1
  H  1028  1  0.52892600  0.60340800  0.17495100  1
  H  1030  1  0.46313400  0.65443800  0.21587800  1
  H  1031  1  0.42962700  0.65867500  0.23094800  1
  H  1033  1  0.56216600  0.67371400  0.27675100  1
  H  1034  1  0.52796400  0.66509900  0.28784800  1
  H  1041  1  0.42440100  0.15569100  0.27622200  1
  H  1048  1  0.58830400  0.14505000  0.22612600  1
  H  1049  1  0.52093600  0.10399800  0.17544600  1
  H  1050  1  0.47831600  0.10341500  0.33238300  1
  H  1052  1  0.54424400  0.15422200  0.29162100  1
  H  1053  1  0.57778500  0.15841800  0.27661700  1
  H  1055  1  0.44539600  0.17395000  0.23065500  1
  H  1056  1  0.47959800  0.16527200  0.21960500  1
  H  1063  1  0.02319300  0.33117300  0.40410900  1
  H  1070  1  0.98531200  0.17658200  0.40126200  1
  H  1071  1  0.92748700  0.22319500  0.34404100  1
  H  1072  1  0.07942300  0.28759600  0.34301600  1
  H  1074  1  0.04427700  0.22982000  0.39741600  1
  H  1075  1  0.03346400  0.19722200  0.41112500  1
  H  1077  1  0.97554800  0.30980100  0.41460500  1
  H  1078  1  0.96450600  0.27770600  0.39993400  1
  H  1085  1  0.48411200  0.67611400  0.90406800  1
  H  1092  1  0.52210200  0.83071700  0.90132600  1
  H  1093  1  0.57986400  0.78414800  0.84392400  1
  H  1094  1  0.42789900  0.71974700  0.84303100  1
  H  1096  1  0.46313400  0.77748200  0.89749800  1
  H  1097  1  0.47394100  0.81009700  0.91116900  1
  H  1099  1  0.53180600  0.69743500  0.91454600  1
  H  1100  1  0.54285400  0.72954700  0.89991600  1
  H  1107  1  0.98422000  0.83129300  0.10331900  1
  H  1114  1  0.02221700  0.67672300  0.10594000  1
  H  1115  1  0.07984100  0.72314900  0.16351600  1
  H  1116  1  0.92784400  0.78747400  0.16405300  1
  H  1118  1  0.96328500  0.72999400  0.10962400  1
  H  1119  1  0.97411000  0.69738600  0.09595500  1
  H  1121  1  0.03196200  0.81001900  0.09295600  1
  H  1122  1  0.04298000  0.77789300  0.10758200  1
  H  1129  1  0.52302800  0.17610000  0.60306500  1
  H  1136  1  0.48530100  0.33077200  0.60605100  1
  H  1137  1  0.42747000  0.28406000  0.66323700  1
  H  1138  1  0.57942400  0.21959800  0.66408600  1
  H  1140  1  0.54422400  0.27746800  0.60976400  1
  H  1141  1  0.53346000  0.31012500  0.59616200  1
  H  1143  1  0.47536100  0.19752200  0.59270400  1
  H  1144  1  0.46443600  0.22967100  0.60733700  1
  H  1151  1  0.40412900  0.02320100  0.33112900  1
  H  1158  1  0.40125100  0.98529600  0.17650800  1
  H  1159  1  0.34401600  0.92746100  0.22317300  1
  H  1160  1  0.34303400  0.07942700  0.28754900  1
  H  1162  1  0.39743800  0.04426100  0.22977600  1
  H  1163  1  0.41112900  0.03345300  0.19716900  1
  H  1165  1  0.41462300  0.97555400  0.30976100  1
  H  1166  1  0.39995000  0.96450900  0.27766800  1
  H  1173  1  0.90406100  0.48409200  0.67610900  1
  H  1180  1  0.90134200  0.52212000  0.83071900  1
  H  1181  1  0.84394200  0.57986800  0.78413500  1
  H  1182  1  0.84304900  0.42788100  0.71978300  1
  H  1184  1  0.89752000  0.46314100  0.77749800  1
  H  1185  1  0.91118900  0.47395400  0.81011000  1
  H  1187  1  0.91455300  0.53178600  0.69742100  1
  H  1188  1  0.89993600  0.54283800  0.72953800  1
  H  1195  1  0.10331200  0.98423600  0.83128000  1
  H  1202  1  0.10597200  0.02220700  0.67669600  1
  H  1203  1  0.16351800  0.07984500  0.72314000  1
  H  1204  1  0.16404900  0.92785100  0.78747900  1
  H  1206  1  0.10964100  0.96328100  0.72997400  1
  H  1207  1  0.09598500  0.97410100  0.69735700  1
  H  1209  1  0.09295100  0.03197300  0.80999700  1
  H  1210  1  0.10758000  0.04298500  0.77787100  1
  H  1217  1  0.60307600  0.52301500  0.17607500  1
  H  1224  1  0.60602000  0.48530400  0.33070500  1
  H  1225  1  0.66322000  0.42749700  0.28405700  1
  H  1226  1  0.66409000  0.57941900  0.21956900  1
  H  1228  1  0.60976800  0.54423300  0.27743400  1
  H  1229  1  0.59614200  0.53345500  0.31007800  1
  H  1231  1  0.59271800  0.47534700  0.19749800  1
  H  1232  1  0.60735300  0.46442500  0.22964800  1
  H  1239  1  0.33114400  0.40411300  0.02322200  1
  H  1246  1  0.17653100  0.40124500  0.98527600  1
  H  1247  1  0.22320800  0.34400000  0.92745800  1
  H  1248  1  0.28754700  0.34301800  0.07943500  1
  H  1250  1  0.22978500  0.39743400  0.04425500  1
  H  1251  1  0.19718100  0.41112700  0.03343800  1
  H  1253  1  0.30978500  0.41461200  0.97557000  1
  H  1254  1  0.27769500  0.39994100  0.96451800  1
  H  1261  1  0.67609600  0.90407400  0.48410500  1
  H  1268  1  0.83073700  0.90131700  0.52209700  1
  H  1269  1  0.78412600  0.84399100  0.57989700  1
  H  1270  1  0.71975800  0.84304900  0.42790600  1
  H  1272  1  0.77750000  0.89749600  0.46313600  1
  H  1273  1  0.81012400  0.91114700  0.47393200  1
  H  1275  1  0.69741500  0.91457800  0.53179200  1
  H  1276  1  0.72953400  0.89996700  0.54284500  1
  H  1283  1  0.83130400  0.10330300  0.98425600  1
  H  1290  1  0.67671200  0.10592700  0.02221600  1
  H  1291  1  0.72314700  0.16345100  0.07988300  1
  H  1292  1  0.78748600  0.16404100  0.92788500  1
  H  1294  1  0.72999600  0.10962400  0.96329900  1
  H  1295  1  0.69737900  0.09596000  0.97411000  1
  H  1297  1  0.81002600  0.09292800  0.03199200  1
  H  1298  1  0.77789800  0.10754700  0.04300900  1
  H  1305  1  0.17609700  0.60309400  0.52302600  1
  H  1312  1  0.33072000  0.60606900  0.48530400  1
  H  1313  1  0.28406600  0.66329100  0.42752400  1
  H  1314  1  0.21957400  0.66411300  0.57943700  1
  H  1316  1  0.27745400  0.60979300  0.54423800  1
  H  1317  1  0.31009800  0.59617300  0.53345500  1
  H  1319  1  0.19752700  0.59274400  0.47535600  1
  H  1320  1  0.22967500  0.60738900  0.46444000  1
  H  1327  1  0.08093000  0.27607900  0.85204700  1
  H  1334  1  0.92684900  0.23260200  0.85477500  1
  H  1335  1  0.97547800  0.17697600  0.91252200  1
  H  1336  1  0.03524100  0.33009300  0.91362200  1
  H  1338  1  0.97866800  0.29298000  0.85715700  1
  H  1339  1  0.94625200  0.28112000  0.84385700  1
  H  1341  1  0.06086400  0.22801200  0.84054200  1
  H  1342  1  0.02895300  0.21589500  0.85478900  1
  H  1349  1  0.42646100  0.73113000  0.35200100  1
  H  1356  1  0.58054900  0.77472500  0.35484700  1
  H  1357  1  0.53184600  0.83037300  0.41258300  1
  H  1358  1  0.47209500  0.67723700  0.41369400  1
  H  1360  1  0.52872700  0.71434700  0.35720300  1
  H  1361  1  0.56118600  0.72618100  0.34398300  1
  H  1363  1  0.44649400  0.77922600  0.34047100  1
  H  1364  1  0.47839700  0.79137400  0.35471800  1
  H  1371  1  0.58095800  0.23126000  0.15524400  1
  H  1378  1  0.42688300  0.27483600  0.15251000  1
  H  1379  1  0.47546300  0.33032100  0.09458600  1
  H  1380  1  0.53512500  0.17713100  0.09392700  1
  H  1382  1  0.47872500  0.21448000  0.15031300  1
  H  1383  1  0.44627600  0.22634200  0.16352500  1
  H  1385  1  0.56096200  0.27940300  0.16663200  1
  H  1386  1  0.52904000  0.29150500  0.15239400  1
  H  1393  1  0.92635300  0.77594400  0.65536600  1
  H  1400  1  0.08051200  0.73257600  0.65251800  1
  H  1401  1  0.03176300  0.67693300  0.59484100  1
  H  1402  1  0.97199400  0.83009700  0.59386100  1
  H  1404  1  0.02865100  0.79293200  0.65023400  1
  H  1405  1  0.06112000  0.78111200  0.66343800  1
  H  1407  1  0.94645300  0.72784800  0.66675800  1
  H  1408  1  0.97841800  0.71582900  0.65255100  1
  H  1415  1  0.77609200  0.65523000  0.92639100  1
  H  1422  1  0.73256100  0.65248700  0.08052800  1
  H  1423  1  0.67691300  0.59478300  0.03179900  1
  H  1424  1  0.83009700  0.59369100  0.97213000  1
  H  1426  1  0.79295500  0.65012900  0.02869800  1
  H  1427  1  0.78109400  0.66340500  0.06112500  1
  H  1429  1  0.72801800  0.66674700  0.94643500  1
  H  1430  1  0.71589200  0.65251600  0.97835100  1
  H  1437  1  0.23111100  0.15526100  0.58087300  1
  H  1444  1  0.27475100  0.15244700  0.42674700  1
  H  1445  1  0.33037000  0.09472200  0.47549700  1
  H  1446  1  0.17717400  0.09367700  0.53514500  1
  H  1448  1  0.21435100  0.15012400  0.47854400  1
  H  1449  1  0.22620200  0.16332800  0.44608600  1
  H  1451  1  0.27921800  0.16678000  0.56086200  1
  H  1452  1  0.29136200  0.15256300  0.52894800  1
  H  1459  1  0.73129100  0.35205700  0.42636500  1
  H  1466  1  0.77483000  0.35479800  0.58043100  1
  H  1467  1  0.83034700  0.41271900  0.53187700  1
  H  1468  1  0.67719200  0.41343800  0.47214800  1
  H  1470  1  0.71449400  0.35702000  0.52856900  1
  H  1471  1  0.72634400  0.34379700  0.56102000  1
  H  1473  1  0.77942200  0.34064700  0.44638000  1
  H  1474  1  0.79152200  0.35489400  0.47830100  1
  H  1481  1  0.27592500  0.85193800  0.08097200  1
  H  1488  1  0.23260400  0.85473300  0.92686000  1
  H  1489  1  0.17698100  0.91246100  0.97550300  1
  H  1490  1  0.33008400  0.91346100  0.03535800  1
  H  1492  1  0.29294700  0.85705200  0.97871300  1
  H  1493  1  0.28112200  0.84381400  0.94625700  1
  H  1495  1  0.22783100  0.84055100  0.06085800  1
  H  1496  1  0.21582100  0.85476600  0.02889300  1
  H  1503  1  0.15524700  0.58087500  0.23115300  1
  H  1510  1  0.15246200  0.42676300  0.27472200  1
  H  1511  1  0.09472400  0.47550100  0.33032500  1
  H  1512  1  0.09369000  0.53515400  0.17714800  1
  H  1514  1  0.15013100  0.47857800  0.21431200  1
  H  1515  1  0.16340100  0.44615500  0.22618600  1
  H  1517  1  0.16674800  0.56082800  0.27923100  1
  H  1518  1  0.15250100  0.52891900  0.29135900  1
  H  1525  1  0.65525000  0.92637600  0.77615600  1
  H  1532  1  0.65246900  0.08052400  0.73254700  1
  H  1533  1  0.59479100  0.03178000  0.67687500  1
  H  1534  1  0.59365500  0.97211200  0.83007000  1
  H  1536  1  0.65011400  0.02871000  0.79293200  1
  H  1537  1  0.66332200  0.06117200  0.78109900  1
  H  1539  1  0.66678500  0.94638000  0.72805200  1
  H  1540  1  0.65258000  0.97830000  0.71590300  1
  H  1547  1  0.85207000  0.08101000  0.27597900  1
  H  1554  1  0.85471300  0.92693400  0.23245700  1
  H  1555  1  0.91265300  0.97545200  0.17692900  1
  H  1556  1  0.91339900  0.03517700  0.33009300  1
  H  1558  1  0.85697000  0.97880000  0.29279000  1
  H  1559  1  0.84372700  0.94635500  0.28094300  1
  H  1561  1  0.84065800  0.06100700  0.22784500  1
  H  1562  1  0.85488200  0.02907700  0.21574600  1
  H  1569  1  0.35191200  0.42640500  0.73134400  1
  H  1576  1  0.35482700  0.58049300  0.77467400  1
  H  1577  1  0.41253600  0.53181900  0.83028900  1
  H  1578  1  0.41351800  0.47193600  0.67721000  1
  H  1580  1  0.35711600  0.52864000  0.71433100  1
  H  1581  1  0.34389600  0.56110300  0.72615400  1
  H  1583  1  0.34052500  0.44654100  0.77943100  1
  H  1584  1  0.35477200  0.47849100  0.79144400  1
  C  1  1  0.13396200  0.39264100  0.37089400  1
  C  2  1  0.15649100  0.40990400  0.38560700  1
  C  3  1  0.16964100  0.43572300  0.37302300  1
  C  4  1  0.15816700  0.44691800  0.34594000  1
  C  5  1  0.13481500  0.43190800  0.33112200  1
  C  6  1  0.12482600  0.40397500  0.34222400  1
  C  9  1  0.12092400  0.36559000  0.38460900  1
  C  10  1  0.13483900  0.34846300  0.40801300  1
  C  11  1  0.12028400  0.32394300  0.42202100  1
  C  12  1  0.09330300  0.31310900  0.40992600  1
  C  13  1  0.07940800  0.32821600  0.38613200  1
  C  14  1  0.09228900  0.35486500  0.37538300  1
  C  23  1  0.37335800  0.61470200  0.87087300  1
  C  24  1  0.35082700  0.59742800  0.88557000  1
  C  25  1  0.33767800  0.57161500  0.87296900  1
  C  26  1  0.34916200  0.56043100  0.84588600  1
  C  27  1  0.37250800  0.57545900  0.83107700  1
  C  28  1  0.38247700  0.60339700  0.84218300  1
  C  31  1  0.38640400  0.64174000  0.88461100  1
  C  32  1  0.37250800  0.65884900  0.90804100  1
  C  33  1  0.38707800  0.68335100  0.92206700  1
  C  34  1  0.41405600  0.69418900  0.90997000  1
  C  35  1  0.42791000  0.67912700  0.88612600  1
  C  36  1  0.41502900  0.65248200  0.87536600  1
  C  45  1  0.87327000  0.89260200  0.13642100  1
  C  46  1  0.85073000  0.90985000  0.12170600  1
  C  47  1  0.83755300  0.93565300  0.13429800  1
  C  48  1  0.84907600  0.94690900  0.16133200  1
  C  49  1  0.87240900  0.93189000  0.17617000  1
  C  50  1  0.88239400  0.90394500  0.16509200  1
  C  53  1  0.88633800  0.86556400  0.12270400  1
  C  54  1  0.87244900  0.84843800  0.09928500  1
  C  55  1  0.88703300  0.82394000  0.08526800  1
  C  56  1  0.91403100  0.81313500  0.09735000  1
  C  57  1  0.92786900  0.82820600  0.12119700  1
  C  58  1  0.91497500  0.85485100  0.13194300  1
  C  67  1  0.63397100  0.11468400  0.63636200  1
  C  68  1  0.65654000  0.09745500  0.62166400  1
  C  69  1  0.66971100  0.07164000  0.63424600  1
  C  70  1  0.65823300  0.06042800  0.66132000  1
  C  71  1  0.63485300  0.07540800  0.67612700  1
  C  72  1  0.62483700  0.10333300  0.66502600  1
  C  75  1  0.62089900  0.14171900  0.62264200  1
  C  76  1  0.63480600  0.15887400  0.59925400  1
  C  77  1  0.62022200  0.18336600  0.58522600  1
  C  78  1  0.59320600  0.19415100  0.59728700  1
  C  79  1  0.57932400  0.17903900  0.62108600  1
  C  80  1  0.59224400  0.15241300  0.63185500  1
  C  89  1  0.37092300  0.13396600  0.39261200  1
  C  90  1  0.38562700  0.15650500  0.40987000  1
  C  91  1  0.37304600  0.16965200  0.43569400  1
  C  92  1  0.34597200  0.15816400  0.44689600  1
  C  93  1  0.33116000  0.13480500  0.43189000  1
  C  94  1  0.34225900  0.12482000  0.40395500  1
  C  97  1  0.38463600  0.12092800  0.36555800  1
  C  98  1  0.40804200  0.13484000  0.34842900  1
  C  99  1  0.42204300  0.12028800  0.32390500  1
  C  100  1  0.40994200  0.09331100  0.31306700  1
  C  101  1  0.38614900  0.07941600  0.32817300  1
  C  102  1  0.37540500  0.09229500  0.35483000  1
  C  111  1  0.87088600  0.37332700  0.61471700  1
  C  112  1  0.88557700  0.35077300  0.59746100  1
  C  113  1  0.87299300  0.33763200  0.57163800  1
  C  114  1  0.84593300  0.34913900  0.56042200  1
  C  115  1  0.83111900  0.37248500  0.57544400  1
  C  116  1  0.84221400  0.38246200  0.60338400  1
  C  119  1  0.88462000  0.38637500  0.64175800  1
  C  120  1  0.90805200  0.37248500  0.65887100  1
  C  121  1  0.92207800  0.38706200  0.68336900  1
  C  122  1  0.90997700  0.41403800  0.69420500  1
  C  123  1  0.88613100  0.42788800  0.67914500  1
  C  124  1  0.87537300  0.41500000  0.65250000  1
  C  133  1  0.13642100  0.87329900  0.89261100  1
  C  134  1  0.12170000  0.85077700  0.90987900  1
  C  135  1  0.13430800  0.83759500  0.93567300  1
  C  136  1  0.16136800  0.84909200  0.94689300  1
  C  137  1  0.17620200  0.87242400  0.93186700  1
  C  138  1  0.16510900  0.88240100  0.90392500  1
  C  141  1  0.12269700  0.88636100  0.86557500  1
  C  142  1  0.09927300  0.87246900  0.84845500  1
  C  143  1  0.08525800  0.88704600  0.82395100  1
  C  144  1  0.09734200  0.91404200  0.81314000  1
  C  145  1  0.12119100  0.92788200  0.82820800  1
  C  146  1  0.13193900  0.91499300  0.85485600  1
  C  155  1  0.63637600  0.63396200  0.11467500  1
  C  156  1  0.62166900  0.65651600  0.09743900  1
  C  157  1  0.63424800  0.66968700  0.07162600  1
  C  158  1  0.66133300  0.65822800  0.06042400  1
  C  159  1  0.67615200  0.63485800  0.07541100  1
  C  160  1  0.66504100  0.62483000  0.10332800  1
  C  163  1  0.62265300  0.62089000  0.14170600  1
  C  164  1  0.59927000  0.63480200  0.15886200  1
  C  165  1  0.58523500  0.62021300  0.18334900  1
  C  166  1  0.59729200  0.59319300  0.19412900  1
  C  167  1  0.62109100  0.57931000  0.17901600  1
  C  168  1  0.63186400  0.59223500  0.15239400  1
  C  177  1  0.39260500  0.37087300  0.13398900  1
  C  178  1  0.40986100  0.38556900  0.15653700  1
  C  179  1  0.43569600  0.37299200  0.16966800  1
  C  180  1  0.44691200  0.34593400  0.15815700  1
  C  181  1  0.43189000  0.33111500  0.13481300  1
  C  182  1  0.40395500  0.34221900  0.12482600  1
  C  185  1  0.36555400  0.38459300  0.12095200  1
  C  186  1  0.34842900  0.40799700  0.13486800  1
  C  187  1  0.32391200  0.42201200  0.12031400  1
  C  188  1  0.31307600  0.40992200  0.09333200  1
  C  189  1  0.32817800  0.38612700  0.07943500  1
  C  190  1  0.35482700  0.37537200  0.09231500  1
  C  199  1  0.61469300  0.87091300  0.37334000  1
  C  200  1  0.59743500  0.88561300  0.35079600  1
  C  201  1  0.57162200  0.87302000  0.33763400  1
  C  202  1  0.56042400  0.84594400  0.34912100  1
  C  203  1  0.57543300  0.83113700  0.37248100  1
  C  204  1  0.60337300  0.84223200  0.38245500  1
  C  207  1  0.64173600  0.88463700  0.38639300  1
  C  208  1  0.65885300  0.90806400  0.37250300  1
  C  209  1  0.68335500  0.92208100  0.38707800  1
  C  210  1  0.69419100  0.90997700  0.41405200  1
  C  211  1  0.67912500  0.88613500  0.42790300  1
  C  212  1  0.65247500  0.87538700  0.41501800  1
  C  221  1  0.89261400  0.13640000  0.87330800  1
  C  222  1  0.90987200  0.12166800  0.85078600  1
  C  223  1  0.93566200  0.13426900  0.83758800  1
  C  224  1  0.94689100  0.16133100  0.84907600  1
  C  225  1  0.93187800  0.17616800  0.87241500  1
  C  226  1  0.90393600  0.16508600  0.88240300  1
  C  229  1  0.86557800  0.12268700  0.88637600  1
  C  230  1  0.84845100  0.09927200  0.87248400  1
  C  231  1  0.82394900  0.08525900  0.88706600  1
  C  232  1  0.81314600  0.09734000  0.91406600  1
  C  233  1  0.82821700  0.12118600  0.92790700  1
  C  234  1  0.85486700  0.13193000  0.91501300  1
  C  243  1  0.11467600  0.63641600  0.63396000  1
  C  244  1  0.09743100  0.62171800  0.65651100  1
  C  245  1  0.07161400  0.63430400  0.66967100  1
  C  246  1  0.06041700  0.66138700  0.65820100  1
  C  247  1  0.07541700  0.67620100  0.63483800  1
  C  248  1  0.10334100  0.66508600  0.62482800  1
  C  251  1  0.14170700  0.62268200  0.62089400  1
  C  252  1  0.15885500  0.59929200  0.63480600  1
  C  253  1  0.18334500  0.58525300  0.62022500  1
  C  254  1  0.19413200  0.59731000  0.59320600  1
  C  255  1  0.17902400  0.62110900  0.57932100  1
  C  256  1  0.15240200  0.63188900  0.59224000  1
  C  265  1  0.14143800  0.38555300  0.88847700  1
  C  266  1  0.15899600  0.40825900  0.87441100  1
  C  267  1  0.18463900  0.42108600  0.88765800  1
  C  268  1  0.19578700  0.40869800  0.91431600  1
  C  269  1  0.18054600  0.38504400  0.92842000  1
  C  270  1  0.15256000  0.37559900  0.91696600  1
  C  273  1  0.11438400  0.37307500  0.87424800  1
  C  274  1  0.09759500  0.38760900  0.85096700  1
  C  275  1  0.07286000  0.37372600  0.83664900  1
  C  276  1  0.06193300  0.34638200  0.84786400  1
  C  277  1  0.07678800  0.33182500  0.87141300  1
  C  278  1  0.10338700  0.34431500  0.88272200  1
  C  287  1  0.36589800  0.62178500  0.38851100  1
  C  288  1  0.34832500  0.59909300  0.37444500  1
  C  289  1  0.32266800  0.58629100  0.38768800  1
  C  290  1  0.31152900  0.59868900  0.41434400  1
  C  291  1  0.32679400  0.62232300  0.42845500  1
  C  292  1  0.35479400  0.63173900  0.41700700  1
  C  295  1  0.39296500  0.63423000  0.37428000  1
  C  296  1  0.40977700  0.61964000  0.35105000  1
  C  297  1  0.43451800  0.63349600  0.33671900  1
  C  298  1  0.44547600  0.66083100  0.34792700  1
  C  299  1  0.43060900  0.67543300  0.37144300  1
  C  300  1  0.40397000  0.66299600  0.38272100  1
  C  309  1  0.64140500  0.12168300  0.11884300  1
  C  310  1  0.65896300  0.09898100  0.13291600  1
  C  311  1  0.68463200  0.08617900  0.11969500  1
  C  312  1  0.69581600  0.09861100  0.09307200  1
  C  313  1  0.68054500  0.12222400  0.07893500  1
  C  314  1  0.65253800  0.13164300  0.09036000  1
  C  317  1  0.61434700  0.13415700  0.13307000  1
  C  318  1  0.59754600  0.11960400  0.15633100  1
  C  319  1  0.57284100  0.13350000  0.17068500  1
  C  320  1  0.56191300  0.16085300  0.15949100  1
  C  321  1  0.57674300  0.17539700  0.13591700  1
  C  322  1  0.60335500  0.16292400  0.12461800  1
  C  331  1  0.86588100  0.88555000  0.61888500  1
  C  332  1  0.84833000  0.90825800  0.63296200  1
  C  333  1  0.82267600  0.92108900  0.61973300  1
  C  334  1  0.81151900  0.90870000  0.59307900  1
  C  335  1  0.82676800  0.88506600  0.57894800  1
  C  336  1  0.85475700  0.87561400  0.59039100  1
  C  339  1  0.89292800  0.87304700  0.63311000  1
  C  340  1  0.90973800  0.88757700  0.65637700  1
  C  341  1  0.93446100  0.87367900  0.67070000  1
  C  342  1  0.94535500  0.84631000  0.65950700  1
  C  343  1  0.93049400  0.83176200  0.63595100  1
  C  344  1  0.90390900  0.84428100  0.62463600  1
  C  353  1  0.88555500  0.61887800  0.86587200  1
  C  354  1  0.90822200  0.63298200  0.84829300  1
  C  355  1  0.92103800  0.61976700  0.82262700  1
  C  356  1  0.90865100  0.59311000  0.81147000  1
  C  357  1  0.88504800  0.57896000  0.82674600  1
  C  358  1  0.87562800  0.59038000  0.85475300  1
  C  361  1  0.87307800  0.63308300  0.89294200  1
  C  362  1  0.88760200  0.65637100  0.90972900  1
  C  363  1  0.87372800  0.67066000  0.93448100  1
  C  364  1  0.84638600  0.65943400  0.94540900  1
  C  365  1  0.83184000  0.63587600  0.93055700  1
  C  366  1  0.84433200  0.62458000  0.90395200  1
  C  375  1  0.12173800  0.11883300  0.64141000  1
  C  376  1  0.09905200  0.13291200  0.65898500  1
  C  377  1  0.08625700  0.11969000  0.68465700  1
  C  378  1  0.09868200  0.09306000  0.69582800  1
  C  379  1  0.12228600  0.07892000  0.68054500  1
  C  380  1  0.13168800  0.09034200  0.65252900  1
  C  383  1  0.13418900  0.13305200  0.61433600  1
  C  384  1  0.11962000  0.15630600  0.59753700  1
  C  385  1  0.13348400  0.17063400  0.57279800  1
  C  386  1  0.16082100  0.15942800  0.56184600  1
  C  387  1  0.17539300  0.13587700  0.57668500  1
  C  388  1  0.16294200  0.12458600  0.60331200  1
  C  397  1  0.62173100  0.38850900  0.36590200  1
  C  398  1  0.59902200  0.37445000  0.34834500  1
  C  399  1  0.58620600  0.38769600  0.32269500  1
  C  400  1  0.59861300  0.41434400  0.31154000  1
  C  401  1  0.62225800  0.42844800  0.32679100  1
  C  402  1  0.63168800  0.41700100  0.35478500  1
  C  405  1  0.63420400  0.37427100  0.39295400  1
  C  406  1  0.61963700  0.35102600  0.40976300  1
  C  407  1  0.63352500  0.33667600  0.43447800  1
  C  408  1  0.66087600  0.34787400  0.44540700  1
  C  409  1  0.67544200  0.37142000  0.43055800  1
  C  410  1  0.66297900  0.38270900  0.40393700  1
  C  419  1  0.38554400  0.88847900  0.14141800  1
  C  420  1  0.40827200  0.87442700  0.15896000  1
  C  421  1  0.42111000  0.88768000  0.18459500  1
  C  422  1  0.40871800  0.91433700  0.19574400  1
  C  423  1  0.38506000  0.92843800  0.18050900  1
  C  424  1  0.37559000  0.91696800  0.15253700  1
  C  427  1  0.37303900  0.87423500  0.11438400  1
  C  428  1  0.38757600  0.85096900  0.09757600  1
  C  429  1  0.37367100  0.83662800  0.07286700  1
  C  430  1  0.34629100  0.84780600  0.06198300  1
  C  431  1  0.33174000  0.87135700  0.07684000  1
  C  432  1  0.34426400  0.88268900  0.10341600  1
  C  441  1  0.11883100  0.64142300  0.12172200  1
  C  442  1  0.13292100  0.65900300  0.09904600  1
  C  443  1  0.11970700  0.68467900  0.08625400  1
  C  444  1  0.09307700  0.69585700  0.09867800  1
  C  445  1  0.07892500  0.68056500  0.12227000  1
  C  446  1  0.09034900  0.65255600  0.13168300  1
  C  449  1  0.13304400  0.61435100  0.13418000  1
  C  450  1  0.15631700  0.59756400  0.11963000  1
  C  451  1  0.17063200  0.57282100  0.13349600  1
  C  452  1  0.15942500  0.56188000  0.16083800  1
  C  453  1  0.13587800  0.57672500  0.17540700  1
  C  454  1  0.12456900  0.60333500  0.16293200  1
  C  463  1  0.61886700  0.86586800  0.88555000  1
  C  464  1  0.63296500  0.84828800  0.90822200  1
  C  465  1  0.61973800  0.82262900  0.92104300  1
  C  466  1  0.59308800  0.81147200  0.90864600  1
  C  467  1  0.57894200  0.82674800  0.88503900  1
  C  468  1  0.59035800  0.85476400  0.87563400  1
  C  471  1  0.63307400  0.89293500  0.87308300  1
  C  472  1  0.65633300  0.90973800  0.88763500  1
  C  473  1  0.67064000  0.93447900  0.87375900  1
  C  474  1  0.65941100  0.94542600  0.84642800  1
  C  475  1  0.63586000  0.93057700  0.83186900  1
  C  476  1  0.62458900  0.90394700  0.84433000  1
  C  485  1  0.88847900  0.14140600  0.38559100  1
  C  486  1  0.87441300  0.15895600  0.40830300  1
  C  487  1  0.88766000  0.18459600  0.42113700  1
  C  488  1  0.91431000  0.19575300  0.40874100  1
  C  489  1  0.92841800  0.18051200  0.38508900  1
  C  490  1  0.91697500  0.15252000  0.37564800  1
  C  493  1  0.87424400  0.11436500  0.37309700  1
  C  494  1  0.85097600  0.09756300  0.38763600  1
  C  495  1  0.83662400  0.07286500  0.37372400  1
  C  496  1  0.84782800  0.06194900  0.34636900  1
  C  497  1  0.87140200  0.07678600  0.33183600  1
  C  498  1  0.88269700  0.10339200  0.34432400  1
  C  507  1  0.38852000  0.36588400  0.62178500  1
  C  508  1  0.37447600  0.34833800  0.59905500  1
  C  509  1  0.38772500  0.32269000  0.58624200  1
  C  510  1  0.41438400  0.31154900  0.59863600  1
  C  511  1  0.42847700  0.32678700  0.62229400  1
  C  512  1  0.41700500  0.35476300  0.63175500  1
  C  515  1  0.37427100  0.39292700  0.63426600  1
  C  516  1  0.35103700  0.40974800  0.61969600  1
  C  517  1  0.33669000  0.43446600  0.63358100  1
  C  518  1  0.34786200  0.44537100  0.66095200  1
  C  519  1  0.37137800  0.43049300  0.67554200  1
  C  520  1  0.38269800  0.40389700  0.66304800  1
  C  529  1  0.30773800  0.56066100  0.37624500  1
  C  530  1  0.31326800  0.53274800  0.38984600  1
  C  532  1  0.26526300  0.51371700  0.37564000  1
  C  533  1  0.25870500  0.54081100  0.36026500  1
  C  534  1  0.28013500  0.56409900  0.36137000  1
  C  536  1  0.24421200  0.49029500  0.38003300  1
  C  537  1  0.24838200  0.46031300  0.37037600  1
  C  538  1  0.22379100  0.44046700  0.37276900  1
  C  539  1  0.19591500  0.44960400  0.38449300  1
  C  540  1  0.19403600  0.47910000  0.39544900  1
  C  551  1  0.19955700  0.44673500  0.87621900  1
  C  552  1  0.19404100  0.47464400  0.88982300  1
  C  554  1  0.24204500  0.49361900  0.87556700  1
  C  555  1  0.24859200  0.46650100  0.86022400  1
  C  556  1  0.22713900  0.44323300  0.86132300  1
  C  558  1  0.26311600  0.51703000  0.87992500  1
  C  559  1  0.25895500  0.54701900  0.87027900  1
  C  560  1  0.28352800  0.56688500  0.87273000  1
  C  561  1  0.31140600  0.55772300  0.88443000  1
  C  562  1  0.31328600  0.52822500  0.89537300  1
  C  573  1  0.69961800  0.06058900  0.13120300  1
  C  574  1  0.69402600  0.03271400  0.11754900  1
  C  576  1  0.74203300  0.01367700  0.13178000  1
  C  577  1  0.74860700  0.04076800  0.14716000  1
  C  578  1  0.72717900  0.06406000  0.14611300  1
  C  580  1  0.76308800  0.99027000  0.12732800  1
  C  581  1  0.75895600  0.96028100  0.13699200  1
  C  582  1  0.78352300  0.94041300  0.13450100  1
  C  583  1  0.81136100  0.94962800  0.12271700  1
  C  584  1  0.81322500  0.97909300  0.11172400  1
  C  595  1  0.80770400  0.94669400  0.63123500  1
  C  596  1  0.81333400  0.97457000  0.61759900  1
  C  598  1  0.76530700  0.99363600  0.63174800  1
  C  599  1  0.75870600  0.96655100  0.64713300  1
  C  600  1  0.78012600  0.94324500  0.64612200  1
  C  602  1  0.74427000  0.01706700  0.62729200  1
  C  603  1  0.74844400  0.04707100  0.63688500  1
  C  604  1  0.72387700  0.06694300  0.63441600  1
  C  605  1  0.69598400  0.05775600  0.62276500  1
  C  606  1  0.69410600  0.02827500  0.61176000  1
  C  617  1  0.37630000  0.30777400  0.56058300  1
  C  618  1  0.38987300  0.31332800  0.53267000  1
  C  620  1  0.37566200  0.26530100  0.51367900  1
  C  621  1  0.36030800  0.25874900  0.54079100  1
  C  622  1  0.36141900  0.28018200  0.56407400  1
  C  624  1  0.38004400  0.24424100  0.49026200  1
  C  625  1  0.37037600  0.24839800  0.46028100  1
  C  626  1  0.37276700  0.22380400  0.44043800  1
  C  627  1  0.38450400  0.19593400  0.44957500  1
  C  628  1  0.39546700  0.19406400  0.47906900  1
  C  639  1  0.87619500  0.19954100  0.44677100  1
  C  640  1  0.88982300  0.19398600  0.47465500  1
  C  642  1  0.87557600  0.24199300  0.49364400  1
  C  643  1  0.86021800  0.24855200  0.46653200  1
  C  644  1  0.86129400  0.22710800  0.44325500  1
  C  646  1  0.87994100  0.26306000  0.51705700  1
  C  647  1  0.87027200  0.25890600  0.54704200  1
  C  648  1  0.87272600  0.28347900  0.56690700  1
  C  649  1  0.88444800  0.31135000  0.55775500  1
  C  650  1  0.89541300  0.31321900  0.52826300  1
  C  661  1  0.13123100  0.69968300  0.06069100  1
  C  662  1  0.11754600  0.69412400  0.03281400  1
  C  664  1  0.13177800  0.74210900  0.01373800  1
  C  665  1  0.14717900  0.74868300  0.04081400  1
  C  666  1  0.14613500  0.72725700  0.06410700  1
  C  668  1  0.12732200  0.76316000  0.99032600  1
  C  669  1  0.13695700  0.75900500  0.96033000  1
  C  670  1  0.13446900  0.78356600  0.94045300  1
  C  671  1  0.12271700  0.81141600  0.94966600  1
  C  672  1  0.11175100  0.81330300  0.97913900  1
  C  683  1  0.63125900  0.80763900  0.94661400  1
  C  684  1  0.61759700  0.81324700  0.97449400  1
  C  686  1  0.63174400  0.76524500  0.99360300  1
  C  687  1  0.64714700  0.75863700  0.96653300  1
  C  688  1  0.64613500  0.78005000  0.94322300  1
  C  690  1  0.62727700  0.74422000  0.01703900  1
  C  691  1  0.63685800  0.74840800  0.04704400  1
  C  692  1  0.63439100  0.72385000  0.06692300  1
  C  693  1  0.62275600  0.69595000  0.05773800  1
  C  694  1  0.61175500  0.69405700  0.02825700  1
  C  705  1  0.56057000  0.37623800  0.30775200  1
  C  706  1  0.53267900  0.38983700  0.31333700  1
  C  708  1  0.51368400  0.37560600  0.26531200  1
  C  709  1  0.54078600  0.36023600  0.25875600  1
  C  710  1  0.56408100  0.36133900  0.28018200  1
  C  712  1  0.49026400  0.37998800  0.24425500  1
  C  713  1  0.46028600  0.37031100  0.24841400  1
  C  714  1  0.44044500  0.37270200  0.22382000  1
  C  715  1  0.44957700  0.38444600  0.19595000  1
  C  716  1  0.47906600  0.39542000  0.19408200  1
  C  727  1  0.44675100  0.87622400  0.19953800  1
  C  728  1  0.47463100  0.88987000  0.19399400  1
  C  730  1  0.49362100  0.87561000  0.24199800  1
  C  731  1  0.46651600  0.86023800  0.24854500  1
  C  732  1  0.44324000  0.86130700  0.22709900  1
  C  734  1  0.51703400  0.87997400  0.26306700  1
  C  735  1  0.54702100  0.87031200  0.25891000  1
  C  736  1  0.56688900  0.87276600  0.28348100  1
  C  737  1  0.55773700  0.88448100  0.31135700  1
  C  738  1  0.52824300  0.89543700  0.31323000  1
  C  749  1  0.06067700  0.13118500  0.69963800  1
  C  750  1  0.03277700  0.11753200  0.69410600  1
  C  752  1  0.01371100  0.13174100  0.74209500  1
  C  753  1  0.04079600  0.14712100  0.74866900  1
  C  754  1  0.06408000  0.14606800  0.72723400  1
  C  756  1  0.99029900  0.12728500  0.76314800  1
  C  757  1  0.96030500  0.13692400  0.75899900  1
  C  758  1  0.94042800  0.13443100  0.78355900  1
  C  759  1  0.94964300  0.12267100  0.81141000  1
  C  760  1  0.97911700  0.11170100  0.81328900  1
  C  771  1  0.94661000  0.63129300  0.80763900  1
  C  772  1  0.97448900  0.61763100  0.81324000  1
  C  774  1  0.99359200  0.63178800  0.76523800  1
  C  775  1  0.96652200  0.64719400  0.75863700  1
  C  776  1  0.94321400  0.64617600  0.78005200  1
  C  778  1  0.01702600  0.62733000  0.74420900  1
  C  779  1  0.04703200  0.63690900  0.74839700  1
  C  780  1  0.06690800  0.63444700  0.72383500  1
  C  781  1  0.05771900  0.62281600  0.69593500  1
  C  782  1  0.02823700  0.61182200  0.69404200  1
  C  793  1  0.80887800  0.05936200  0.87622600  1
  C  794  1  0.81423600  0.03176200  0.89050200  1
  C  796  1  0.76646100  0.01252100  0.87591100  1
  C  797  1  0.76009900  0.03932100  0.85995700  1
  C  798  1  0.78157200  0.06258200  0.86078900  1
  C  800  1  0.74543300  0.98912200  0.88028700  1
  C  801  1  0.74940800  0.95934100  0.86999100  1
  C  802  1  0.72479900  0.93952900  0.87232200  1
  C  803  1  0.69713100  0.94845400  0.88470000  1
  C  804  1  0.69547900  0.97775500  0.89619900  1
  C  815  1  0.69840400  0.94799100  0.37625800  1
  C  816  1  0.69313300  0.97559900  0.39055600  1
  C  818  1  0.74087900  0.99482200  0.37591900  1
  C  819  1  0.74722100  0.96801100  0.35997500  1
  C  820  1  0.72571400  0.94478100  0.36080300  1
  C  822  1  0.76192500  0.01821600  0.38025800  1
  C  823  1  0.75792300  0.04801300  0.36998700  1
  C  824  1  0.78249200  0.06787200  0.37236200  1
  C  825  1  0.81013900  0.05886700  0.38469800  1
  C  826  1  0.81189200  0.02957800  0.39617500  1
  C  837  1  0.19851300  0.55945100  0.63115600  1
  C  838  1  0.19320900  0.53183700  0.61685200  1
  C  840  1  0.24097100  0.51258700  0.63146000  1
  C  841  1  0.24732600  0.53939800  0.64739200  1
  C  842  1  0.22582900  0.56263700  0.64658000  1
  C  844  1  0.26201700  0.48920100  0.62705600  1
  C  845  1  0.25804800  0.45940000  0.63730900  1
  C  846  1  0.28263100  0.43955800  0.63490000  1
  C  847  1  0.31029200  0.44855900  0.62252600  1
  C  848  1  0.31195700  0.47785000  0.61104500  1
  C  859  1  0.30879000  0.44784500  0.13122200  1
  C  860  1  0.31415000  0.47543400  0.11689000  1
  C  862  1  0.26639700  0.49476200  0.13142300  1
  C  863  1  0.25999900  0.46799000  0.14740800  1
  C  864  1  0.28147200  0.44472400  0.14665300  1
  C  866  1  0.24538900  0.51817100  0.12698500  1
  C  867  1  0.24938900  0.54797700  0.13720000  1
  C  868  1  0.22480600  0.56781800  0.13480900  1
  C  869  1  0.19710900  0.55883700  0.12253000  1
  C  870  1  0.19544100  0.52954900  0.11099700  1
  C  881  1  0.87619700  0.80886900  0.05936700  1
  C  882  1  0.89047700  0.81422700  0.03177000  1
  C  884  1  0.87588000  0.76645900  0.01251600  1
  C  885  1  0.85991900  0.76009700  0.03931400  1
  C  886  1  0.86075300  0.78156500  0.06257900  1
  C  888  1  0.88024600  0.74543500  0.98910900  1
  C  889  1  0.86996600  0.74943700  0.95932300  1
  C  890  1  0.87228800  0.72484400  0.93948800  1
  C  891  1  0.88464200  0.69718500  0.94843800  1
  C  892  1  0.89613600  0.69546800  0.97773300  1
  C  903  1  0.37625300  0.69839900  0.94797800  1
  C  904  1  0.39054700  0.69313300  0.97558800  1
  C  906  1  0.37589200  0.74087900  0.99481000  1
  C  907  1  0.35995300  0.74721200  0.96799600  1
  C  908  1  0.36079200  0.72570500  0.94476300  1
  C  910  1  0.38021600  0.76192700  0.01820600  1
  C  911  1  0.36995600  0.75792000  0.04800500  1
  C  912  1  0.37231800  0.78249000  0.06786600  1
  C  913  1  0.38463800  0.81014400  0.05886100  1
  C  914  1  0.39610600  0.81190500  0.02956900  1
  C  925  1  0.63114300  0.19852900  0.55942000  1
  C  926  1  0.61683100  0.19321500  0.53181200  1
  C  928  1  0.63142700  0.24097500  0.51254900  1
  C  929  1  0.64736800  0.24734000  0.53935300  1
  C  930  1  0.64656600  0.22584700  0.56259700  1
  C  932  1  0.62701500  0.26201100  0.48915900  1
  C  933  1  0.63727100  0.25803000  0.45935700  1
  C  934  1  0.63486000  0.28260000  0.43950000  1
  C  935  1  0.62249300  0.31023800  0.44853000  1
  C  936  1  0.61099200  0.31195300  0.47781000  1
  C  947  1  0.13119200  0.30881400  0.44785200  1
  C  948  1  0.11686200  0.31417000  0.47544100  1
  C  950  1  0.13139700  0.26641300  0.49476000  1
  C  951  1  0.14737900  0.26002200  0.46798500  1
  C  952  1  0.14662400  0.28149700  0.44472400  1
  C  954  1  0.12696300  0.24540000  0.51816600  1
  C  955  1  0.13718600  0.24939400  0.54797000  1
  C  956  1  0.13479800  0.22480900  0.56780500  1
  C  957  1  0.12251500  0.19711300  0.55882400  1
  C  958  1  0.11097400  0.19545300  0.52953800  1
  C  969  1  0.05935900  0.87620600  0.80887600  1
  C  970  1  0.03176100  0.89048800  0.81422000  1
  C  972  1  0.01251900  0.87587800  0.76645000  1
  C  973  1  0.03932000  0.85991600  0.76009900  1
  C  974  1  0.06257900  0.86075800  0.78157400  1
  C  976  1  0.98911600  0.88023500  0.74541900  1
  C  977  1  0.95932300  0.86996000  0.74942600  1
  C  978  1  0.93948200  0.87227700  0.72483700  1
  C  979  1  0.94846500  0.88463500  0.69719400  1
  C  980  1  0.97775300  0.89611600  0.69543700  1
  C  991  1  0.94799400  0.37624500  0.69841300  1
  C  992  1  0.97559900  0.39054700  0.69314200  1
  C  994  1  0.99482800  0.37590300  0.74088500  1
  C  995  1  0.96802000  0.35995700  0.74722500  1
  C  996  1  0.94478600  0.36078300  0.72572100  1
  C  998  1  0.01822400  0.38024000  0.76193000  1
  C  999  1  0.04801300  0.36994500  0.75794000  1
  C  1000  1  0.06787100  0.37231800  0.78251200  1
  C  1001  1  0.05887200  0.38468100  0.81014800  1
  C  1002  1  0.02959100  0.39618200  0.81189000  1
  C  1013  1  0.55943600  0.63114100  0.19851500  1
  C  1014  1  0.53182100  0.61684000  0.19320000  1
  C  1016  1  0.51257200  0.63142700  0.24096600  1
  C  1017  1  0.53938000  0.64735700  0.24733300  1
  C  1018  1  0.56261900  0.64655500  0.22583600  1
  C  1020  1  0.48919200  0.62700400  0.26201300  1
  C  1021  1  0.45940000  0.63729100  0.25807100  1
  C  1022  1  0.43957000  0.63486900  0.28266200  1
  C  1023  1  0.44857700  0.62245200  0.31030100  1
  C  1024  1  0.47785700  0.61093600  0.31193500  1
  C  1035  1  0.44787600  0.13119100  0.30877600  1
  C  1036  1  0.47546300  0.11685300  0.31413200  1
  C  1038  1  0.49478900  0.13139100  0.26637700  1
  C  1039  1  0.46801600  0.14738000  0.25998600  1
  C  1040  1  0.44475300  0.14662600  0.28146100  1
  C  1042  1  0.51820000  0.12695900  0.24537100  1
  C  1043  1  0.54801300  0.13716800  0.24939100  1
  C  1044  1  0.56787800  0.13478100  0.22482900  1
  C  1045  1  0.55883900  0.12250700  0.19716400  1
  C  1046  1  0.52956900  0.11097500  0.19540500  1
  C  1057  1  0.05406300  0.31454700  0.37274600  1
  C  1058  1  0.05896100  0.29071900  0.35268400  1
  C  1060  1  0.01208600  0.26819000  0.36495600  1
  C  1061  1  0.00494200  0.29232600  0.38440600  1
  C  1062  1  0.02645100  0.31526300  0.38796900  1
  C  1064  1  0.99565700  0.24117200  0.36456300  1
  C  1065  1  0.00321500  0.21617500  0.38272100  1
  C  1066  1  0.98165500  0.19323800  0.38598900  1
  C  1067  1  0.95353000  0.19483000  0.37182700  1
  C  1068  1  0.94816800  0.21963100  0.35307900  1
  C  1079  1  0.45325200  0.69280900  0.87274600  1
  C  1080  1  0.44834300  0.71671100  0.85276800  1
  C  1082  1  0.49524900  0.73913500  0.86498600  1
  C  1083  1  0.50238800  0.71498600  0.88441600  1
  C  1084  1  0.48088800  0.69203300  0.88793200  1
  C  1086  1  0.51173200  0.76612200  0.86460200  1
  C  1087  1  0.50419200  0.79112400  0.88278000  1
  C  1088  1  0.52572000  0.81410200  0.88599900  1
  C  1089  1  0.55379900  0.81244300  0.87177900  1
  C  1090  1  0.55919400  0.78769300  0.85299600  1
  C  1101  1  0.95327500  0.81460400  0.13451300  1
  C  1102  1  0.94833300  0.79065800  0.15445900  1
  C  1104  1  0.99529900  0.76824900  0.14236300  1
  C  1105  1  0.00247600  0.79243500  0.12299800  1
  C  1106  1  0.98096500  0.81536800  0.11944100  1
  C  1108  1  0.01174500  0.74124200  0.14275600  1
  C  1109  1  0.00424500  0.71626500  0.12453200  1
  C  1110  1  0.02577400  0.69328300  0.12134300  1
  C  1111  1  0.05385700  0.69492600  0.13559800  1
  C  1112  1  0.05915800  0.71962000  0.15447500  1
  C  1123  1  0.55391000  0.19266000  0.63442500  1
  C  1124  1  0.55894000  0.21650300  0.65445100  1
  C  1126  1  0.51206700  0.23910000  0.64224900  1
  C  1127  1  0.50486100  0.21496800  0.62281000  1
  C  1128  1  0.52627400  0.19193400  0.61927800  1
  C  1130  1  0.49566200  0.26613800  0.64269800  1
  C  1131  1  0.50322700  0.29117000  0.62458200  1
  C  1132  1  0.48171900  0.31417400  0.62140300  1
  C  1133  1  0.45361100  0.31246600  0.63556800  1
  C  1134  1  0.44820400  0.28772700  0.65437100  1
  C  1145  1  0.37276400  0.05407000  0.31450200  1
  C  1146  1  0.35270200  0.05896500  0.29067200  1
  C  1148  1  0.36497300  0.01208600  0.26814700  1
  C  1149  1  0.38442400  0.00494600  0.29228600  1
  C  1150  1  0.38798900  0.02645800  0.31521900  1
  C  1152  1  0.36457200  0.99564800  0.24113400  1
  C  1153  1  0.38272500  0.00320600  0.21612600  1
  C  1154  1  0.38598400  0.98165700  0.19317500  1
  C  1155  1  0.37178900  0.95356600  0.19483300  1
  C  1156  1  0.35304600  0.94814500  0.21961200  1
  C  1167  1  0.87275000  0.45323200  0.69282300  1
  C  1168  1  0.85278400  0.44832700  0.71673600  1
  C  1170  1  0.86500200  0.49524200  0.73914400  1
  C  1171  1  0.88442300  0.50237400  0.71498300  1
  C  1172  1  0.88793000  0.48086800  0.69203500  1
  C  1174  1  0.86462200  0.51173500  0.76612400  1
  C  1175  1  0.88280000  0.50420100  0.79112900  1
  C  1176  1  0.88601700  0.52573600  0.81410400  1
  C  1177  1  0.87179500  0.55381200  0.81243900  1
  C  1178  1  0.85301400  0.55920100  0.78768400  1
  C  1189  1  0.13450700  0.95328700  0.81460000  1
  C  1190  1  0.15445400  0.94834000  0.79065500  1
  C  1192  1  0.14236200  0.99530200  0.76823800  1
  C  1193  1  0.12299500  0.00248300  0.79242100  1
  C  1194  1  0.11943500  0.98097700  0.81535600  1
  C  1196  1  0.14276300  0.01174700  0.74122900  1
  C  1197  1  0.12455100  0.00424200  0.71624500  1
  C  1198  1  0.12136800  0.02576800  0.69325800  1
  C  1199  1  0.13561600  0.05385500  0.69490600  1
  C  1200  1  0.15448300  0.05916100  0.71960900  1
  C  1211  1  0.63443100  0.55390200  0.19263500  1
  C  1212  1  0.65446000  0.55893300  0.21647600  1
  C  1214  1  0.64225800  0.51206300  0.23907600  1
  C  1215  1  0.62282100  0.50485200  0.21494300  1
  C  1216  1  0.61928700  0.52626500  0.19190800  1
  C  1218  1  0.64270000  0.49566600  0.26611600  1
  C  1219  1  0.62457100  0.50322700  0.29113200  1
  C  1220  1  0.62138300  0.48170500  0.31412000  1
  C  1221  1  0.63552100  0.45357100  0.31248000  1
  C  1222  1  0.65433500  0.44822200  0.28772300  1
  C  1233  1  0.31450900  0.37275100  0.05408500  1
  C  1234  1  0.29067600  0.35268900  0.05897500  1
  C  1236  1  0.26816300  0.36496200  0.01209200  1
  C  1237  1  0.29230200  0.38441300  0.00495800  1
  C  1238  1  0.31523200  0.38797600  0.02647400  1
  C  1240  1  0.24115200  0.36456300  0.99564800  1
  C  1241  1  0.21614300  0.38271800  0.00319700  1
  C  1242  1  0.19319900  0.38597800  0.98164200  1
  C  1243  1  0.19486300  0.37177800  0.95355400  1
  C  1244  1  0.21964200  0.35303500  0.94814100  1
  C  1255  1  0.69280500  0.87275700  0.45324900  1
  C  1256  1  0.71671600  0.85278600  0.44834700  1
  C  1258  1  0.73913100  0.86501500  0.49525800  1
  C  1259  1  0.71497200  0.88443900  0.50238800  1
  C  1260  1  0.69202100  0.88794300  0.48088400  1
  C  1262  1  0.76611500  0.86463600  0.51175000  1
  C  1263  1  0.79113100  0.88279100  0.50420100  1
  C  1264  1  0.81411300  0.88600600  0.52572700  1
  C  1265  1  0.81244500  0.87180600  0.55381400  1
  C  1266  1  0.78767800  0.85304700  0.55922100  1
  C  1277  1  0.81461500  0.13450000  0.95331300  1
  C  1278  1  0.79066900  0.15444400  0.94837300  1
  C  1280  1  0.76825600  0.14233800  0.99533300  1
  C  1281  1  0.79244100  0.12297500  0.00251000  1
  C  1282  1  0.81537900  0.11942400  0.98100100  1
  C  1284  1  0.74124500  0.14272700  0.01177800  1
  C  1285  1  0.71626200  0.12451500  0.00426300  1
  C  1286  1  0.69327600  0.12132100  0.02578600  1
  C  1287  1  0.69491700  0.13555900  0.05387800  1
  C  1288  1  0.71961800  0.15442300  0.05919500  1
  C  1299  1  0.19264900  0.63444900  0.55391500  1
  C  1300  1  0.21648600  0.65448200  0.55895100  1
  C  1302  1  0.23909100  0.64229100  0.51208300  1
  C  1303  1  0.21496400  0.62284800  0.50486800  1
  C  1304  1  0.19192800  0.61930700  0.52627600  1
  C  1306  1  0.26613200  0.64274200  0.49568600  1
  C  1307  1  0.29115000  0.62461300  0.50323800  1
  C  1308  1  0.31413600  0.62143200  0.48171400  1
  C  1309  1  0.31249300  0.63558100  0.45358200  1
  C  1310  1  0.28773400  0.65439700  0.44824700  1
  C  1321  1  0.06315700  0.30594300  0.88376500  1
  C  1322  1  0.03893300  0.30992100  0.90355400  1
  C  1324  1  0.01786100  0.26264900  0.89033400  1
  C  1325  1  0.04233700  0.25649200  0.87098200  1
  C  1326  1  0.06471400  0.27867300  0.86800000  1
  C  1328  1  0.99148900  0.24522800  0.89067600  1
  C  1329  1  0.96618700  0.25181100  0.87256900  1
  C  1330  1  0.94379200  0.22960400  0.86987000  1
  C  1331  1  0.94618800  0.20182800  0.88460200  1
  C  1332  1  0.97136600  0.19736900  0.90307400  1
  C  1343  1  0.44424400  0.70132800  0.38376100  1
  C  1344  1  0.46850100  0.69737500  0.40351700  1
  C  1346  1  0.48949800  0.74465300  0.39031100  1
  C  1347  1  0.46504300  0.75077000  0.37092000  1
  C  1348  1  0.44265900  0.72859400  0.36798000  1
  C  1350  1  0.51583800  0.76212400  0.39066300  1
  C  1351  1  0.54117900  0.75553400  0.37259900  1
  C  1352  1  0.56361700  0.77770800  0.36995800  1
  C  1353  1  0.56112500  0.80546300  0.38468700  1
  C  1354  1  0.53596000  0.80997600  0.40314700  1
  C  1365  1  0.56317000  0.20133600  0.12364600  1
  C  1366  1  0.53885500  0.19732300  0.10394400  1
  C  1368  1  0.51787800  0.24467200  0.11698700  1
  C  1369  1  0.54237400  0.25085300  0.13629800  1
  C  1370  1  0.56474600  0.22867300  0.13929000  1
  C  1372  1  0.49151900  0.26211300  0.11661200  1
  C  1373  1  0.46619900  0.25557000  0.13472200  1
  C  1374  1  0.44376200  0.27775100  0.13732500  1
  C  1375  1  0.44624200  0.30550400  0.12255200  1
  C  1376  1  0.47135600  0.30991700  0.10400400  1
  C  1387  1  0.94407600  0.80581500  0.62365100  1
  C  1388  1  0.96831900  0.80990500  0.60389900  1
  C  1390  1  0.98944400  0.76263100  0.61705900  1
  C  1391  1  0.96496600  0.75642200  0.63640000  1
  C  1392  1  0.94250200  0.77852300  0.63934900  1
  C  1394  1  0.01583000  0.74522300  0.61666800  1
  C  1395  1  0.04117000  0.75180800  0.63473000  1
  C  1396  1  0.06361900  0.72964500  0.63735300  1
  C  1397  1  0.06110500  0.70187700  0.62264200  1
  C  1398  1  0.03597800  0.69737900  0.60412000  1
  C  1409  1  0.80595600  0.62352600  0.94418800  1
  C  1410  1  0.80992500  0.60375400  0.96842600  1
  C  1412  1  0.76264200  0.61697700  0.98947700  1
  C  1413  1  0.75649400  0.63631500  0.96498900  1
  C  1414  1  0.77868100  0.63928700  0.94261600  1
  C  1416  1  0.74519800  0.61663100  0.01583800  1
  C  1417  1  0.75177900  0.63471700  0.04116300  1
  C  1418  1  0.72957600  0.63740700  0.06356300  1
  C  1419  1  0.70182600  0.62266700  0.06108900  1
  C  1420  1  0.69731400  0.60421200  0.03592000  1
  C  1431  1  0.20128300  0.12355300  0.56304300  1
  C  1432  1  0.19732000  0.10383100  0.53876000  1
  C  1434  1  0.24462300  0.11700900  0.51779800  1
  C  1435  1  0.25074900  0.13636600  0.54227500  1
  C  1436  1  0.22856300  0.13930300  0.56465500  1
  C  1438  1  0.26211300  0.11665500  0.49146700  1
  C  1439  1  0.25553900  0.13471100  0.46611400  1
  C  1440  1  0.27772400  0.13734100  0.44368800  1
  C  1441  1  0.30547900  0.12261000  0.44619500  1
  C  1442  1  0.30997700  0.10416200  0.47136900  1
  C  1453  1  0.70138600  0.38368700  0.44412600  1
  C  1454  1  0.69737900  0.40340800  0.46842700  1
  C  1456  1  0.74470900  0.39033700  0.48942900  1
  C  1457  1  0.75088400  0.37101000  0.46494700  1
  C  1458  1  0.72871000  0.36802300  0.44256800  1
  C  1460  1  0.76213900  0.39070800  0.51579500  1
  C  1461  1  0.75558500  0.37259700  0.54111000  1
  C  1462  1  0.77775500  0.36998500  0.56355400  1
  C  1463  1  0.80551400  0.38475400  0.56108500  1
  C  1464  1  0.80993900  0.40330500  0.53597600  1
  C  1475  1  0.30579600  0.88366000  0.06326000  1
  C  1476  1  0.30989200  0.90342000  0.03902400  1
  C  1478  1  0.26262700  0.89025800  0.01788500  1
  C  1479  1  0.25641000  0.87091300  0.04235700  1
  C  1480  1  0.27850300  0.86795900  0.06482700  1
  C  1482  1  0.24523700  0.89063800  0.99148900  1
  C  1483  1  0.25182500  0.87255100  0.96617600  1
  C  1484  1  0.22965700  0.86991500  0.94373400  1
  C  1485  1  0.20186700  0.88461700  0.94616800  1
  C  1486  1  0.19741900  0.90315900  0.97130200  1
  C  1497  1  0.12353800  0.56308500  0.20128900  1
  C  1498  1  0.10375700  0.53885300  0.19731900  1
  C  1500  1  0.11696600  0.51780400  0.24460300  1
  C  1501  1  0.13631600  0.54228400  0.25075300  1
  C  1502  1  0.13930000  0.56465300  0.22856300  1
  C  1504  1  0.11660700  0.49144700  0.26204900  1
  C  1505  1  0.13469800  0.46612100  0.25548100  1
  C  1506  1  0.13737900  0.44372600  0.27769100  1
  C  1507  1  0.12262400  0.44620900  0.30543700  1
  C  1508  1  0.10416200  0.47137600  0.30993000  1
  C  1519  1  0.62353100  0.94420800  0.80597200  1
  C  1520  1  0.60381200  0.96849300  0.80992700  1
  C  1522  1  0.61701700  0.98946200  0.76263300  1
  C  1523  1  0.63636900  0.96497700  0.75651400  1
  C  1524  1  0.63929100  0.94259400  0.77869700  1
  C  1526  1  0.61667700  0.01579300  0.74514200  1
  C  1527  1  0.63472800  0.04114700  0.75173700  1
  C  1528  1  0.63737100  0.06358000  0.72955800  1
  C  1529  1  0.62265800  0.06108000  0.70179500  1
  C  1530  1  0.60421900  0.03590200  0.69727600  1
  C  1541  1  0.88367700  0.06322300  0.30589200  1
  C  1542  1  0.90337800  0.03890800  0.30990100  1
  C  1544  1  0.89030800  0.01792000  0.26256700  1
  C  1545  1  0.87100000  0.04241800  0.25638700  1
  C  1546  1  0.86802400  0.06479800  0.27856100  1
  C  1548  1  0.89066000  0.99155100  0.24513600  1
  C  1549  1  0.87253400  0.96624800  0.25169700  1
  C  1550  1  0.86990600  0.94380400  0.22952800  1
  C  1551  1  0.88467300  0.94626100  0.20176900  1
  C  1552  1  0.90323700  0.97136000  0.19733800  1
  C  1563  1  0.38367200  0.44407700  0.70148700  1
  C  1564  1  0.40346100  0.46828900  0.69739700  1
  C  1566  1  0.39029500  0.48944900  0.74465100  1
  C  1567  1  0.37091800  0.46500300  0.75086200  1
  C  1568  1  0.36795100  0.44253200  0.72877000  1
  C  1570  1  0.39069700  0.51584700  0.76203700  1
  C  1571  1  0.37262600  0.54117000  0.75544900  1
  C  1572  1  0.37000500  0.56361400  0.77761600  1
  C  1573  1  0.38470700  0.56117200  0.80540700  1
  C  1574  1  0.40323800  0.53602900  0.80985100  1
  N  531  1  0.29207400  0.51112300  0.38963000  1
  N  541  1  0.21747800  0.49797900  0.39227700  1
  N  545  1  0.27383100  0.45068200  0.35691200  1
  N  548  1  0.23281400  0.54539400  0.34507400  1
  N  553  1  0.21523200  0.49626700  0.88954900  1
  N  563  1  0.28984400  0.50934800  0.89218700  1
  N  567  1  0.23349700  0.55665400  0.85683600  1
  N  570  1  0.27449000  0.46187500  0.84505600  1
  N  575  1  0.71522900  0.01109400  0.11776500  1
  N  585  1  0.78978700  0.99796000  0.11500500  1
  N  589  1  0.73355000  0.95066400  0.15054400  1
  N  592  1  0.77452000  0.04533900  0.16232200  1
  N  597  1  0.79214200  0.99619900  0.61778500  1
  N  607  1  0.71752800  0.00938600  0.61506100  1
  N  611  1  0.77388200  0.05670400  0.65036400  1
  N  614  1  0.73276600  0.96199500  0.66225500  1
  N  619  1  0.38964300  0.29211800  0.51106100  1
  N  629  1  0.39229500  0.21750900  0.49794500  1
  N  633  1  0.35690100  0.27384200  0.45065100  1
  N  636  1  0.34512600  0.23285400  0.54539200  1
  N  641  1  0.88955500  0.21517800  0.49628200  1
  N  651  1  0.89222300  0.28977900  0.50938200  1
  N  655  1  0.85681100  0.23345500  0.55666700  1
  N  658  1  0.84505800  0.27446100  0.46192900  1
  N  663  1  0.11775100  0.71531100  0.01118000  1
  N  673  1  0.11502800  0.78987000  0.99801400  1
  N  677  1  0.15048100  0.73358300  0.95071000  1
  N  680  1  0.16235600  0.77458900  0.04537100  1
  N  685  1  0.61777100  0.79207300  0.99614100  1
  N  695  1  0.61505900  0.71747500  0.00936100  1
  N  699  1  0.65032600  0.77385700  0.05667300  1
  N  702  1  0.66227800  0.73269900  0.96199300  1
  N  707  1  0.51106900  0.38960300  0.29212500  1
  N  717  1  0.49794500  0.39224800  0.21752600  1
  N  721  1  0.45066200  0.35683200  0.27385600  1
  N  724  1  0.54537400  0.34504700  0.23286500  1
  N  729  1  0.49625300  0.88960400  0.21518800  1
  N  739  1  0.50936200  0.89225000  0.28979000  1
  N  743  1  0.55664700  0.85685800  0.23345500  1
  N  746  1  0.46191500  0.84505100  0.27443800  1
  N  751  1  0.01114300  0.11773300  0.71529100  1
  N  761  1  0.99798900  0.11498300  0.78985600  1
  N  765  1  0.95068400  0.15045700  0.73358300  1
  N  768  1  0.04536900  0.16228400  0.77458000  1
  N  773  1  0.99613400  0.61781100  0.79206400  1
  N  783  1  0.00934400  0.61511700  0.71746100  1
  N  787  1  0.05666500  0.65036800  0.77384600  1
  N  790  1  0.96197700  0.66233100  0.73270400  1
  N  795  1  0.79305800  0.01012700  0.89033400  1
  N  805  1  0.71888800  0.99667900  0.89300600  1
  N  809  1  0.77470100  0.94992200  0.85609200  1
  N  812  1  0.73432400  0.04364100  0.84449100  1
  N  817  1  0.71429100  0.99724600  0.39034600  1
  N  827  1  0.78847900  0.01065800  0.39296900  1
  N  831  1  0.73260500  0.05742200  0.35612900  1
  N  834  1  0.77299100  0.96365800  0.34451600  1
  N  839  1  0.21438500  0.51019900  0.61702100  1
  N  849  1  0.28855100  0.49676700  0.61432000  1
  N  853  1  0.23277400  0.44997900  0.65123400  1
  N  856  1  0.27311000  0.54374400  0.66283100  1
  N  861  1  0.29300200  0.49709900  0.11701400  1
  N  871  1  0.21882900  0.51061200  0.11430400  1
  N  875  1  0.27468400  0.55740200  0.15108600  1
  N  878  1  0.23419100  0.46370100  0.16282400  1
  N  883  1  0.89030800  0.79305300  0.01013000  1
  N  893  1  0.89294600  0.71887900  0.99666100  1
  N  897  1  0.85608600  0.77474300  0.94991300  1
  N  900  1  0.84444600  0.73432700  0.04362700  1
  N  905  1  0.39032400  0.71429400  0.99723700  1
  N  915  1  0.39291100  0.78848800  0.01064800  1
  N  919  1  0.35611300  0.73259400  0.05741600  1
  N  922  1  0.34448900  0.77298000  0.96364000  1
  N  927  1  0.61699200  0.21438600  0.51016800  1
  N  937  1  0.61427300  0.28854700  0.49672400  1
  N  941  1  0.65120300  0.23275400  0.44994800  1
  N  944  1  0.66280400  0.27312600  0.54368900  1
  N  949  1  0.11698800  0.29301800  0.49710400  1
  N  959  1  0.11427800  0.21884400  0.51060500  1
  N  963  1  0.15107700  0.27468800  0.55739500  1
  N  966  1  0.16279500  0.23421400  0.46369000  1
  N  971  1  0.01012700  0.89031200  0.79304000  1
  N  981  1  0.99667400  0.89292400  0.71885400  1
  N  985  1  0.94991600  0.85608800  0.77473700  1
  N  988  1  0.04364100  0.84443700  0.73433600  1
  N  993  1  0.99724800  0.39033500  0.71429800  1
  N  1003  1  0.01067200  0.39297400  0.78847400  1
  N  1007  1  0.05741500  0.35606600  0.73263000  1
  N  1010  1  0.96367100  0.34448900  0.77299100  1
  N  1015  1  0.51018100  0.61700100  0.21437500  1
  N  1025  1  0.49676200  0.61422600  0.28852400  1
  N  1029  1  0.44997700  0.65125600  0.23281800  1
  N  1032  1  0.54372400  0.66278000  0.27312600  1
  N  1037  1  0.49712600  0.11697600  0.29298000  1
  N  1047  1  0.51063600  0.11429200  0.21879700  1
  N  1051  1  0.55742400  0.15104800  0.27469700  1
  N  1054  1  0.46372800  0.16280300  0.23418200  1
  N  1059  1  0.03865000  0.26841100  0.35034000  1
  N  1069  1  0.96860000  0.24182400  0.35089800  1
  N  1073  1  0.02908900  0.21438900  0.39851900  1
  N  1076  1  0.97960400  0.29322300  0.40113100  1
  N  1081  1  0.46868600  0.73897900  0.85037300  1
  N  1091  1  0.53875300  0.76550100  0.85086000  1
  N  1095  1  0.47833700  0.79290100  0.89861000  1
  N  1098  1  0.52774100  0.71404400  0.90111400  1
  N  1103  1  0.96866300  0.76837200  0.15684600  1
  N  1113  1  0.03872800  0.74182300  0.15656700  1
  N  1117  1  0.97845000  0.71453500  0.10859800  1
  N  1120  1  0.02787300  0.79340100  0.10636900  1
  N  1125  1  0.53866100  0.23884100  0.65681900  1
  N  1135  1  0.46861700  0.26549100  0.65639300  1
  N  1139  1  0.52906900  0.29293500  0.60873500  1
  N  1142  1  0.47950200  0.21412600  0.60611800  1
  N  1147  1  0.35035600  0.03865100  0.26836800  1
  N  1157  1  0.35089600  0.96859400  0.24179900  1
  N  1161  1  0.39853000  0.02907600  0.21434000  1
  N  1164  1  0.40114900  0.97960800  0.29318600  1
  N  1169  1  0.85039100  0.46867500  0.73899900  1
  N  1179  1  0.85087800  0.53875300  0.76549700  1
  N  1183  1  0.89863000  0.47834500  0.79291200  1
  N  1186  1  0.90111400  0.52773200  0.71402800  1
  N  1191  1  0.15684500  0.96866700  0.76836800  1
  N  1201  1  0.15656900  0.03873200  0.74181400  1
  N  1205  1  0.10862000  0.97844500  0.71451200  1
  N  1208  1  0.10636600  0.02788100  0.79338100  1
  N  1213  1  0.65682800  0.53865700  0.23881400  1
  N  1223  1  0.65639100  0.46862600  0.26548400  1
  N  1227  1  0.60872600  0.52907100  0.29289800  1
  N  1230  1  0.60613200  0.47949100  0.21410200  1
  N  1235  1  0.26837500  0.35034500  0.03865600  1
  N  1245  1  0.24182400  0.35088300  0.96859400  1
  N  1249  1  0.21435200  0.39852300  0.02906700  1
  N  1252  1  0.29320800  0.40113700  0.97961900  1
  N  1257  1  0.73898100  0.85040000  0.46869500  1
  N  1267  1  0.76548600  0.85091300  0.53878000  1
  N  1271  1  0.79291900  0.89860300  0.47833400  1
  N  1274  1  0.71402100  0.90113900  0.52774100  1
  N  1279  1  0.76838100  0.15682600  0.96870100  1
  N  1289  1  0.74182500  0.15652100  0.03876900  1
  N  1293  1  0.71453200  0.10859600  0.97845900  1
  N  1296  1  0.79340800  0.10634000  0.02790400  1
  N  1301  1  0.23882600  0.65685700  0.53867700  1
  N  1311  1  0.26549800  0.65644400  0.46865000  1
  N  1315  1  0.29291500  0.60875500  0.52907600  1
  N  1318  1  0.21412800  0.60616100  0.47950400  1
  N  1323  1  0.01718700  0.28896200  0.90537800  1
  N  1333  1  0.99300500  0.21843100  0.90476400  1
  N  1337  1  0.96360400  0.27739600  0.85641800  1
  N  1340  1  0.04407600  0.23141900  0.85393400  1
  N  1345  1  0.49020400  0.71836500  0.40539500  1
  N  1355  1  0.51432200  0.78891000  0.40478500  1
  N  1359  1  0.54378200  0.72994000  0.35646600  1
  N  1362  1  0.46329000  0.77583300  0.35385600  1
  N  1367  1  0.51713300  0.21829900  0.10205700  1
  N  1377  1  0.49300100  0.28885500  0.10241500  1
  N  1381  1  0.46363700  0.23004400  0.15096700  1
  N  1384  1  0.54415500  0.27597400  0.15327300  1
  N  1389  1  0.99008900  0.78897000  0.60205600  1
  N  1399  1  0.01430900  0.71842800  0.60256700  1
  N  1403  1  0.04374400  0.77737500  0.65091300  1
  N  1406  1  0.96327000  0.73132600  0.65342200  1
  N  1411  1  0.78895700  0.60193500  0.99016500  1
  N  1421  1  0.71839400  0.60254700  0.01429500  1
  N  1425  1  0.77737100  0.65085700  0.04376200  1
  N  1428  1  0.73141800  0.65336200  0.96323200  1
  N  1433  1  0.21832100  0.10195300  0.51706600  1
  N  1443  1  0.28889700  0.10253200  0.49299900  1
  N  1447  1  0.22994800  0.15084900  0.46349400  1
  N  1450  1  0.27582700  0.15340300  0.54405900  1
  N  1455  1  0.71834700  0.40528700  0.49015900  1
  N  1465  1  0.78888500  0.40490100  0.51432400  1
  N  1469  1  0.73005200  0.35635700  0.54366200  1
  N  1472  1  0.77599300  0.35401700  0.46318100  1
  N  1477  1  0.28896400  0.90526400  0.01724800  1
  N  1487  1  0.21845000  0.90474400  0.99298200  1
  N  1491  1  0.27738700  0.85636000  0.96362000  1
  N  1494  1  0.23131600  0.85388900  0.04404300  1
  N  1499  1  0.10192800  0.51711700  0.21828700  1
  N  1509  1  0.10250800  0.49299400  0.28884400  1
  N  1513  1  0.15085200  0.46351600  0.22990100  1
  N  1516  1  0.15335800  0.54403700  0.27582900  1
  N  1521  1  0.60195100  0.99019200  0.78892800  1
  N  1531  1  0.60257300  0.01426900  0.71835000  1
  N  1535  1  0.65084800  0.04376500  0.77734000  1
  N  1538  1  0.65342200  0.96319400  0.73144500  1
  N  1543  1  0.90524900  0.01717800  0.28893300  1
  N  1553  1  0.90484700  0.99301300  0.21838900  1
  N  1557  1  0.85629800  0.96370700  0.27723100  1
  N  1560  1  0.85401400  0.04419600  0.23127400  1
  N  1565  1  0.40531900  0.49006500  0.71832100  1
  N  1575  1  0.40480700  0.51434700  0.78882100  1
  N  1579  1  0.35643200  0.54373300  0.72988900  1
  N  1582  1  0.35388100  0.46334000  0.77594900  1
  O  8  1  0.16967000  0.47265100  0.33396400  1
  O  15  1  0.07992700  0.28828600  0.42185100  1
  O  17  1  0.10738800  0.38828400  0.32288200  1
  O  18  1  0.16314300  0.35367100  0.41768100  1
  O  30  1  0.33767400  0.53469400  0.83390300  1
  O  37  1  0.42746100  0.71898100  0.92193100  1
  O  39  1  0.39992800  0.61908800  0.82285500  1
  O  40  1  0.34423300  0.65360000  0.91777400  1
  O  52  1  0.83762000  0.97269000  0.17325000  1
  O  59  1  0.92746700  0.78836500  0.08537500  1
  O  61  1  0.89986600  0.88829200  0.18443000  1
  O  62  1  0.84415100  0.85363700  0.08959000  1
  O  74  1  0.66975400  0.03470200  0.67329200  1
  O  81  1  0.57978800  0.21894000  0.58533700  1
  O  83  1  0.60734800  0.11898400  0.68435100  1
  O  84  1  0.66312800  0.15370500  0.58961000  1
  O  96  1  0.33399500  0.16966400  0.47263100  1
  O  103  1  0.42186300  0.07993800  0.28823900  1
  O  105  1  0.32291600  0.10737900  0.38827000  1
  O  106  1  0.41772200  0.16313900  0.35364600  1
  O  118  1  0.83397400  0.33767200  0.53466500  1
  O  125  1  0.92193800  0.42745000  0.71899500  1
  O  127  1  0.82288600  0.39994100  0.61904100  1
  O  128  1  0.91778600  0.34421000  0.65363400  1
  O  140  1  0.17331500  0.83761300  0.97265000  1
  O  147  1  0.08537000  0.92747200  0.78836700  1
  O  149  1  0.18444600  0.89984400  0.88823800  1
  O  150  1  0.08957200  0.84417800  0.85367200  1
  O  162  1  0.67330800  0.66975100  0.03470000  1
  O  169  1  0.58533700  0.57977200  0.21891400  1
  O  171  1  0.68437600  0.60736200  0.11899500  1
  O  172  1  0.58963500  0.66312600  0.15369700  1
  O  184  1  0.47267100  0.33397700  0.16962300  1
  O  191  1  0.28825200  0.42185100  0.07995700  1
  O  193  1  0.38828400  0.32288200  0.10736700  1
  O  194  1  0.35363800  0.41766800  0.16317200  1
  O  206  1  0.53469000  0.83396500  0.33762300  1
  O  213  1  0.71898400  0.92193300  0.42746100  1
  O  215  1  0.61904400  0.82290200  0.39992300  1
  O  216  1  0.65361200  0.91780100  0.34422800  1
  O  228  1  0.97264300  0.17327000  0.83758200  1
  O  235  1  0.78837600  0.08536600  0.92750100  1
  O  237  1  0.88826000  0.18442700  0.89985300  1
  O  238  1  0.85365200  0.08958000  0.84418700  1
  O  250  1  0.03468900  0.67336300  0.66970900  1
  O  257  1  0.21892000  0.58535500  0.57979000  1
  O  259  1  0.11900900  0.68440900  0.60734800  1
  O  260  1  0.15367900  0.58965500  0.66312800  1
  O  272  1  0.22198800  0.41925300  0.92613500  1
  O  279  1  0.03765300  0.33297000  0.83490300  1
  O  281  1  0.13669900  0.35772700  0.93576300  1
  O  282  1  0.10326000  0.41597800  0.84176500  1
  O  294  1  0.28531400  0.58815700  0.42615800  1
  O  301  1  0.46979100  0.67419800  0.33498200  1
  O  303  1  0.37065200  0.64963800  0.43577700  1
  O  304  1  0.40408400  0.59126700  0.34188000  1
  O  316  1  0.72207100  0.08812400  0.08131400  1
  O  323  1  0.53766300  0.17428100  0.17249500  1
  O  325  1  0.63669900  0.14954400  0.07157500  1
  O  326  1  0.60319800  0.09121900  0.16549500  1
  O  338  1  0.78530000  0.91924100  0.58128400  1
  O  345  1  0.96960300  0.83286500  0.67249300  1
  O  347  1  0.87060900  0.85773500  0.57159500  1
  O  348  1  0.90409200  0.91595500  0.66556600  1
  O  360  1  0.91917000  0.58133500  0.78523500  1
  O  367  1  0.83296500  0.67239500  0.96968800  1
  O  369  1  0.85780000  0.57155700  0.87062900  1
  O  370  1  0.91595900  0.66559900  0.90404300  1
  O  382  1  0.08820100  0.08129600  0.72208400  1
  O  389  1  0.17421800  0.17240400  0.53756300  1
  O  391  1  0.14958700  0.07155900  0.63668800  1
  O  392  1  0.09125900  0.16551000  0.60324100  1
  O  404  1  0.58807400  0.42615300  0.28532800  1
  O  411  1  0.67428500  0.33489200  0.46967900  1
  O  413  1  0.64959300  0.43577200  0.37063900  1
  O  414  1  0.59124900  0.34187500  0.40411300  1
  O  426  1  0.41927300  0.92615500  0.22194600  1
  O  433  1  0.33284100  0.83480700  0.03774100  1
  O  435  1  0.35770300  0.93575400  0.13668200  1
  O  436  1  0.41596200  0.84179900  0.10321100  1
  O  448  1  0.08132400  0.72212000  0.08820300  1
  O  455  1  0.17239400  0.53759400  0.17423800  1
  O  457  1  0.07154100  0.63669300  0.14953900  1
  O  458  1  0.16550600  0.60324500  0.09125900  1
  O  470  1  0.58130800  0.78523800  0.91916100  1
  O  477  1  0.67237000  0.96971400  0.83302100  1
  O  479  1  0.57155900  0.87062500  0.85776900  1
  O  480  1  0.66555900  0.90403400  0.91598800  1
  O  492  1  0.92611700  0.22196400  0.41928600  1
  O  499  1  0.83482900  0.03770300  0.33292800  1
  O  501  1  0.93575600  0.13667100  0.35775200  1
  O  502  1  0.84180300  0.10320400  0.41602100  1
  O  514  1  0.42621300  0.28535200  0.58807900  1
  O  521  1  0.33489200  0.46965000  0.67436100  1
  O  523  1  0.43576800  0.37060800  0.64967400  1
  O  524  1  0.34190700  0.40411500  0.59129600  1
