# generated using pymatgen
data_H17C18N2O
_symmetry_space_group_name_H-M   'P 1'
_cell_length_a   33.53030000
_cell_length_b   33.53030000
_cell_length_c   59.12400000
_cell_angle_alpha   90.00000000
_cell_angle_beta   90.00000000
_cell_angle_gamma   120.00000000
_symmetry_Int_Tables_number   1
_chemical_formula_structural   H17C18N2O
_chemical_formula_sum   'H408 C432 N48 O24'
_cell_volume   57566.43277127
_cell_formula_units_Z   24
loop_
 _symmetry_equiv_pos_site_id
 _symmetry_equiv_pos_as_xyz
  1  'x, y, z'
loop_
 _atom_site_type_symbol
 _atom_site_label
 _atom_site_symmetry_multiplicity
 _atom_site_fract_x
 _atom_site_fract_y
 _atom_site_fract_z
 _atom_site_occupancy
  H  1  1  0.99114800  0.63962100  0.40207200  1
  H  4  1  0.99142700  0.74097100  0.27041800  1
  H  6  1  0.98569600  0.18379200  0.80068300  1
  H  8  1  0.99670300  0.35560400  0.86268600  1
  H  13  1  0.98649400  0.39299100  0.43223100  1
  H  16  1  0.99505200  0.54826700  0.27225500  1
  H  17  1  0.98210300  0.41264100  0.18337900  1
  H  18  1  0.98840600  0.46063100  0.16886200  1
  H  19  1  0.99740900  0.39670900  0.22918600  1
  H  24  1  0.96999000  0.31726900  0.88572900  1
  H  26  1  0.96767200  0.65525900  0.88323600  1
  H  29  1  0.97507500  0.51958400  0.49047800  1
  H  30  1  0.98038900  0.42924100  0.27083100  1
  H  35  1  0.95420200  0.34439700  0.26169600  1
  H  37  1  0.95846100  0.23333400  0.38778900  1
  H  39  1  0.95813000  0.14462900  0.82344600  1
  H  40  1  0.95589400  0.80410800  0.82825800  1
  H  42  1  0.95337700  0.54274100  0.39308100  1
  H  43  1  0.96044800  0.50005700  0.38037500  1
  H  44  1  0.95590400  0.42196100  0.48415000  1
  H  46  1  0.96598700  0.47055200  0.27914900  1
  H  53  1  0.75629600  0.19449700  0.74692500  1
  H  54  1  0.87865300  0.28340100  0.78133800  1
  H  61  1  0.64515200  0.00614000  0.73543200  1
  H  62  1  0.78503700  0.10754400  0.73398000  1
  H  65  1  0.84095700  0.12458100  0.77966100  1
  H  66  1  0.69165700  0.14474800  0.78109600  1
  H  77  1  0.43482900  0.24099800  0.08017400  1
  H  78  1  0.40157100  0.11874300  0.11463600  1
  H  85  1  0.35763100  0.35217400  0.06880700  1
  H  86  1  0.31925700  0.21231900  0.06726100  1
  H  89  1  0.28039500  0.15640400  0.11303200  1
  H  90  1  0.44973800  0.30566900  0.11444300  1
  H  101  1  0.80276200  0.56219300  0.41366300  1
  H  102  1  0.71384100  0.59565600  0.44805200  1
  H  108  1  0.88966900  0.67800300  0.40064800  1
  H  111  1  0.87259100  0.71690700  0.44624200  1
  H  112  1  0.85262400  0.54739800  0.44774400  1
  H  121  1  0.23370400  0.79418500  0.74536600  1
  H  122  1  0.11105700  0.70907500  0.78045000  1
  H  129  1  0.34991000  0.98084000  0.73280400  1
  H  130  1  0.20834200  0.88577000  0.73376800  1
  H  133  1  0.15446100  0.86928500  0.77906100  1
  H  134  1  0.30916700  0.84648200  0.77626900  1
  H  145  1  0.55750800  0.76360900  0.07844700  1
  H  146  1  0.59480700  0.88608500  0.11363900  1
  H  153  1  0.62756600  0.64710300  0.06605300  1
  H  154  1  0.67422900  0.78870900  0.06686800  1
  H  157  1  0.71163500  0.84266300  0.11236100  1
  H  158  1  0.53426800  0.68823300  0.10954100  1
  H  169  1  0.20249800  0.43962600  0.41169100  1
  H  170  1  0.28834200  0.40300900  0.44673200  1
  H  177  1  0.01617600  0.36947100  0.39945600  1
  H  178  1  0.11119000  0.32290200  0.40024500  1
  H  181  1  0.12819300  0.28573200  0.44580900  1
  H  182  1  0.15054500  0.46278100  0.44294000  1
  H  193  1  0.52865900  0.78167900  0.55105000  1
  H  194  1  0.58180700  0.70498800  0.52125900  1
  H  201  1  0.61852800  0.96379200  0.59198500  1
  H  202  1  0.64923100  0.85724000  0.58719500  1
  H  205  1  0.69689700  0.84331900  0.55850800  1
  H  206  1  0.52791000  0.85043900  0.53610600  1
  H  217  1  0.21553600  0.74756500  0.21771600  1
  H  218  1  0.29221400  0.87744600  0.18796800  1
  H  225  1  0.03338800  0.65520300  0.25861100  1
  H  226  1  0.13985100  0.79249100  0.25381800  1
  H  229  1  0.15380900  0.85411700  0.22513400  1
  H  230  1  0.14684500  0.67804100  0.20275700  1
  H  241  1  0.24987400  0.46883200  0.88436500  1
  H  242  1  0.11990000  0.41586100  0.85475700  1
  H  249  1  0.34203000  0.37884700  0.92523100  1
  H  250  1  0.20481700  0.34830700  0.92055300  1
  H  253  1  0.14322700  0.30071200  0.89197500  1
  H  254  1  0.31927500  0.46945000  0.86936300  1
  H  265  1  0.47115000  0.22177500  0.55605500  1
  H  266  1  0.42064200  0.29819300  0.52339300  1
  H  273  1  0.38501600  0.04130300  0.59500700  1
  H  274  1  0.34831500  0.14319200  0.58847900  1
  H  277  1  0.30298400  0.15710700  0.55834400  1
  H  278  1  0.47572300  0.15236900  0.54021400  1
  H  289  1  0.77475800  0.24983100  0.21952700  1
  H  290  1  0.69938000  0.11996200  0.18967100  1
  H  297  1  0.85257600  0.20584000  0.25513700  1
  H  300  1  0.83876800  0.14515600  0.22657700  1
  H  301  1  0.84498200  0.32425300  0.20592700  1
  H  312  1  0.74751000  0.52561300  0.88619300  1
  H  313  1  0.87729000  0.58039400  0.85619200  1
  H  320  1  0.65274500  0.61031200  0.92839700  1
  H  321  1  0.79133800  0.64739700  0.92176600  1
  H  324  1  0.85199100  0.69444000  0.89309400  1
  H  325  1  0.67294500  0.52125900  0.87261800  1
  H  337  1  0.66169800  0.86260500  0.67953300  1
  H  338  1  0.68924600  0.86414200  0.65412500  1
  H  339  1  0.63845900  0.86820700  0.65420800  1
  H  341  1  0.72543500  0.95390000  0.72006300  1
  H  342  1  0.72140400  0.90791800  0.70462900  1
  H  343  1  0.67148300  0.91269500  0.70944300  1
  H  345  1  0.74614700  0.00563900  0.60378200  1
  H  346  1  0.79034600  0.05101800  0.61846800  1
  H  347  1  0.73607600  0.04785000  0.61551300  1
  H  349  1  0.77963800  0.09843800  0.67608800  1
  H  350  1  0.75281000  0.09106600  0.64998000  1
  H  351  1  0.80733100  0.09448300  0.65189400  1
  H  353  1  0.78328500  0.04953600  0.70716500  1
  H  355  1  0.70729100  0.90988900  0.61596800  1
  H  363  1  0.19764900  0.33567700  0.01283600  1
  H  364  1  0.17167100  0.30815200  0.98741900  1
  H  365  1  0.22651600  0.35895600  0.98752100  1
  H  367  1  0.22519600  0.27191900  0.05335800  1
  H  368  1  0.18325300  0.27594900  0.03791700  1
  H  369  1  0.23793500  0.32587700  0.04274900  1
  H  371  1  0.25634900  0.25135000  0.93707700  1
  H  372  1  0.25752000  0.20713900  0.95175500  1
  H  373  1  0.30862300  0.26141300  0.94881600  1
  H  375  1  0.31561000  0.21780500  0.00938400  1
  H  376  1  0.33508200  0.24465700  0.98328300  1
  H  377  1  0.28398400  0.19012900  0.98518200  1
  H  379  1  0.26301500  0.21409700  0.04044900  1
  H  381  1  0.19942200  0.29011700  0.94925300  1
  H  386  1  0.13454400  0.79959200  0.34613400  1
  H  387  1  0.13298900  0.82561400  0.32073300  1
  H  388  1  0.12891900  0.77075900  0.32080400  1
  H  390  1  0.04330000  0.77215000  0.38667700  1
  H  391  1  0.08926900  0.81405900  0.37122500  1
  H  392  1  0.08448500  0.75936800  0.37606400  1
  H  393  1  0.94606500  0.73979500  0.28511600  1
  H  394  1  0.94923300  0.68869300  0.28216100  1
  H  396  1  0.89871500  0.68170400  0.34274900  1
  H  397  1  0.90605900  0.66223500  0.31664200  1
  H  398  1  0.90263600  0.71333400  0.31855400  1
  H  399  1  0.94760200  0.73424900  0.37379900  1
  H  401  1  0.08734200  0.79789500  0.28262500  1
  H  409  1  0.33641300  0.13298400  0.68252500  1
  H  410  1  0.30992700  0.13396200  0.65718200  1
  H  411  1  0.36026100  0.12909300  0.65703600  1
  H  413  1  0.27129600  0.03856100  0.72130100  1
  H  414  1  0.27614000  0.08604600  0.70697400  1
  H  415  1  0.32557300  0.08015500  0.71121600  1
  H  417  1  0.25357500  0.99660300  0.60392700  1
  H  418  1  0.20845400  0.95031400  0.61767700  1
  H  419  1  0.26256200  0.95308600  0.61482300  1
  H  421  1  0.21601900  0.89762100  0.67427600  1
  H  422  1  0.24392800  0.90690200  0.64834900  1
  H  423  1  0.18964800  0.90403400  0.65017900  1
  H  425  1  0.21205800  0.94477900  0.70662200  1
  H  427  1  0.29154300  0.09062500  0.61787900  1
  H  435  1  0.79318800  0.66018100  0.01589200  1
  H  436  1  0.82047300  0.68636400  0.99047000  1
  H  437  1  0.76532200  0.63596500  0.99047700  1
  H  439  1  0.76382100  0.72556500  0.05445700  1
  H  440  1  0.80646300  0.72065600  0.04017200  1
  H  441  1  0.75119000  0.67121300  0.04451500  1
  H  443  1  0.73894800  0.74171900  0.93699400  1
  H  444  1  0.73806800  0.78714600  0.95058000  1
  H  445  1  0.68661700  0.73307700  0.94794000  1
  H  447  1  0.67819800  0.78052000  0.00720000  1
  H  448  1  0.65934300  0.75222900  0.98137600  1
  H  449  1  0.71083500  0.80647900  0.98301300  1
  H  451  1  0.72928200  0.78470800  0.03956800  1
  H  453  1  0.79534400  0.70467800  0.95097600  1
  H  460  1  0.86368000  0.20398100  0.34924900  1
  H  461  1  0.86257500  0.17671200  0.32382000  1
  H  462  1  0.86729200  0.23184800  0.32383800  1
  H  464  1  0.91091500  0.19069800  0.37349800  1
  H  465  1  0.91671800  0.24595300  0.37787000  1
  H  467  1  0.99940700  0.25834200  0.27032200  1
  H  468  1  0.04574200  0.25925400  0.28389500  1
  H  469  1  0.04307600  0.31068200  0.28126800  1
  H  471  1  0.09899800  0.31912000  0.34051500  1
  H  472  1  0.08951900  0.33795900  0.31469500  1
  H  473  1  0.09233200  0.28649600  0.31632200  1
  H  475  1  0.05217500  0.26791100  0.37285900  1
  H  477  1  0.90604500  0.20186000  0.28430400  1
  H  483  1  0.03734300  0.19038600  0.82914400  1
  H  484  1  0.05239700  0.21113200  0.85671300  1
  H  485  1  0.07824500  0.24834400  0.83326000  1
  H  486  1  0.92620900  0.15721900  0.80437900  1
  H  487  1  0.02922400  0.34383100  0.88173000  1
  H  489  1  0.87843800  0.26207900  0.83875400  1
  H  490  1  0.92563600  0.31714600  0.84260800  1
  H  491  1  0.90029600  0.27916400  0.86590500  1
  H  493  1  0.86722200  0.17871800  0.82610100  1
  H  495  1  0.06312900  0.28752200  0.88296100  1
  H  503  1  0.14964500  0.96019500  0.16248100  1
  H  504  1  0.15533500  0.94503300  0.19002600  1
  H  505  1  0.16655500  0.91916300  0.16653500  1
  H  507  1  0.22785700  0.07113300  0.13760600  1
  H  508  1  0.18331600  0.03938900  0.15668800  1
  H  509  1  0.19479600  0.01164400  0.13396800  1
  H  511  1  0.31113100  0.96765500  0.21485700  1
  H  512  1  0.34380100  0.02685900  0.21899900  1
  H  513  1  0.35545100  0.00036300  0.19586800  1
  H  515  1  0.38029900  0.11879200  0.17218100  1
  H  516  1  0.38814400  0.07154700  0.17591500  1
  H  517  1  0.37546700  0.09670300  0.19928000  1
  H  519  1  0.30787700  0.12995600  0.15935000  1
  H  521  1  0.22181000  0.93440500  0.21640800  1
  H  529  1  0.80714100  0.84762300  0.49580600  1
  H  530  1  0.78629500  0.84190200  0.52335300  1
  H  531  1  0.74919300  0.83067100  0.49986700  1
  H  533  1  0.84002600  0.76950900  0.47095800  1
  H  534  1  0.85273400  0.81402000  0.49004500  1
  H  535  1  0.81356300  0.80253400  0.46729900  1
  H  537  1  0.65319300  0.68605000  0.54817000  1
  H  538  1  0.67973000  0.65337600  0.55227800  1
  H  539  1  0.64157100  0.64176500  0.52915800  1
  H  541  1  0.73514900  0.61696700  0.50541300  1
  H  542  1  0.68006500  0.60912100  0.50916900  1
  H  543  1  0.71790300  0.62174000  0.53252500  1
  H  545  1  0.81852900  0.68907600  0.49273400  1
  H  547  1  0.70924700  0.77542800  0.54971600  1
  H  553  1  0.94181800  0.78494900  0.85611300  1
  H  554  1  0.91554800  0.74629200  0.83320100  1
  H  556  1  0.06663700  0.83700800  0.80309000  1
  H  557  1  0.03487400  0.85017900  0.82197100  1
  H  558  1  0.00701800  0.80970900  0.79972600  1
  H  560  1  0.02706900  0.68256000  0.88670500  1
  H  561  1  0.99973500  0.64251500  0.86434900  1
  H  563  1  0.11677000  0.73518900  0.83882300  1
  H  564  1  0.07007800  0.68020100  0.84359600  1
  H  565  1  0.09596000  0.71982400  0.86624900  1
  H  567  1  0.12676300  0.81715000  0.82483100  1
  H  569  1  0.93228900  0.71026100  0.88331200  1
  H  577  1  0.84469600  0.04142000  0.16153900  1
  H  578  1  0.83962300  0.05539400  0.18941600  1
  H  579  1  0.82712000  0.08166400  0.16654500  1
  H  581  1  0.76704900  0.93054100  0.13644200  1
  H  582  1  0.81195600  0.96242600  0.15531600  1
  H  583  1  0.79925500  0.99016300  0.13304600  1
  H  585  1  0.68403900  0.02909300  0.21669700  1
  H  586  1  0.65193800  0.96967900  0.22004100  1
  H  587  1  0.63924400  0.99719800  0.19776900  1
  H  589  1  0.61495100  0.88030800  0.17203000  1
  H  590  1  0.60664000  0.92695500  0.17691200  1
  H  591  1  0.62036500  0.90091800  0.19949800  1
  H  593  1  0.68702300  0.87035200  0.15811900  1
  H  595  1  0.77535600  0.06508100  0.21645900  1
  H  603  1  0.19594700  0.15317600  0.49419900  1
  H  604  1  0.21573000  0.15846800  0.52194400  1
  H  605  1  0.25396700  0.17111100  0.49881800  1
  H  607  1  0.16130000  0.23017900  0.46964700  1
  H  608  1  0.14908800  0.18538000  0.48845700  1
  H  609  1  0.18901000  0.19833600  0.46590900  1
  H  611  1  0.34532800  0.31460400  0.54855200  1
  H  612  1  0.31715000  0.34572500  0.55261700  1
  H  613  1  0.35678300  0.35948900  0.52996600  1
  H  615  1  0.26235700  0.38220700  0.50546500  1
  H  616  1  0.31782600  0.39136600  0.50970300  1
  H  617  1  0.27875900  0.37683400  0.53267000  1
  H  619  1  0.18053300  0.30931600  0.49120500  1
  H  621  1  0.29019500  0.22410300  0.54892300  1
  H  629  1  0.65689700  0.39549300  0.86863400  1
  H  630  1  0.68859100  0.44712300  0.85399000  1
  H  631  1  0.71022200  0.43673400  0.87937800  1
  H  633  1  0.63842700  0.28624900  0.84782700  1
  H  634  1  0.62626900  0.33093400  0.84534600  1
  H  635  1  0.64905300  0.32246900  0.87098300  1
  H  637  1  0.85963000  0.47323500  0.83436300  1
  H  638  1  0.83254800  0.48400000  0.81116800  1
  H  639  1  0.85215900  0.44513600  0.80853000  1
  H  641  1  0.78399300  0.32112600  0.80951400  1
  H  642  1  0.83219900  0.37018200  0.81985700  1
  H  643  1  0.80538800  0.37235700  0.79420900  1
  H  645  1  0.69551700  0.26712900  0.82338100  1
  H  647  1  0.81452300  0.50311200  0.84826000  1
  H  655  1  0.73525400  0.34056600  0.20199900  1
  H  656  1  0.75517400  0.30885700  0.18735200  1
  H  657  1  0.72315600  0.28723600  0.21274300  1
  H  659  1  0.64452300  0.35908800  0.18117400  1
  H  660  1  0.70135800  0.37121300  0.17869900  1
  H  661  1  0.67010100  0.34845500  0.20433700  1
  H  663  1  0.61018800  0.13783300  0.16773400  1
  H  664  1  0.64805700  0.16490300  0.14454400  1
  H  665  1  0.58958900  0.14532100  0.14189700  1
  H  667  1  0.53377500  0.21351700  0.14288500  1
  H  668  1  0.53460900  0.16530200  0.15322700  1
  H  669  1  0.56359300  0.19210200  0.12758000  1
  H  671  1  0.56829700  0.30200600  0.15673700  1
  H  673  1  0.68517200  0.18291500  0.18164100  1
  H  681  1  0.59611800  0.25908600  0.53136000  1
  H  682  1  0.54252300  0.24481100  0.52038400  1
  H  683  1  0.56206600  0.27632500  0.54605400  1
  H  685  1  0.70743300  0.35061300  0.51289200  1
  H  686  1  0.66190600  0.29435800  0.50941600  1
  H  687  1  0.67047600  0.32379800  0.53564000  1
  H  689  1  0.52683600  0.39504400  0.50294000  1
  H  690  1  0.51119200  0.35522900  0.48026500  1
  H  691  1  0.55205200  0.41285300  0.47626000  1
  H  693  1  0.67568100  0.46273700  0.47371600  1
  H  694  1  0.62945600  0.46559300  0.48539400  1
  H  695  1  0.62252500  0.43436600  0.45991000  1
  H  697  1  0.72758500  0.42519700  0.48675000  1
  H  699  1  0.50080300  0.32565800  0.52421400  1
  H  707  1  0.34263900  0.60305500  0.86798400  1
  H  708  1  0.31244600  0.55229500  0.85248000  1
  H  709  1  0.28987300  0.55977200  0.87827800  1
  H  711  1  0.35823900  0.71195700  0.84836100  1
  H  712  1  0.37157900  0.66822800  0.84511300  1
  H  713  1  0.34889300  0.67520300  0.87113800  1
  H  715  1  0.13892000  0.52177300  0.83510900  1
  H  716  1  0.16569400  0.51366800  0.81094000  1
  H  717  1  0.14431100  0.55127700  0.80997200  1
  H  719  1  0.21084200  0.67522900  0.81150500  1
  H  720  1  0.16354900  0.62544600  0.82192900  1
  H  721  1  0.18973000  0.62448300  0.79584100  1
  H  723  1  0.29908300  0.73030300  0.82532600  1
  H  725  1  0.18637700  0.49234700  0.84590100  1
  H  733  1  0.25695700  0.65485900  0.20133300  1
  H  734  1  0.23639400  0.68504300  0.18581800  1
  H  735  1  0.26643300  0.70763000  0.21161800  1
  H  737  1  0.35026400  0.63925400  0.18173000  1
  H  738  1  0.29319800  0.62591300  0.17847300  1
  H  739  1  0.32284500  0.64860500  0.20449900  1
  H  741  1  0.37939300  0.85856400  0.16846800  1
  H  742  1  0.34457100  0.83181100  0.14427800  1
  H  743  1  0.40356900  0.85320600  0.14334600  1
  H  745  1  0.46093800  0.78662700  0.14486200  1
  H  746  1  0.45846900  0.83392800  0.15529100  1
  H  747  1  0.43132000  0.80776400  0.12920200  1
  H  749  1  0.42777200  0.69839800  0.15869700  1
  H  751  1  0.30247500  0.81109300  0.17920700  1
  H  759  1  0.39447300  0.74034600  0.53464600  1
  H  760  1  0.44521400  0.76091300  0.51912400  1
  H  761  1  0.43777900  0.73088400  0.54492600  1
  H  763  1  0.28556700  0.64704800  0.51503100  1
  H  764  1  0.32929600  0.70411100  0.51177500  1
  H  765  1  0.32233000  0.67446400  0.53780400  1
  H  767  1  0.47575600  0.61791800  0.50180000  1
  H  768  1  0.48380600  0.65270000  0.47759800  1
  H  769  1  0.44621300  0.59370000  0.47668800  1
  H  771  1  0.32226800  0.53635800  0.47818000  1
  H  772  1  0.37202400  0.53881900  0.48862100  1
  H  773  1  0.37303300  0.56596800  0.46252800  1
  H  775  1  0.26720400  0.56952600  0.49201400  1
  H  777  1  0.50522200  0.69487600  0.51248100  1
  H  785  1  0.46641300  0.96731100  0.71353900  1
  H  786  1  0.42922100  0.98668600  0.72238900  1
  H  787  1  0.42219200  0.93334800  0.73204000  1
  H  789  1  0.58624100  0.04439100  0.72646600  1
  H  790  1  0.53640600  0.03709700  0.71375800  1
  H  791  1  0.54262900  0.98849900  0.72004900  1
  H  793  1  0.41486100  0.98822900  0.80990600  1
  H  794  1  0.46263800  0.04122000  0.81750200  1
  H  795  1  0.46041100  0.98844200  0.82413100  1
  H  797  1  0.58952100  0.06514500  0.81003200  1
  H  798  1  0.54118400  0.02214900  0.82386000  1
  H  799  1  0.54586500  0.07634800  0.81809600  1
  H  801  1  0.61193200  0.09413000  0.76416200  1
  H  803  1  0.40315700  0.01055300  0.76561500  1
  H  811  1  0.49782300  0.53082200  0.04681000  1
  H  812  1  0.55436300  0.56794200  0.05571700  1
  H  813  1  0.50807200  0.57509100  0.06527800  1
  H  815  1  0.45458200  0.41095100  0.05983400  1
  H  816  1  0.49727800  0.46066800  0.04710600  1
  H  817  1  0.44255500  0.45471100  0.05336800  1
  H  819  1  0.56989500  0.58243100  0.14324500  1
  H  820  1  0.57506800  0.53465300  0.15088700  1
  H  821  1  0.52449700  0.53689500  0.15744600  1
  H  823  1  0.47211500  0.40778000  0.14339700  1
  H  824  1  0.47743600  0.45613700  0.15719200  1
  H  825  1  0.52695900  0.45143100  0.15148000  1
  H  827  1  0.47883900  0.38543800  0.09740100  1
  H  829  1  0.60409900  0.59398200  0.09889600  1
  H  833  1  0.03005100  0.49949000  0.38019600  1
  H  834  1  0.01052100  0.44290800  0.38906700  1
  H  835  1  0.06391000  0.48913100  0.39871800  1
  H  836  1  0.00919300  0.55475300  0.38670300  1
  H  837  1  0.00887000  0.42708300  0.47659000  1
  H  838  1  0.00871300  0.47247700  0.49078200  1
  H  840  1  0.93216900  0.52501800  0.47661400  1
  H  841  1  0.92085100  0.47012300  0.48468200  1
  H  843  1  0.90326400  0.51839100  0.43068300  1
  H  852  1  0.50046100  0.03062400  0.61266300  1
  H  853  1  0.44476400  0.01608300  0.60425200  1
  H  854  1  0.49368900  0.06692600  0.59416500  1
  H  856  1  0.53200400  0.94483800  0.59962300  1
  H  857  1  0.49322000  0.95734200  0.61270700  1
  H  858  1  0.54972200  0.00231400  0.60571200  1
  H  860  1  0.42684300  0.01458900  0.51681400  1
  H  861  1  0.41544800  0.95917900  0.50949200  1
  H  862  1  0.46876700  0.00861300  0.50234400  1
  H  864  1  0.50855400  0.92137100  0.51645900  1
  H  865  1  0.50826500  0.96693500  0.50243900  1
  H  866  1  0.45567200  0.91600900  0.50886000  1
  H  868  1  0.50101600  0.89333500  0.56315600  1
  H  870  1  0.39518500  0.99867200  0.56256200  1
  H  875  1  0.92966800  0.42747600  0.26066300  1
  H  877  1  0.05267500  0.58760000  0.26619300  1
  H  878  1  0.03962000  0.53614100  0.27925600  1
  H  880  1  0.03764100  0.45647400  0.17612000  1
  H  882  1  0.07600400  0.58754600  0.18301900  1
  H  883  1  0.03035500  0.54182100  0.16897200  1
  H  884  1  0.08109900  0.53985200  0.17545500  1
  H  886  1  0.10385700  0.60809200  0.22961100  1
  H  894  1  0.52664500  0.49627500  0.94588200  1
  H  895  1  0.56792600  0.55194800  0.93749600  1
  H  896  1  0.56973400  0.50295400  0.92742200  1
  H  898  1  0.40952000  0.46549800  0.93283000  1
  H  899  1  0.46090500  0.50404800  0.94591000  1
  H  900  1  0.44898400  0.44740800  0.93894300  1
  H  902  1  0.58457200  0.56984400  0.85003300  1
  H  903  1  0.54075400  0.58153900  0.84273200  1
  H  904  1  0.53657800  0.52811100  0.83554200  1
  H  906  1  0.40967700  0.48890200  0.84965400  1
  H  907  1  0.45540000  0.48891500  0.83563900  1
  H  908  1  0.45738600  0.54165700  0.84206800  1
  H  910  1  0.38923300  0.49637300  0.89638100  1
  H  912  1  0.60046100  0.60126400  0.89588500  1
  C  2  1  0.99146000  0.73416100  0.34911200  1
  C  3  1  0.99410600  0.73539800  0.30736100  1
  C  5  1  0.98710200  0.28813000  0.85770800  1
  C  7  1  0.99653800  0.32824700  0.87274800  1
  C  9  1  0.98383900  0.76110100  0.84091600  1
  C  10  1  0.98152700  0.50949200  0.41503100  1
  C  11  1  0.98740700  0.46787300  0.45631400  1
  C  12  1  0.99043400  0.44605300  0.47799200  1
  C  14  1  0.99160700  0.47689100  0.24417400  1
  C  15  1  0.98867900  0.45216000  0.22396500  1
  C  20  1  0.96801000  0.72150000  0.32787700  1
  C  21  1  0.96921500  0.72576000  0.28506600  1
  C  22  1  0.96601700  0.71992000  0.36905800  1
  C  23  1  0.96812500  0.21195800  0.82876700  1
  C  25  1  0.97529600  0.72393700  0.85566900  1
  C  27  1  0.96635000  0.49591700  0.45629200  1
  C  28  1  0.97568700  0.52786900  0.39277800  1
  C  31  1  0.97357900  0.40529500  0.22579500  1
  C  32  1  0.96261200  0.63845200  0.40913700  1
  C  36  1  0.95784000  0.24307900  0.35105400  1
  C  38  1  0.95874100  0.17235100  0.81349900  1
  C  41  1  0.96221500  0.51522000  0.43551200  1
  C  45  1  0.96587600  0.45010200  0.26487700  1
  C  47  1  0.78311500  0.16032700  0.76657700  1
  C  48  1  0.78243200  0.19903300  0.75755400  1
  C  49  1  0.81741400  0.24396100  0.76287600  1
  C  50  1  0.85346300  0.25051400  0.77737000  1
  C  51  1  0.85481600  0.21258400  0.78686200  1
  C  52  1  0.81981300  0.16719800  0.78107400  1
  C  55  1  0.74700200  0.11579700  0.76033900  1
  C  56  1  0.70212300  0.09794800  0.76957600  1
  C  57  1  0.66473100  0.05698200  0.76072300  1
  C  58  1  0.67253900  0.03466700  0.74249200  1
  C  59  1  0.71643800  0.05237200  0.73269100  1
  C  60  1  0.75357900  0.09303700  0.74176000  1
  C  71  1  0.37391100  0.21419400  0.09987900  1
  C  72  1  0.41327600  0.21487900  0.09082100  1
  C  73  1  0.42326400  0.17992600  0.09614200  1
  C  74  1  0.39383700  0.14390700  0.11066900  1
  C  75  1  0.35458200  0.14255400  0.12019700  1
  C  76  1  0.34415500  0.17753000  0.11440900  1
  C  79  1  0.36547200  0.25030000  0.09365600  1
  C  80  1  0.39245400  0.29515500  0.10292500  1
  C  81  1  0.38887000  0.33255500  0.09409200  1
  C  82  1  0.35877900  0.32478000  0.07584900  1
  C  83  1  0.33263500  0.28090400  0.06601600  1
  C  84  1  0.33617100  0.24375500  0.07506500  1
  C  95  1  0.83692400  0.62327100  0.43325200  1
  C  96  1  0.79822100  0.58381700  0.42427100  1
  C  97  1  0.75328800  0.57384200  0.42960700  1
  C  98  1  0.74672900  0.60337300  0.44407200  1
  C  99  1  0.78465400  0.64272100  0.45352000  1
  C  100  1  0.83004200  0.65313400  0.44771500  1
  C  103  1  0.88146000  0.63171300  0.42699900  1
  C  104  1  0.89934500  0.60470900  0.43622700  1
  C  105  1  0.94032100  0.60831600  0.42736600  1
  C  106  1  0.94487100  0.66462300  0.39934400  1
  C  107  1  0.90419800  0.66106600  0.40842100  1
  C  115  1  0.20954400  0.83044300  0.76525100  1
  C  116  1  0.20825700  0.79080600  0.75617500  1
  C  117  1  0.17214000  0.74651700  0.76162000  1
  C  118  1  0.13701900  0.74153200  0.77636300  1
  C  119  1  0.13764100  0.78038300  0.78596300  1
  C  120  1  0.17372200  0.82515000  0.77998300  1
  C  123  1  0.24668300  0.87428700  0.75882600  1
  C  124  1  0.29188900  0.88988700  0.76714700  1
  C  125  1  0.32978200  0.93057300  0.75850300  1
  C  126  1  0.32225600  0.95343400  0.74033600  1
  C  127  1  0.27804200  0.93809600  0.73141200  1
  C  128  1  0.24023900  0.89859500  0.74092100  1
  C  139  1  0.61783100  0.78770600  0.09840000  1
  C  140  1  0.57952100  0.78902100  0.08928600  1
  C  141  1  0.57129300  0.82509200  0.09474900  1
  C  142  1  0.60134100  0.86015300  0.10954500  1
  C  143  1  0.63952300  0.85950500  0.11918700  1
  C  144  1  0.64825000  0.82345200  0.11320000  1
  C  147  1  0.62450600  0.75053200  0.09199700  1
  C  148  1  0.59488900  0.70536800  0.10037100  1
  C  149  1  0.59757900  0.66740300  0.09175000  1
  C  150  1  0.62788100  0.67481500  0.07355800  1
  C  151  1  0.65675200  0.71897000  0.06457500  1
  C  152  1  0.65515200  0.75685100  0.07405700  1
  C  163  1  0.16662700  0.37939200  0.43174400  1
  C  164  1  0.20609300  0.41773700  0.42253400  1
  C  165  1  0.25050300  0.42618800  0.42791300  1
  C  166  1  0.25578900  0.39631500  0.44271000  1
  C  167  1  0.21713700  0.35808700  0.45243900  1
  C  168  1  0.17223700  0.34915400  0.44655100  1
  C  171  1  0.12267300  0.37254600  0.42540900  1
  C  172  1  0.10709000  0.40213400  0.43378700  1
  C  173  1  0.06643000  0.39943600  0.42516600  1
  C  174  1  0.04356500  0.36915000  0.40696700  1
  C  175  1  0.05887700  0.34030800  0.39797200  1
  C  176  1  0.09836900  0.34192600  0.40745600  1
  C  187  1  0.60181000  0.81705600  0.54968000  1
  C  188  1  0.55668900  0.77970800  0.54580000  1
  C  189  1  0.54901700  0.73916200  0.53479800  1
  C  190  1  0.58734800  0.73481300  0.52888400  1
  C  191  1  0.63265600  0.77080800  0.53252700  1
  C  192  1  0.63994900  0.81204200  0.54301000  1
  C  195  1  0.60747000  0.85800500  0.56040000  1
  C  196  1  0.58434200  0.88112300  0.55229700  1
  C  197  1  0.58847900  0.92003800  0.56389800  1
  C  198  1  0.61588200  0.93586300  0.58348700  1
  C  199  1  0.63873700  0.91355100  0.59203200  1
  C  200  1  0.63407900  0.87452200  0.58047800  1
  C  211  1  0.18011300  0.78529100  0.21632700  1
  C  212  1  0.21749200  0.77755700  0.21246400  1
  C  213  1  0.25804700  0.81046300  0.20148400  1
  C  214  1  0.26238000  0.85313900  0.19557600  1
  C  215  1  0.22635200  0.86241300  0.19920000  1
  C  216  1  0.18511000  0.82844100  0.20966100  1
  C  219  1  0.13916500  0.74997300  0.22703800  1
  C  220  1  0.11609200  0.70372400  0.21894300  1
  C  221  1  0.07718000  0.66892400  0.23053900  1
  C  222  1  0.06131800  0.68049100  0.25011900  1
  C  223  1  0.08358200  0.72566300  0.25865800  1
  C  224  1  0.12260400  0.76005000  0.24710800  1
  C  235  1  0.21197500  0.39567800  0.88303100  1
  C  236  1  0.21982000  0.44082600  0.87914800  1
  C  237  1  0.18694200  0.44855600  0.86819400  1
  C  238  1  0.14418900  0.41026500  0.86233800  1
  C  239  1  0.13479400  0.36492700  0.86598200  1
  C  240  1  0.16874600  0.35757900  0.87641500  1
  C  243  1  0.24726800  0.38997000  0.89371500  1
  C  244  1  0.29349100  0.41304100  0.88557900  1
  C  245  1  0.32828400  0.40888800  0.89715500  1
  C  246  1  0.31674000  0.38151300  0.91675400  1
  C  247  1  0.27160000  0.35871300  0.92533300  1
  C  248  1  0.23722100  0.36340000  0.91380500  1
  C  259  1  0.39856300  0.18560600  0.55197600  1
  C  260  1  0.44375000  0.22370500  0.54971300  1
  C  261  1  0.45259300  0.26449600  0.53861100  1
  C  262  1  0.41466300  0.26813900  0.53089600  1
  C  263  1  0.36907600  0.23173700  0.53342000  1
  C  264  1  0.36100900  0.19028900  0.54398700  1
  C  267  1  0.39258900  0.14439500  0.56248700  1
  C  268  1  0.41744300  0.12267200  0.55489000  1
  C  269  1  0.41348500  0.08368800  0.56628300  1
  C  270  1  0.38633000  0.06811100  0.58605100  1
  C  271  1  0.36148600  0.08878600  0.59402500  1
  C  272  1  0.36479200  0.12689800  0.58213800  1
  C  283  1  0.81102400  0.21296500  0.21805400  1
  C  284  1  0.77324000  0.22007400  0.21420900  1
  C  285  1  0.73290100  0.18697400  0.20315600  1
  C  286  1  0.72912000  0.14451300  0.19725200  1
  C  287  1  0.76555700  0.13580200  0.20077800  1
  C  288  1  0.80661600  0.17010100  0.21126800  1
  C  291  1  0.85166500  0.24863300  0.22888700  1
  C  292  1  0.87356800  0.29521400  0.22124200  1
  C  293  1  0.91226800  0.33033300  0.23278600  1
  C  294  1  0.92749900  0.31886800  0.25270500  1
  C  295  1  0.90679400  0.27339200  0.26071500  1
  C  296  1  0.86885400  0.23856200  0.24874400  1
  C  306  1  0.78419300  0.59873700  0.88468300  1
  C  307  1  0.77720300  0.55389000  0.88084700  1
  C  308  1  0.81033800  0.54675000  0.86976200  1
  C  309  1  0.85271100  0.58549700  0.86380600  1
  C  310  1  0.86128500  0.63059900  0.86732400  1
  C  311  1  0.82696000  0.63726200  0.87785000  1
  C  314  1  0.74850600  0.60362100  0.89554800  1
  C  315  1  0.70191700  0.57889000  0.88792300  1
  C  316  1  0.66679700  0.58244000  0.89948200  1
  C  317  1  0.67827000  0.60914400  0.91939900  1
  C  318  1  0.72376000  0.63395800  0.92739000  1
  C  319  1  0.75859400  0.63089400  0.91540000  1
  C  330  1  0.73933100  0.00569700  0.68247600  1
  C  331  1  0.71595400  0.95651900  0.68342800  1
  C  332  1  0.69982600  0.93048700  0.66295900  1
  C  333  1  0.71114700  0.95390700  0.64171600  1
  C  334  1  0.73791700  0.00300700  0.64072600  1
  C  335  1  0.75012100  0.02912500  0.66123400  1
  C  336  1  0.67090500  0.87873300  0.66296600  1
  C  340  1  0.70824100  0.93178300  0.70560700  1
  C  344  1  0.75315900  0.02787000  0.61842200  1
  C  348  1  0.77370200  0.08088800  0.65990300  1
  C  352  1  0.75054400  0.03116500  0.70241200  1
  C  354  1  0.69395200  0.92846100  0.62183900  1
  C  356  1  0.26315200  0.25808400  0.01577200  1
  C  357  1  0.23733400  0.28144400  0.01672600  1
  C  358  1  0.22744500  0.29759000  0.99626000  1
  C  359  1  0.23957400  0.28630300  0.97501600  1
  C  360  1  0.26191500  0.25954300  0.97402400  1
  C  361  1  0.27581500  0.24732200  0.99453200  1
  C  362  1  0.20459500  0.32649600  0.99626900  1
  C  366  1  0.22028000  0.28912300  0.03890300  1
  C  370  1  0.27155700  0.24432500  0.95171800  1
  C  374  1  0.30400600  0.22375000  0.99319800  1
  C  378  1  0.27738400  0.24684600  0.03571000  1
  C  380  1  0.23132800  0.30350800  0.95514100  1
  C  382  1  0.04064200  0.75997300  0.35004900  1
  C  383  1  0.06664900  0.76985000  0.32957500  1
  C  384  1  0.04320700  0.75773100  0.30833700  1
  C  385  1  0.11840300  0.79268000  0.32957000  1
  C  389  1  0.06540300  0.77703800  0.37222000  1
  C  395  1  0.91624300  0.69330900  0.32656000  1
  C  400  1  0.06862800  0.76596800  0.28845200  1
  C  402  1  0.25714400  0.98979600  0.68256900  1
  C  403  1  0.28120000  0.03887400  0.68454100  1
  C  404  1  0.29814700  0.06659700  0.66461300  1
  C  405  1  0.28717400  0.04502000  0.64290700  1
  C  406  1  0.26013200  0.99606600  0.64090900  1
  C  407  1  0.24690700  0.96820500  0.66086000  1
  C  408  1  0.32761000  0.11826200  0.66565400  1
  C  412  1  0.28886500  0.06177800  0.70724400  1
  C  416  1  0.24568400  0.97313200  0.61811600  1
  C  420  1  0.22287000  0.91657300  0.65846500  1
  C  424  1  0.24488600  0.96260900  0.70195900  1
  C  426  1  0.30506400  0.07207400  0.62354200  1
  C  428  1  0.72910100  0.73931200  0.01565700  1
  C  429  1  0.75412700  0.71527200  0.01771700  1
  C  430  1  0.76485000  0.69810700  0.99784900  1
  C  431  1  0.75412400  0.70877100  0.97609700  1
  C  432  1  0.73218900  0.73578000  0.97400500  1
  C  433  1  0.71768100  0.74929800  0.99390600  1
  C  434  1  0.78714100  0.66873900  0.99899200  1
  C  438  1  0.76946200  0.70787800  0.04045300  1
  C  442  1  0.72356200  0.74990900  0.95116000  1
  C  446  1  0.69015600  0.77339100  0.99141900  1
  C  450  1  0.71426200  0.75182000  0.03500600  1
  C  452  1  0.76334000  0.69075300  0.95678800  1
  C  454  1  0.00690400  0.26812600  0.34898900  1
  C  455  1  0.92993300  0.23236100  0.33119100  1
  C  456  1  0.95130300  0.24311100  0.30943500  1
  C  457  1  0.00024700  0.26507900  0.30733400  1
  C  458  1  0.02828700  0.27958400  0.32723100  1
  C  459  1  0.87827100  0.21003900  0.33234400  1
  C  463  1  0.93512600  0.22770300  0.37379100  1
  C  466  1  0.02298900  0.27373400  0.28448500  1
  C  470  1  0.07990300  0.30715100  0.32473500  1
  C  474  1  0.03427200  0.28291600  0.36833500  1
  C  476  1  0.92403900  0.23386000  0.29013100  1
  C  478  1  0.93562400  0.22748500  0.83093400  1
  C  479  1  0.01040400  0.23467000  0.84118700  1
  C  480  1  0.01972300  0.27278400  0.85540700  1
  C  481  1  0.94463800  0.26516400  0.84547100  1
  C  482  1  0.04608700  0.21999500  0.83983000  1
  C  488  1  0.91034200  0.28146500  0.84819900  1
  C  492  1  0.89431500  0.20538700  0.81902400  1
  C  494  1  0.06149900  0.29574900  0.86697300  1
  C  496  1  0.28855500  0.06164700  0.16424500  1
  C  497  1  0.24051900  0.02920100  0.16205600  1
  C  498  1  0.22086600  0.98692200  0.17447800  1
  C  499  1  0.24960100  0.97750100  0.18868800  1
  C  500  1  0.29759900  0.01003300  0.19098000  1
  C  501  1  0.31716000  0.05254600  0.17878200  1
  C  502  1  0.17047300  0.95134400  0.17313500  1
  C  506  1  0.21037700  0.03864500  0.14675800  1
  C  510  1  0.32824800  0.00043800  0.20595900  1
  C  514  1  0.36775500  0.08680400  0.18155600  1
  C  518  1  0.30784400  0.10298600  0.15236000  1
  C  520  1  0.23068800  0.93572800  0.20027100  1
  C  522  1  0.76977300  0.70873300  0.49754300  1
  C  523  1  0.78535400  0.75677200  0.49537300  1
  C  524  1  0.76269100  0.77638700  0.50779400  1
  C  525  1  0.72453300  0.74762000  0.52199800  1
  C  526  1  0.70909000  0.69962700  0.52427600  1
  C  527  1  0.73205600  0.68009800  0.51206600  1
  C  528  1  0.77747300  0.82677400  0.50645900  1
  C  532  1  0.82496600  0.78695500  0.48010000  1
  C  536  1  0.66885400  0.66895100  0.53925300  1
  C  540  1  0.71571500  0.62949500  0.51480800  1
  C  544  1  0.79185500  0.68948700  0.48565100  1
  C  546  1  0.70165400  0.76650400  0.53358500  1
  C  548  1  0.05864000  0.76845300  0.83051200  1
  C  549  1  0.02574300  0.78343800  0.82817500  1
  C  550  1  0.00844400  0.70932700  0.85823800  1
  C  551  1  0.05048000  0.73184800  0.84563300  1
  C  552  1  0.94775600  0.77521100  0.83936000  1
  C  555  1  0.03432400  0.82207900  0.81239300  1
  C  559  1  0.99999400  0.67043400  0.87394800  1
  C  562  1  0.08524900  0.71621400  0.84859800  1
  C  566  1  0.09947900  0.79000000  0.81818700  1
  C  568  1  0.93375200  0.70116900  0.86747400  1
  C  570  1  0.70637300  0.93846000  0.16381000  1
  C  571  1  0.75424700  0.97140800  0.16149300  1
  C  572  1  0.77374800  0.01330400  0.17423600  1
  C  573  1  0.74508600  0.02177000  0.18900000  1
  C  574  1  0.69735300  0.98854700  0.19157200  1
  C  575  1  0.67788400  0.94655500  0.17893100  1
  C  576  1  0.82391400  0.04946800  0.17267100  1
  C  580  1  0.78437100  0.96288100  0.14572800  1
  C  584  1  0.66689400  0.99686000  0.20733700  1
  C  588  1  0.62748400  0.91175500  0.18186400  1
  C  592  1  0.68714500  0.89762800  0.15147500  1
  C  594  1  0.76379400  0.06330600  0.20080700  1
  C  596  1  0.23026500  0.29118100  0.49674300  1
  C  597  1  0.21572700  0.24341600  0.49431000  1
  C  598  1  0.23875400  0.22422200  0.50677600  1
  C  599  1  0.27624400  0.25312000  0.52130600  1
  C  600  1  0.29033000  0.30071800  0.52402100  1
  C  601  1  0.26704600  0.31983200  0.51173700  1
  C  602  1  0.22501400  0.17413000  0.50517200  1
  C  606  1  0.17676300  0.21306900  0.47874500  1
  C  610  1  0.32939100  0.33139100  0.53959800  1
  C  614  1  0.28201200  0.37002400  0.51492800  1
  C  618  1  0.20818900  0.31016600  0.48459700  1
  C  620  1  0.29929600  0.23459200  0.53307100  1
  C  622  1  0.72554100  0.34164200  0.83205300  1
  C  623  1  0.69869500  0.35598700  0.84476000  1
  C  624  1  0.71795400  0.40368100  0.85022100  1
  C  625  1  0.76344000  0.43611900  0.84277600  1
  C  626  1  0.78933700  0.42163400  0.82918800  1
  C  627  1  0.77076900  0.37379800  0.82431200  1
  C  628  1  0.69165500  0.42112500  0.86373900  1
  C  632  1  0.65069400  0.32191600  0.85255600  1
  C  636  1  0.83577500  0.45741400  0.82026600  1
  C  640  1  0.79928200  0.35825800  0.81131400  1
  C  644  1  0.70788900  0.29787000  0.82697200  1
  C  646  1  0.78067700  0.48289300  0.84767500  1
  C  648  1  0.61276100  0.27195800  0.16541400  1
  C  649  1  0.65395400  0.29879400  0.17812100  1
  C  650  1  0.68237100  0.27951500  0.18358700  1
  C  651  1  0.66930200  0.23402300  0.17614700  1
  C  652  1  0.62892100  0.20813600  0.16255900  1
  C  653  1  0.59966700  0.22672000  0.15767700  1
  C  654  1  0.72611600  0.30580300  0.19710300  1
  C  658  1  0.66791000  0.34680500  0.18591000  1
  C  662  1  0.61824600  0.16169100  0.15363800  1
  C  666  1  0.55561000  0.19821800  0.14468300  1
  C  670  1  0.58665500  0.28962500  0.16033100  1
  C  672  1  0.69881800  0.21676200  0.18105700  1
  C  674  1  0.65363100  0.38420300  0.49707900  1
  C  675  1  0.63847000  0.34303100  0.50993200  1
  C  676  1  0.59103700  0.31656400  0.51625800  1
  C  677  1  0.56014000  0.33257800  0.51027000  1
  C  678  1  0.57503500  0.37239800  0.49628600  1
  C  679  1  0.62247500  0.39913500  0.49005000  1
  C  680  1  0.57243600  0.27201400  0.52915900  1
  C  684  1  0.67150900  0.32742000  0.51726700  1
  C  688  1  0.53989100  0.38492300  0.48843500  1
  C  692  1  0.63867100  0.44272600  0.47657800  1
  C  696  1  0.69707100  0.40826800  0.49101700  1
  C  698  1  0.51389400  0.30743800  0.51677800  1
  C  700  1  0.27097500  0.65563200  0.83300900  1
  C  701  1  0.29888000  0.64170300  0.84506400  1
  C  702  1  0.28082600  0.59392400  0.84993100  1
  C  703  1  0.23551300  0.56096200  0.84248500  1
  C  704  1  0.20840500  0.57514400  0.82966700  1
  C  705  1  0.22581200  0.62302200  0.82537200  1
  C  706  1  0.30826400  0.57693600  0.86282600  1
  C  710  1  0.34680000  0.67628800  0.85274500  1
  C  714  1  0.16197000  0.53904400  0.82089300  1
  C  718  1  0.19623500  0.63813400  0.81303900  1
  C  722  1  0.28750700  0.69950100  0.82851000  1
  C  724  1  0.21980000  0.51423500  0.84687100  1
  C  726  1  0.38121300  0.72651500  0.16637100  1
  C  727  1  0.33937000  0.69861200  0.17842200  1
  C  728  1  0.30964200  0.71666600  0.18327800  1
  C  729  1  0.32199600  0.76198000  0.17582600  1
  C  730  1  0.36329800  0.78908700  0.16302000  1
  C  731  1  0.39377200  0.77167600  0.15873100  1
  C  732  1  0.26521300  0.68923200  0.19616900  1
  C  736  1  0.32603200  0.65069200  0.18610700  1
  C  740  1  0.37365100  0.83553100  0.15424900  1
  C  744  1  0.43846200  0.80124800  0.14639900  1
  C  748  1  0.40854600  0.70997900  0.16187700  1
  C  750  1  0.29096400  0.77767700  0.18019300  1
  C  752  1  0.34187800  0.61608600  0.49968600  1
  C  753  1  0.35581900  0.65793400  0.51173300  1
  C  754  1  0.40359900  0.68766000  0.51659100  1
  C  755  1  0.43656300  0.67531000  0.50914200  1
  C  756  1  0.42236500  0.63399400  0.49634200  1
  C  757  1  0.37448200  0.60352400  0.49205200  1
  C  758  1  0.42059300  0.73209600  0.52947900  1
  C  762  1  0.32123600  0.67127600  0.51941200  1
  C  766  1  0.45845500  0.62363500  0.48757900  1
  C  770  1  0.35936300  0.55882900  0.47972400  1
  C  774  1  0.29801100  0.58875200  0.49519200  1
  C  776  1  0.48328900  0.70634600  0.51351200  1
  C  778  1  0.54978500  0.03516200  0.76890300  1
  C  779  1  0.52480400  0.01591100  0.74840000  1
  C  780  1  0.47562100  0.99245300  0.74874200  1
  C  781  1  0.45236700  0.99199000  0.76909000  1
  C  782  1  0.47718500  0.00981000  0.78967400  1
  C  783  1  0.52629100  0.03093900  0.78967600  1
  C  784  1  0.44735400  0.96902400  0.72800200  1
  C  788  1  0.54907900  0.02193100  0.72614900  1
  C  792  1  0.45226300  0.00671100  0.81133700  1
  C  796  1  0.55231500  0.04974500  0.81143900  1
  C  800  1  0.59752800  0.06090200  0.76805400  1
  C  802  1  0.40727400  0.98329700  0.76738200  1
  C  804  1  0.48196900  0.44747400  0.10224600  1
  C  805  1  0.48775100  0.47243400  0.08173000  1
  C  806  1  0.51354600  0.52161400  0.08205200  1
  C  807  1  0.53629600  0.54486900  0.10240200  1
  C  808  1  0.52921700  0.52009500  0.12300800  1
  C  809  1  0.50121000  0.47098900  0.12302000  1
  C  810  1  0.51853900  0.54987300  0.06128800  1
  C  814  1  0.46943600  0.44813000  0.05949200  1
  C  818  1  0.55096300  0.54503000  0.14467900  1
  C  822  1  0.49392600  0.44498400  0.14479400  1
  C  826  1  0.45996500  0.39972100  0.10141900  1
  C  828  1  0.57276800  0.58994200  0.10072800  1
  C  830  1  0.00487100  0.48365600  0.41539500  1
  C  831  1  0.00520400  0.46078900  0.43573700  1
  C  832  1  0.02826200  0.47870900  0.39467100  1
  C  839  1  0.94751000  0.50316300  0.47803800  1
  C  842  1  0.93646200  0.53721100  0.43463100  1
  C  844  1  0.01379200  0.42430800  0.43408300  1
  C  845  1  0.50491200  0.95561700  0.55747800  1
  C  846  1  0.50282600  0.97738900  0.57790300  1
  C  847  1  0.48149500  0.00513200  0.57764900  1
  C  848  1  0.45959000  0.00790500  0.55744700  1
  C  849  1  0.46313400  0.98759400  0.53690600  1
  C  850  1  0.48656500  0.96176200  0.53683300  1
  C  851  1  0.48019000  0.03071900  0.59835600  1
  C  855  1  0.52047300  0.96990400  0.60000000  1
  C  859  1  0.44233100  0.99285600  0.51536600  1
  C  863  1  0.49005300  0.94026200  0.51512900  1
  C  867  1  0.52222500  0.92566100  0.55832800  1
  C  869  1  0.42756800  0.02267600  0.55923800  1
  C  871  1  0.04147700  0.54975100  0.22401800  1
  C  872  1  0.01962800  0.52593900  0.24444100  1
  C  873  1  0.00923500  0.47596400  0.20344900  1
  C  874  1  0.03528500  0.52521800  0.20338100  1
  C  876  1  0.02732000  0.55108400  0.26655200  1
  C  879  1  0.00398000  0.44984300  0.18193100  1
  C  881  1  0.05695300  0.55015400  0.18169000  1
  C  885  1  0.07149800  0.59701500  0.22486000  1
  C  887  1  0.44744700  0.49227000  0.89067800  1
  C  888  1  0.47123600  0.49426700  0.91111400  1
  C  889  1  0.52029100  0.51533600  0.91086400  1
  C  890  1  0.54502100  0.53708400  0.89065100  1
  C  891  1  0.52124500  0.53375300  0.87011200  1
  C  892  1  0.47199100  0.51055300  0.87003700  1
  C  893  1  0.54708600  0.51653700  0.93159000  1
  C  897  1  0.44606100  0.47678300  0.93321300  1
  C  901  1  0.54736900  0.55452400  0.84858300  1
  C  905  1  0.44707000  0.50722600  0.84833200  1
  C  909  1  0.40018000  0.47505800  0.89149900  1
  C  911  1  0.59189000  0.56887300  0.89244600  1
  N  33  1  0.96560900  0.68724800  0.38055500  1
  N  34  1  0.95734600  0.58132700  0.43295600  1
  N  67  1  0.71829400  0.03161200  0.71390300  1
  N  68  1  0.62072300  0.03999300  0.76631300  1
  N  69  1  0.89023400  0.22331800  0.80059500  1
  N  70  1  0.81636600  0.27801200  0.75481400  1
  N  91  1  0.31005300  0.27908100  0.04722000  1
  N  92  1  0.41585500  0.37654500  0.09972300  1
  N  93  1  0.32998800  0.10717100  0.13396400  1
  N  94  1  0.45834100  0.18097500  0.08805300  1
  N  113  1  0.77391800  0.66743800  0.46723000  1
  N  114  1  0.71924200  0.53868700  0.42158500  1
  N  135  1  0.27645200  0.96023400  0.71311300  1
  N  136  1  0.37280400  0.94249700  0.76435800  1
  N  137  1  0.10301400  0.77089600  0.80005200  1
  N  138  1  0.17138400  0.71163300  0.75345700  1
  N  159  1  0.68040400  0.72040700  0.04626600  1
  N  160  1  0.56646300  0.62441700  0.09765800  1
  N  161  1  0.66457800  0.89409500  0.13331200  1
  N  162  1  0.53719300  0.82586200  0.08655900  1
  N  183  1  0.03668500  0.31670400  0.37964800  1
  N  184  1  0.05457100  0.43057400  0.43105500  1
  N  185  1  0.22702700  0.33324800  0.46653200  1
  N  186  1  0.28522500  0.46032300  0.41964400  1
  N  207  1  0.66208000  0.93100200  0.61106300  1
  N  208  1  0.56604400  0.94210200  0.55857000  1
  N  209  1  0.66502100  0.76269000  0.52466900  1
  N  210  1  0.50424000  0.70170300  0.53080700  1
  N  231  1  0.06607400  0.73155200  0.27767100  1
  N  232  1  0.05509800  0.62442600  0.22520300  1
  N  233  1  0.23446600  0.90289500  0.19134400  1
  N  234  1  0.29553600  0.80318000  0.19751700  1
  N  255  1  0.26573700  0.33539700  0.94437000  1
  N  256  1  0.37276200  0.43125200  0.89178100  1
  N  257  1  0.09419900  0.33265200  0.85819300  1
  N  258  1  0.19432100  0.49335600  0.86421000  1
  N  279  1  0.33743000  0.07044700  0.61277300  1
  N  280  1  0.43969900  0.06561900  0.56056100  1
  N  281  1  0.33711300  0.23986600  0.52489000  1
  N  282  1  0.49883300  0.30118000  0.53722200  1
  N  302  1  0.92520000  0.26774900  0.27947400  1
  N  303  1  0.93056400  0.37462900  0.22701300  1
  N  304  1  0.75774200  0.09546300  0.19281400  1
  N  305  1  0.69523700  0.19415400  0.19941200  1
  N  326  1  0.72942800  0.65804000  0.94613700  1
  N  327  1  0.62250800  0.55646500  0.89369600  1
  N  328  1  0.90149200  0.66323300  0.85929500  1
  N  329  1  0.80327000  0.50194600  0.86602800  1
  O  63  1  0.82074900  0.13002100  0.78968100  1
  O  64  1  0.69473800  0.11928400  0.78739300  1
  O  87  1  0.30606300  0.17659900  0.12304300  1
  O  88  1  0.42116500  0.30251500  0.12074300  1
  O  109  1  0.86721300  0.69131000  0.45628400  1
  O  110  1  0.87803500  0.57597400  0.45404400  1
  O  131  1  0.17479600  0.86326500  0.78868100  1
  O  132  1  0.29900000  0.86600700  0.78381900  1
  O  155  1  0.68522700  0.82233700  0.12195400  1
  O  156  1  0.56397800  0.69836600  0.11706800  1
  O  179  1  0.13430300  0.31215400  0.45539900  1
  O  180  1  0.13100800  0.43307300  0.45047400  1
  O  203  1  0.68368800  0.84829800  0.54468400  1
  O  204  1  0.56082500  0.86840000  0.53233400  1
  O  227  1  0.14883300  0.83589600  0.21132400  1
  O  228  1  0.12883800  0.69294600  0.19898000  1
  O  251  1  0.16119000  0.31381300  0.87808300  1
  O  252  1  0.30424000  0.43652300  0.86560400  1
  O  275  1  0.31736200  0.15363600  0.54456400  1
  O  276  1  0.44320900  0.13749100  0.53560300  1
  O  298  1  0.84333500  0.16332500  0.21279000  1
  O  299  1  0.85950300  0.30607900  0.20168300  1
  O  322  1  0.83361700  0.68071200  0.87937500  1
  O  323  1  0.69104900  0.55395400  0.86836700  1
