# generated using pymatgen
data_H11C15N2O
_symmetry_space_group_name_H-M   'P 1'
_cell_length_a   40.03530000
_cell_length_b   46.13650000
_cell_length_c   60.61090000
_cell_angle_alpha   90.00370000
_cell_angle_beta   90.39900000
_cell_angle_gamma   89.47580000
_symmetry_Int_Tables_number   1
_chemical_formula_structural   H11C15N2O
_chemical_formula_sum   'H704 C960 N128 O64'
_cell_volume   111946.30356756
_cell_formula_units_Z   64
loop_
 _symmetry_equiv_pos_site_id
 _symmetry_equiv_pos_as_xyz
  1  'x, y, z'
loop_
 _atom_site_type_symbol
 _atom_site_label
 _atom_site_symmetry_multiplicity
 _atom_site_fract_x
 _atom_site_fract_y
 _atom_site_fract_z
 _atom_site_occupancy
  H  7  1  0.87185000  0.83689000  0.84281100  1
  H  8  1  0.84772600  0.82290900  0.90890300  1
  H  15  1  0.97647300  0.91310900  0.80539200  1
  H  16  1  0.92730200  0.91011600  0.86571800  1
  H  19  1  0.93503600  0.88987500  0.90316600  1
  H  20  1  0.91415800  0.82733400  0.81192500  1
  H  31  1  0.14699300  0.18234000  0.84433800  1
  H  32  1  0.17043900  0.19836800  0.91053200  1
  H  39  1  0.04315900  0.10372300  0.80751700  1
  H  40  1  0.09447100  0.10846200  0.86744300  1
  H  43  1  0.08502200  0.12945000  0.90453400  1
  H  44  1  0.10297000  0.19140100  0.81361500  1
  H  55  1  0.87649400  0.18263300  0.63460100  1
  H  56  1  0.84948800  0.19590500  0.56861700  1
  H  63  1  0.98337700  0.10651100  0.67178400  1
  H  64  1  0.93158000  0.10955500  0.61188100  1
  H  67  1  0.93879600  0.12931600  0.57422100  1
  H  68  1  0.91880500  0.19248400  0.66473500  1
  H  79  1  0.14754000  0.83490800  0.63441700  1
  H  80  1  0.17148600  0.82061100  0.56823900  1
  H  87  1  0.04022000  0.91170900  0.67069800  1
  H  88  1  0.09264800  0.90830900  0.61161200  1
  H  91  1  0.08308200  0.88795400  0.57431400  1
  H  92  1  0.10513700  0.82583100  0.66512600  1
  H  103  1  0.14748800  0.18227000  0.13524200  1
  H  104  1  0.16845000  0.20046100  0.06911700  1
  H  111  1  0.04146500  0.10706600  0.17200200  1
  H  112  1  0.08967100  0.11156200  0.11133500  1
  H  115  1  0.07929400  0.13484400  0.07449200  1
  H  116  1  0.10491500  0.19236800  0.16646300  1
  H  127  1  0.87013400  0.83914700  0.13374100  1
  H  128  1  0.84948500  0.81901300  0.06768300  1
  H  135  1  0.97534800  0.91644600  0.17003400  1
  H  136  1  0.92484500  0.91084900  0.10979200  1
  H  139  1  0.93625100  0.88729200  0.07308800  1
  H  140  1  0.91410600  0.82942500  0.16461900  1
  H  151  1  0.14275400  0.83625700  0.34354300  1
  H  152  1  0.16658700  0.81893600  0.40964800  1
  H  159  1  0.03412300  0.91121400  0.30705800  1
  H  160  1  0.08521500  0.90690200  0.36723700  1
  H  163  1  0.07545200  0.88411700  0.40428400  1
  H  164  1  0.10025800  0.82597300  0.31297000  1
  H  175  1  0.86941700  0.18143500  0.34351500  1
  H  176  1  0.84812700  0.20003500  0.40961000  1
  H  183  1  0.97802500  0.10618400  0.30767700  1
  H  184  1  0.92670600  0.11046300  0.36724000  1
  H  187  1  0.93807100  0.13353100  0.40416000  1
  H  188  1  0.91179800  0.19136300  0.31269000  1
  H  199  1  0.37316400  0.33371000  0.84379500  1
  H  200  1  0.35341300  0.31769600  0.91037800  1
  H  207  1  0.47736700  0.41301800  0.80715500  1
  H  208  1  0.42538800  0.40782800  0.86634000  1
  H  211  1  0.43802000  0.38689300  0.90305700  1
  H  212  1  0.41664600  0.32563500  0.81235900  1
  H  223  1  0.64773600  0.68344200  0.84498700  1
  H  224  1  0.66777200  0.69991800  0.91161800  1
  H  231  1  0.54586000  0.60339400  0.80671500  1
  H  232  1  0.59600200  0.60863400  0.86703300  1
  H  235  1  0.58481100  0.62911400  0.90392900  1
  H  236  1  0.60452200  0.69167200  0.81350600  1
  H  247  1  0.37767100  0.68603900  0.63345800  1
  H  248  1  0.35539000  0.70133500  0.56688600  1
  H  255  1  0.48304000  0.60610500  0.67016000  1
  H  256  1  0.42921700  0.61187900  0.61114800  1
  H  259  1  0.44173800  0.63231800  0.57433900  1
  H  260  1  0.42121100  0.69431600  0.66418600  1
  H  271  1  0.64823700  0.33356100  0.63381300  1
  H  272  1  0.66877900  0.31867700  0.56716600  1
  H  279  1  0.54310800  0.41205700  0.67153300  1
  H  280  1  0.59424200  0.40781400  0.61199600  1
  H  283  1  0.58280600  0.38790200  0.57494900  1
  H  284  1  0.60661900  0.32538200  0.66531000  1
  H  295  1  0.64829700  0.68263800  0.13432000  1
  H  296  1  0.66499900  0.70231500  0.06785300  1
  H  303  1  0.54483200  0.60578300  0.17281700  1
  H  304  1  0.59142200  0.61061200  0.11157700  1
  H  307  1  0.57959200  0.63333500  0.07482100  1
  H  308  1  0.60633200  0.69216200  0.16609400  1
  H  319  1  0.37280000  0.33610600  0.13302900  1
  H  320  1  0.35615100  0.31483300  0.06663900  1
  H  327  1  0.47732400  0.41469100  0.17016700  1
  H  328  1  0.42743300  0.40823700  0.10974900  1
  H  331  1  0.44100500  0.38449900  0.07356300  1
  H  332  1  0.41652000  0.32724800  0.16472600  1
  H  343  1  0.64361500  0.33582500  0.34447500  1
  H  344  1  0.66318300  0.31688500  0.41094700  1
  H  351  1  0.53794600  0.41275400  0.30620400  1
  H  352  1  0.58707400  0.40774200  0.36707100  1
  H  355  1  0.57574300  0.38545400  0.40397100  1
  H  356  1  0.60177500  0.32616900  0.31341200  1
  H  367  1  0.37216000  0.68481200  0.34430800  1
  H  368  1  0.35499800  0.70471400  0.41079300  1
  H  375  1  0.47998900  0.60783700  0.30780600  1
  H  376  1  0.42910400  0.61331800  0.36746800  1
  H  379  1  0.44283300  0.63666000  0.40377400  1
  H  380  1  0.41423700  0.69353900  0.31259200  1
  H  390  1  0.85081400  0.88397000  0.00267800  1
  H  392  1  0.92912600  0.81261000  0.97490700  1
  H  393  1  0.92402000  0.81961600  0.01364200  1
  H  395  1  0.83106200  0.89704300  0.96781200  1
  H  396  1  0.83235000  0.86780500  0.94911500  1
  H  397  1  0.86239100  0.89586100  0.94757600  1
  H  399  1  0.85715700  0.86157000  0.03866500  1
  H  401  1  0.88707000  0.81469800  0.94055500  1
  H  407  1  0.16553500  0.13543700  0.00468100  1
  H  409  1  0.08973900  0.20860600  0.97591100  1
  H  410  1  0.09397600  0.20125500  0.01469500  1
  H  412  1  0.18557200  0.12221800  0.97010900  1
  H  413  1  0.18537800  0.15155500  0.95149000  1
  H  414  1  0.15460900  0.12413100  0.94937300  1
  H  416  1  0.15928600  0.15769500  0.04059800  1
  H  418  1  0.13174000  0.20588900  0.94212800  1
  H  424  1  0.85205700  0.13526500  0.47440000  1
  H  426  1  0.92946700  0.20631800  0.50262500  1
  H  427  1  0.92409800  0.19940400  0.46386400  1
  H  429  1  0.83293400  0.12215700  0.50918900  1
  H  430  1  0.83385000  0.15142100  0.52787200  1
  H  431  1  0.86442000  0.12331100  0.52959600  1
  H  433  1  0.85790800  0.15731300  0.43841400  1
  H  435  1  0.88751300  0.20423500  0.53675700  1
  H  441  1  0.16387400  0.88341800  0.47429100  1
  H  443  1  0.08943100  0.81059200  0.50270800  1
  H  444  1  0.09278700  0.81823700  0.46396500  1
  H  446  1  0.18439500  0.89627000  0.50896400  1
  H  447  1  0.18498400  0.86673000  0.52740400  1
  H  448  1  0.15390400  0.89431200  0.52969700  1
  H  450  1  0.15700200  0.86159700  0.43823100  1
  H  452  1  0.13256100  0.81280800  0.53647200  1
  H  458  1  0.35748400  0.38178800  0.00283700  1
  H  460  1  0.43573000  0.31006500  0.97543300  1
  H  461  1  0.43119300  0.31787600  0.01407100  1
  H  463  1  0.33719700  0.39412100  0.96795000  1
  H  464  1  0.33821300  0.36444500  0.94964900  1
  H  465  1  0.36816500  0.39249700  0.94749100  1
  H  467  1  0.36482000  0.36099600  0.03905700  1
  H  469  1  0.39276900  0.31110100  0.94156600  1
  H  475  1  0.66531000  0.63621900  0.00454600  1
  H  477  1  0.58512100  0.70599100  0.97598400  1
  H  478  1  0.58943400  0.69830000  0.01469500  1
  H  480  1  0.68648900  0.62446700  0.96994500  1
  H  481  1  0.68466500  0.65413800  0.95164800  1
  H  482  1  0.65575200  0.62530500  0.94902600  1
  H  484  1  0.65681300  0.65671300  0.04062800  1
  H  486  1  0.62857000  0.70584500  0.94264800  1
  H  492  1  0.35870400  0.63785000  0.47420600  1
  H  494  1  0.43685700  0.70861500  0.50206800  1
  H  495  1  0.43197300  0.70094700  0.46341500  1
  H  497  1  0.33895300  0.62560000  0.50903500  1
  H  498  1  0.33993100  0.65526100  0.52735100  1
  H  499  1  0.37014900  0.62693200  0.52962900  1
  H  501  1  0.36601300  0.65796800  0.43795200  1
  H  503  1  0.39386800  0.70800100  0.53563200  1
  H  509  1  0.66371300  0.38230100  0.47445500  1
  H  511  1  0.58456900  0.31311500  0.50264500  1
  H  512  1  0.58798600  0.32113000  0.46399600  1
  H  514  1  0.68540300  0.39360900  0.50917500  1
  H  515  1  0.68427300  0.36372700  0.52727000  1
  H  516  1  0.65510200  0.39274600  0.53008600  1
  H  518  1  0.65438500  0.36244200  0.43819800  1
  H  520  1  0.62944500  0.31252500  0.53588100  1
  H  526  1  0.02779200  0.97771800  0.87789900  1
  H  528  1  0.97751500  0.04479500  0.82560000  1
  H  529  1  0.95516400  0.99765000  0.82953000  1
  H  531  1  0.06706200  0.01122600  0.89073300  1
  H  532  1  0.05394200  0.04768500  0.88850700  1
  H  533  1  0.08176800  0.03253300  0.86879300  1
  H  535  1  0.98028400  0.94447900  0.87041900  1
  H  537  1  0.00859400  0.08372000  0.84620600  1
  H  543  1  0.02941100  0.03885100  0.60028200  1
  H  545  1  0.97582800  0.97367200  0.65155300  1
  H  546  1  0.95523000  0.02181400  0.64736200  1
  H  548  1  0.06771500  0.00377800  0.58802300  1
  H  549  1  0.05347500  0.96784700  0.59001900  1
  H  550  1  0.08135700  0.98194400  0.61021600  1
  H  552  1  0.98086400  0.07307200  0.60653500  1
  H  554  1  0.00632600  0.93351400  0.63085300  1
  H  560  1  0.98896300  0.04272600  0.09991400  1
  H  562  1  0.04127000  0.97613700  0.15169300  1
  H  563  1  0.06289600  0.02346600  0.14755200  1
  H  565  1  0.94996200  0.00885600  0.08738800  1
  H  566  1  0.96347900  0.97249800  0.08953300  1
  H  567  1  0.93590700  0.98748700  0.10947900  1
  H  569  1  0.03569200  0.07673600  0.10709500  1
  H  571  1  0.01032500  0.93689100  0.13209200  1
  H  577  1  0.98779100  0.97910800  0.37823100  1
  H  579  1  0.04278100  0.04333000  0.32694800  1
  H  580  1  0.06278700  0.99509700  0.33153000  1
  H  582  1  0.94973000  0.01456200  0.39009300  1
  H  583  1  0.96423300  0.05039000  0.38794000  1
  H  584  1  0.93652300  0.03618400  0.36767800  1
  H  586  1  0.03641000  0.94444600  0.37251000  1
  H  588  1  0.01261800  0.08395600  0.34656700  1
  H  594  1  0.53857300  0.47330900  0.87081400  1
  H  596  1  0.48173100  0.54369400  0.82422700  1
  H  597  1  0.46421800  0.49466200  0.82397300  1
  H  599  1  0.57386600  0.50776600  0.88701400  1
  H  600  1  0.55792400  0.54349800  0.88722200  1
  H  601  1  0.58693100  0.53245900  0.86672300  1
  H  603  1  0.51068200  0.43603300  0.84624400  1
  H  605  1  0.51143800  0.58211500  0.84667400  1
  H  611  1  0.54103700  0.54285000  0.60751300  1
  H  613  1  0.48078500  0.47478300  0.65297800  1
  H  614  1  0.46551700  0.52465700  0.65338900  1
  H  616  1  0.57490000  0.50688300  0.59152200  1
  H  617  1  0.55752100  0.47193200  0.59094800  1
  H  618  1  0.58675200  0.48146600  0.61187200  1
  H  620  1  0.51456800  0.58118800  0.63174700  1
  H  622  1  0.50955300  0.43514100  0.62996700  1
  H  628  1  0.49158900  0.54109900  0.10047800  1
  H  630  1  0.54302300  0.47490600  0.15286300  1
  H  631  1  0.56458500  0.52224100  0.14880300  1
  H  633  1  0.45296900  0.50712600  0.08768200  1
  H  634  1  0.46653400  0.47080400  0.09001800  1
  H  635  1  0.43850600  0.48581000  0.10968200  1
  H  637  1  0.53720600  0.57558000  0.10815700  1
  H  639  1  0.51265900  0.43551300  0.13366800  1
  H  645  1  0.49039300  0.48065300  0.37774500  1
  H  647  1  0.54444000  0.54461900  0.32590200  1
  H  648  1  0.56446300  0.49641200  0.33038600  1
  H  650  1  0.45266000  0.51613200  0.38989900  1
  H  651  1  0.46714400  0.55194500  0.38758200  1
  H  652  1  0.43901100  0.53771800  0.36758000  1
  H  654  1  0.53786300  0.44555700  0.37155300  1
  H  656  1  0.51492100  0.58529000  0.34493000  1
  H  662  1  0.80792700  0.73283300  0.88971100  1
  H  664  1  0.72040000  0.77329700  0.84332700  1
  H  665  1  0.76953200  0.80073300  0.85049300  1
  H  667  1  0.78204300  0.68848600  0.89393300  1
  H  668  1  0.75284800  0.67916600  0.87335200  1
  H  669  1  0.73929900  0.69495100  0.89856900  1
  H  671  1  0.83689400  0.77668700  0.88838000  1
  H  673  1  0.69616000  0.72013400  0.84258800  1
  H  679  1  0.21321200  0.28693900  0.89074500  1
  H  681  1  0.29702300  0.24520300  0.84284100  1
  H  682  1  0.24794100  0.21842400  0.85102600  1
  H  684  1  0.24005600  0.33100800  0.89427200  1
  H  685  1  0.26809500  0.33984200  0.87313400  1
  H  686  1  0.28296100  0.32402900  0.89814700  1
  H  688  1  0.18333200  0.24339800  0.89002000  1
  H  690  1  0.32225800  0.29806400  0.84154100  1
  H  696  1  0.80948900  0.28673200  0.58920100  1
  H  698  1  0.72383100  0.24503000  0.63503000  1
  H  699  1  0.77334200  0.21778400  0.62739300  1
  H  701  1  0.78261200  0.33124400  0.58577600  1
  H  702  1  0.75354600  0.33995700  0.60644100  1
  H  703  1  0.73993700  0.32481300  0.58096600  1
  H  705  1  0.83939800  0.24280200  0.58988400  1
  H  707  1  0.69843200  0.29839400  0.63635700  1
  H  713  1  0.21464200  0.73089800  0.58838300  1
  H  715  1  0.29995600  0.77339200  0.63485900  1
  H  716  1  0.24988400  0.80001200  0.62710400  1
  H  718  1  0.24236900  0.68680500  0.58482200  1
  H  719  1  0.27168200  0.67829700  0.60565500  1
  H  720  1  0.28490100  0.69384100  0.58035900  1
  H  722  1  0.18396600  0.77450400  0.58911200  1
  H  724  1  0.32617200  0.72012800  0.63610600  1
  H  730  1  0.21276900  0.28672700  0.08800000  1
  H  732  1  0.29886700  0.24600800  0.13536700  1
  H  733  1  0.24908300  0.21930500  0.12849200  1
  H  735  1  0.23984400  0.33034900  0.08302400  1
  H  736  1  0.26884800  0.33979800  0.10369100  1
  H  737  1  0.28254100  0.32308700  0.07885500  1
  H  739  1  0.18141800  0.24452200  0.09106100  1
  H  741  1  0.32414700  0.29881100  0.13556700  1
  H  747  1  0.80715700  0.73223500  0.08816700  1
  H  749  1  0.72215000  0.77269600  0.13576300  1
  H  750  1  0.77097300  0.80006200  0.12801200  1
  H  752  1  0.78095500  0.68795500  0.08421700  1
  H  753  1  0.75293900  0.67861500  0.10524300  1
  H  754  1  0.73796300  0.69442000  0.08025700  1
  H  756  1  0.83787100  0.77501000  0.09052900  1
  H  758  1  0.69784300  0.71945200  0.13675700  1
  H  764  1  0.21117800  0.73176400  0.38939500  1
  H  766  1  0.29542900  0.77384100  0.34267500  1
  H  767  1  0.24537300  0.80043700  0.35015100  1
  H  769  1  0.23914200  0.68786100  0.39341300  1
  H  770  1  0.26790300  0.67908700  0.37257500  1
  H  771  1  0.28178700  0.69495600  0.39772600  1
  H  773  1  0.17932700  0.77442800  0.38742500  1
  H  775  1  0.32169700  0.72070900  0.34169000  1
  H  781  1  0.80570300  0.28775900  0.38862500  1
  H  783  1  0.71909200  0.24685700  0.34237800  1
  H  784  1  0.76894000  0.21962000  0.34952000  1
  H  786  1  0.77865900  0.33203200  0.39279900  1
  H  787  1  0.74928900  0.34118500  0.37215600  1
  H  788  1  0.73605400  0.32547600  0.39739100  1
  H  790  1  0.83753600  0.24521400  0.38561900  1
  H  792  1  0.69366600  0.30024700  0.34164700  1
  H  798  1  0.04315000  0.88792800  0.76640800  1
  H  800  1  0.98190800  0.82901700  0.71434800  1
  H  801  1  0.96712400  0.82834200  0.75253400  1
  H  803  1  0.07615500  0.90918300  0.73986900  1
  H  804  1  0.05594200  0.91187200  0.71406400  1
  H  805  1  0.08713300  0.88482600  0.71874200  1
  H  807  1  0.01346600  0.86591700  0.79608300  1
  H  809  1  0.00645900  0.87092700  0.68683100  1
  H  815  1  0.97736200  0.12571600  0.76481400  1
  H  817  1  0.02221500  0.20374300  0.72116200  1
  H  818  1  0.04279700  0.19569900  0.75783300  1
  H  820  1  0.93803000  0.11250700  0.73872700  1
  H  821  1  0.95639200  0.11337400  0.71248500  1
  H  822  1  0.92589900  0.13981700  0.71999400  1
  H  824  1  0.00489500  0.14554700  0.79653500  1
  H  826  1  0.97038400  0.19631500  0.69510700  1
  H  832  1  0.97462400  0.13142400  0.21122400  1
  H  834  1  0.03599000  0.18908500  0.26402700  1
  H  835  1  0.05084500  0.19051600  0.22587500  1
  H  837  1  0.94144500  0.10974400  0.23750700  1
  H  838  1  0.96153500  0.10653700  0.26333100  1
  H  839  1  0.93052900  0.13378700  0.25886500  1
  H  841  1  0.00449700  0.15389400  0.18183400  1
  H  843  1  0.01141200  0.14715600  0.29114200  1
  H  849  1  0.03962900  0.89474800  0.21394400  1
  H  851  1  0.99603700  0.81494800  0.25629600  1
  H  852  1  0.97534800  0.82377600  0.21975400  1
  H  854  1  0.07875800  0.90767600  0.24023200  1
  H  855  1  0.06048500  0.90583800  0.26646600  1
  H  856  1  0.09134800  0.87996600  0.25848800  1
  H  858  1  0.01302200  0.87476900  0.18179600  1
  H  860  1  0.04762700  0.82212500  0.28245500  1
  H  866  1  0.54677100  0.38810100  0.76731000  1
  H  868  1  0.48402900  0.33012000  0.71541100  1
  H  869  1  0.46948100  0.32965600  0.75360900  1
  H  871  1  0.58018500  0.40872800  0.74069200  1
  H  872  1  0.55976300  0.41185700  0.71498200  1
  H  873  1  0.59038700  0.38427600  0.71945800  1
  H  875  1  0.51590500  0.36798700  0.79699200  1
  H  877  1  0.50893200  0.37169000  0.68790300  1
  H  883  1  0.48060100  0.62484000  0.76366700  1
  H  885  1  0.52496700  0.70346300  0.72040800  1
  H  886  1  0.54524800  0.69545200  0.75714700  1
  H  888  1  0.44172200  0.61135300  0.73744500  1
  H  889  1  0.46027300  0.61246700  0.71127800  1
  H  890  1  0.42938000  0.63860100  0.71872900  1
  H  892  1  0.50719300  0.64511600  0.79558100  1
  H  894  1  0.47380600  0.69604600  0.69423100  1
  H  900  1  0.47788900  0.63046100  0.21169400  1
  H  902  1  0.53782300  0.69070100  0.26358300  1
  H  903  1  0.55262500  0.69136200  0.22539100  1
  H  905  1  0.44520500  0.60892000  0.23832700  1
  H  906  1  0.46533800  0.60674700  0.26418900  1
  H  907  1  0.43371600  0.63334500  0.25929500  1
  H  909  1  0.50691600  0.65342400  0.18194900  1
  H  911  1  0.51393400  0.64880000  0.29132300  1
  H  917  1  0.54318500  0.39287000  0.21297200  1
  H  919  1  0.49842000  0.31512200  0.25699200  1
  H  920  1  0.47771800  0.32295400  0.22032400  1
  H  922  1  0.58264800  0.40620100  0.23894500  1
  H  923  1  0.56430800  0.40557100  0.26519900  1
  H  924  1  0.59478000  0.37904800  0.25780900  1
  H  926  1  0.51568700  0.37239500  0.18132100  1
  H  928  1  0.55008300  0.32274700  0.28301900  1
  H  935  1  0.59709200  0.83689000  0.84281100  1
  H  936  1  0.57296800  0.82290900  0.90890300  1
  H  943  1  0.70171500  0.91310900  0.80539200  1
  H  944  1  0.65254400  0.91011600  0.86571800  1
  H  947  1  0.66027800  0.88987500  0.90316600  1
  H  948  1  0.63940000  0.82733400  0.81192500  1
  H  959  1  0.87223500  0.18234000  0.84433800  1
  H  960  1  0.89568100  0.19836800  0.91053200  1
  H  967  1  0.76840100  0.10372300  0.80751700  1
  H  968  1  0.81971300  0.10846200  0.86744300  1
  H  971  1  0.81026400  0.12945000  0.90453400  1
  H  972  1  0.82821200  0.19140100  0.81361500  1
  H  983  1  0.60173600  0.18263300  0.63460100  1
  H  984  1  0.57473000  0.19590500  0.56861700  1
  H  991  1  0.70861900  0.10651100  0.67178400  1
  H  992  1  0.65682200  0.10955500  0.61188100  1
  H  995  1  0.66403800  0.12931600  0.57422100  1
  H  996  1  0.64404700  0.19248400  0.66473500  1
  H  1007  1  0.87278200  0.83490800  0.63441700  1
  H  1008  1  0.89672800  0.82061100  0.56823900  1
  H  1015  1  0.76546200  0.91170900  0.67069800  1
  H  1016  1  0.81789000  0.90830900  0.61161200  1
  H  1019  1  0.80832400  0.88795400  0.57431400  1
  H  1020  1  0.83037900  0.82583100  0.66512600  1
  H  1031  1  0.87273000  0.18227000  0.13524200  1
  H  1032  1  0.89369200  0.20046100  0.06911700  1
  H  1039  1  0.76670700  0.10706600  0.17200200  1
  H  1040  1  0.81491300  0.11156200  0.11133500  1
  H  1043  1  0.80453600  0.13484400  0.07449200  1
  H  1044  1  0.83015700  0.19236800  0.16646300  1
  H  1055  1  0.59537600  0.83914700  0.13374100  1
  H  1056  1  0.57472700  0.81901300  0.06768300  1
  H  1063  1  0.70059000  0.91644600  0.17003400  1
  H  1064  1  0.65008700  0.91084900  0.10979200  1
  H  1067  1  0.66149300  0.88729200  0.07308800  1
  H  1068  1  0.63934800  0.82942500  0.16461900  1
  H  1079  1  0.86799600  0.83625700  0.34354300  1
  H  1080  1  0.89182900  0.81893600  0.40964800  1
  H  1087  1  0.75936500  0.91121400  0.30705800  1
  H  1088  1  0.81045700  0.90690200  0.36723700  1
  H  1091  1  0.80069400  0.88411700  0.40428400  1
  H  1092  1  0.82550000  0.82597300  0.31297000  1
  H  1103  1  0.59465900  0.18143500  0.34351500  1
  H  1104  1  0.57336900  0.20003500  0.40961000  1
  H  1111  1  0.70326700  0.10618400  0.30767700  1
  H  1112  1  0.65194800  0.11046300  0.36724000  1
  H  1115  1  0.66331300  0.13353100  0.40416000  1
  H  1116  1  0.63704000  0.19136300  0.31269000  1
  H  1127  1  0.09840600  0.33371000  0.84379500  1
  H  1128  1  0.07865500  0.31769600  0.91037800  1
  H  1135  1  0.20260900  0.41301800  0.80715500  1
  H  1136  1  0.15063000  0.40782800  0.86634000  1
  H  1139  1  0.16326200  0.38689300  0.90305700  1
  H  1140  1  0.14188800  0.32563500  0.81235900  1
  H  1151  1  0.37297800  0.68344200  0.84498700  1
  H  1152  1  0.39301400  0.69991800  0.91161800  1
  H  1159  1  0.27110200  0.60339400  0.80671500  1
  H  1160  1  0.32124400  0.60863400  0.86703300  1
  H  1163  1  0.31005300  0.62911400  0.90392900  1
  H  1164  1  0.32976400  0.69167200  0.81350600  1
  H  1175  1  0.10291300  0.68603900  0.63345800  1
  H  1176  1  0.08063200  0.70133500  0.56688600  1
  H  1183  1  0.20828200  0.60610500  0.67016000  1
  H  1184  1  0.15445900  0.61187900  0.61114800  1
  H  1187  1  0.16698000  0.63231800  0.57433900  1
  H  1188  1  0.14645300  0.69431600  0.66418600  1
  H  1199  1  0.37347900  0.33356100  0.63381300  1
  H  1200  1  0.39402100  0.31867700  0.56716600  1
  H  1207  1  0.26835000  0.41205700  0.67153300  1
  H  1208  1  0.31948400  0.40781400  0.61199600  1
  H  1211  1  0.30804800  0.38790200  0.57494900  1
  H  1212  1  0.33186100  0.32538200  0.66531000  1
  H  1223  1  0.37353900  0.68263800  0.13432000  1
  H  1224  1  0.39024100  0.70231500  0.06785300  1
  H  1231  1  0.27007400  0.60578300  0.17281700  1
  H  1232  1  0.31666400  0.61061200  0.11157700  1
  H  1235  1  0.30483400  0.63333500  0.07482100  1
  H  1236  1  0.33157400  0.69216200  0.16609400  1
  H  1247  1  0.09804200  0.33610600  0.13302900  1
  H  1248  1  0.08139300  0.31483300  0.06663900  1
  H  1255  1  0.20256600  0.41469100  0.17016700  1
  H  1256  1  0.15267500  0.40823700  0.10974900  1
  H  1259  1  0.16624700  0.38449900  0.07356300  1
  H  1260  1  0.14176200  0.32724800  0.16472600  1
  H  1271  1  0.36885700  0.33582500  0.34447500  1
  H  1272  1  0.38842500  0.31688500  0.41094700  1
  H  1279  1  0.26318800  0.41275400  0.30620400  1
  H  1280  1  0.31231600  0.40774200  0.36707100  1
  H  1283  1  0.30098500  0.38545400  0.40397100  1
  H  1284  1  0.32701700  0.32616900  0.31341200  1
  H  1295  1  0.09740200  0.68481200  0.34430800  1
  H  1296  1  0.08024000  0.70471400  0.41079300  1
  H  1303  1  0.20523100  0.60783700  0.30780600  1
  H  1304  1  0.15434600  0.61331800  0.36746800  1
  H  1307  1  0.16807500  0.63666000  0.40377400  1
  H  1308  1  0.13947900  0.69353900  0.31259200  1
  H  1318  1  0.57605600  0.88397000  0.00267800  1
  H  1320  1  0.65436800  0.81261000  0.97490700  1
  H  1321  1  0.64926200  0.81961600  0.01364200  1
  H  1323  1  0.55630400  0.89704300  0.96781200  1
  H  1324  1  0.55759200  0.86780500  0.94911500  1
  H  1325  1  0.58763300  0.89586100  0.94757600  1
  H  1327  1  0.58239900  0.86157000  0.03866500  1
  H  1329  1  0.61231200  0.81469800  0.94055500  1
  H  1335  1  0.89077700  0.13543700  0.00468100  1
  H  1337  1  0.81498100  0.20860600  0.97591100  1
  H  1338  1  0.81921800  0.20125500  0.01469500  1
  H  1340  1  0.91081450  0.12221800  0.97010900  1
  H  1341  1  0.91062050  0.15155500  0.95149000  1
  H  1342  1  0.87985100  0.12413100  0.94937300  1
  H  1344  1  0.88452800  0.15769500  0.04059800  1
  H  1346  1  0.85698200  0.20588900  0.94212800  1
  H  1352  1  0.57729900  0.13526500  0.47440000  1
  H  1354  1  0.65470900  0.20631800  0.50262500  1
  H  1355  1  0.64934000  0.19940400  0.46386400  1
  H  1357  1  0.55817600  0.12215700  0.50918900  1
  H  1358  1  0.55909200  0.15142100  0.52787200  1
  H  1359  1  0.58966200  0.12331100  0.52959600  1
  H  1361  1  0.58315000  0.15731300  0.43841400  1
  H  1363  1  0.61275500  0.20423500  0.53675700  1
  H  1369  1  0.88911600  0.88341800  0.47429100  1
  H  1371  1  0.81467300  0.81059200  0.50270800  1
  H  1372  1  0.81802900  0.81823700  0.46396500  1
  H  1374  1  0.90963750  0.89627000  0.50896400  1
  H  1375  1  0.91022650  0.86673000  0.52740400  1
  H  1376  1  0.87914600  0.89431200  0.52969700  1
  H  1378  1  0.88224400  0.86159700  0.43823100  1
  H  1380  1  0.85780300  0.81280800  0.53647200  1
  H  1386  1  0.08272600  0.38178800  0.00283700  1
  H  1388  1  0.16097200  0.31006500  0.97543300  1
  H  1389  1  0.15643500  0.31787600  0.01407100  1
  H  1391  1  0.06243900  0.39412100  0.96795000  1
  H  1392  1  0.06345500  0.36444500  0.94964900  1
  H  1393  1  0.09340700  0.39249700  0.94749100  1
  H  1395  1  0.09006200  0.36099600  0.03905700  1
  H  1397  1  0.11801100  0.31110100  0.94156600  1
  H  1403  1  0.39055200  0.63621900  0.00454600  1
  H  1405  1  0.31036300  0.70599100  0.97598400  1
  H  1406  1  0.31467600  0.69830000  0.01469500  1
  H  1408  1  0.41173100  0.62446700  0.96994500  1
  H  1409  1  0.40990700  0.65413800  0.95164800  1
  H  1410  1  0.38099400  0.62530500  0.94902600  1
  H  1412  1  0.38205500  0.65671300  0.04062800  1
  H  1414  1  0.35381200  0.70584500  0.94264800  1
  H  1420  1  0.08394600  0.63785000  0.47420600  1
  H  1422  1  0.16209900  0.70861500  0.50206800  1
  H  1423  1  0.15721500  0.70094700  0.46341500  1
  H  1425  1  0.06419500  0.62560000  0.50903500  1
  H  1426  1  0.06517300  0.65526100  0.52735100  1
  H  1427  1  0.09539100  0.62693200  0.52962900  1
  H  1429  1  0.09125500  0.65796800  0.43795200  1
  H  1431  1  0.11911000  0.70800100  0.53563200  1
  H  1437  1  0.38895500  0.38230100  0.47445500  1
  H  1439  1  0.30981100  0.31311500  0.50264500  1
  H  1440  1  0.31322800  0.32113000  0.46399600  1
  H  1442  1  0.41064500  0.39360900  0.50917500  1
  H  1443  1  0.40951500  0.36372700  0.52727000  1
  H  1444  1  0.38034400  0.39274600  0.53008600  1
  H  1446  1  0.37962700  0.36244200  0.43819800  1
  H  1448  1  0.35468700  0.31252500  0.53588100  1
  H  1454  1  0.75303400  0.97771800  0.87789900  1
  H  1456  1  0.70275700  0.04479500  0.82560000  1
  H  1457  1  0.68040600  0.99765000  0.82953000  1
  H  1459  1  0.79230400  0.01122600  0.89073300  1
  H  1460  1  0.77918400  0.04768500  0.88850700  1
  H  1461  1  0.80701000  0.03253300  0.86879300  1
  H  1463  1  0.70552600  0.94447900  0.87041900  1
  H  1465  1  0.73383600  0.08372000  0.84620600  1
  H  1471  1  0.75465300  0.03885100  0.60028200  1
  H  1473  1  0.70107000  0.97367200  0.65155300  1
  H  1474  1  0.68047200  0.02181400  0.64736200  1
  H  1476  1  0.79295700  0.00377800  0.58802300  1
  H  1477  1  0.77871700  0.96784700  0.59001900  1
  H  1478  1  0.80659900  0.98194400  0.61021600  1
  H  1480  1  0.70610600  0.07307200  0.60653500  1
  H  1482  1  0.73156800  0.93351400  0.63085300  1
  H  1488  1  0.71420500  0.04272600  0.09991400  1
  H  1490  1  0.76651200  0.97613700  0.15169300  1
  H  1491  1  0.78813800  0.02346600  0.14755200  1
  H  1493  1  0.67520400  0.00885600  0.08738800  1
  H  1494  1  0.68872100  0.97249800  0.08953300  1
  H  1495  1  0.66114900  0.98748700  0.10947900  1
  H  1497  1  0.76093400  0.07673600  0.10709500  1
  H  1499  1  0.73556700  0.93689100  0.13209200  1
  H  1505  1  0.71303300  0.97910800  0.37823100  1
  H  1507  1  0.76802300  0.04333000  0.32694800  1
  H  1508  1  0.78802900  0.99509700  0.33153000  1
  H  1510  1  0.67497200  0.01456200  0.39009300  1
  H  1511  1  0.68947500  0.05039000  0.38794000  1
  H  1512  1  0.66176500  0.03618400  0.36767800  1
  H  1514  1  0.76165200  0.94444600  0.37251000  1
  H  1516  1  0.73786000  0.08395600  0.34656700  1
  H  1522  1  0.26381500  0.47330900  0.87081400  1
  H  1524  1  0.20697300  0.54369400  0.82422700  1
  H  1525  1  0.18946000  0.49466200  0.82397300  1
  H  1527  1  0.29910800  0.50776600  0.88701400  1
  H  1528  1  0.28316600  0.54349800  0.88722200  1
  H  1529  1  0.31217300  0.53245900  0.86672300  1
  H  1531  1  0.23592400  0.43603300  0.84624400  1
  H  1533  1  0.23668000  0.58211500  0.84667400  1
  H  1539  1  0.26627900  0.54285000  0.60751300  1
  H  1541  1  0.20602700  0.47478300  0.65297800  1
  H  1542  1  0.19075900  0.52465700  0.65338900  1
  H  1544  1  0.30014200  0.50688300  0.59152200  1
  H  1545  1  0.28276300  0.47193200  0.59094800  1
  H  1546  1  0.31199400  0.48146600  0.61187200  1
  H  1548  1  0.23981000  0.58118800  0.63174700  1
  H  1550  1  0.23479500  0.43514100  0.62996700  1
  H  1556  1  0.21683100  0.54109900  0.10047800  1
  H  1558  1  0.26826500  0.47490600  0.15286300  1
  H  1559  1  0.28982700  0.52224100  0.14880300  1
  H  1561  1  0.17821100  0.50712600  0.08768200  1
  H  1562  1  0.19177600  0.47080400  0.09001800  1
  H  1563  1  0.16374800  0.48581000  0.10968200  1
  H  1565  1  0.26244800  0.57558000  0.10815700  1
  H  1567  1  0.23790100  0.43551300  0.13366800  1
  H  1573  1  0.21563500  0.48065300  0.37774500  1
  H  1575  1  0.26968200  0.54461900  0.32590200  1
  H  1576  1  0.28970500  0.49641200  0.33038600  1
  H  1578  1  0.17790200  0.51613200  0.38989900  1
  H  1579  1  0.19238600  0.55194500  0.38758200  1
  H  1580  1  0.16425300  0.53771800  0.36758000  1
  H  1582  1  0.26310500  0.44555700  0.37155300  1
  H  1584  1  0.24016300  0.58529000  0.34493000  1
  H  1590  1  0.53316900  0.73283300  0.88971100  1
  H  1592  1  0.44564200  0.77329700  0.84332700  1
  H  1593  1  0.49477400  0.80073300  0.85049300  1
  H  1595  1  0.50728500  0.68848600  0.89393300  1
  H  1596  1  0.47809000  0.67916600  0.87335200  1
  H  1597  1  0.46454100  0.69495100  0.89856900  1
  H  1599  1  0.56213600  0.77668700  0.88838000  1
  H  1601  1  0.42140200  0.72013400  0.84258800  1
  H  1607  1  0.93845450  0.28693900  0.89074500  1
  H  1609  1  0.02226500  0.24520300  0.84284100  1
  H  1610  1  0.97318350  0.21842400  0.85102600  1
  H  1612  1  0.96529850  0.33100800  0.89427200  1
  H  1613  1  0.99333747  0.33984200  0.87313400  1
  H  1614  1  0.00820300  0.32402900  0.89814700  1
  H  1616  1  0.90857450  0.24339800  0.89002000  1
  H  1618  1  0.04750000  0.29806400  0.84154100  1
  H  1624  1  0.53473100  0.28673200  0.58920100  1
  H  1626  1  0.44907300  0.24503000  0.63503000  1
  H  1627  1  0.49858400  0.21778400  0.62739300  1
  H  1629  1  0.50785400  0.33124400  0.58577600  1
  H  1630  1  0.47878800  0.33995700  0.60644100  1
  H  1631  1  0.46517900  0.32481300  0.58096600  1
  H  1633  1  0.56464000  0.24280200  0.58988400  1
  H  1635  1  0.42367400  0.29839400  0.63635700  1
  H  1641  1  0.93988450  0.73089800  0.58838300  1
  H  1643  1  0.02519800  0.77339200  0.63485900  1
  H  1644  1  0.97512650  0.80001200  0.62710400  1
  H  1646  1  0.96761150  0.68680500  0.58482200  1
  H  1647  1  0.99692447  0.67829700  0.60565500  1
  H  1648  1  0.01014300  0.69384100  0.58035900  1
  H  1650  1  0.90920850  0.77450400  0.58911200  1
  H  1652  1  0.05141400  0.72012800  0.63610600  1
  H  1658  1  0.93801150  0.28672700  0.08800000  1
  H  1660  1  0.02410900  0.24600800  0.13536700  1
  H  1661  1  0.97432550  0.21930500  0.12849200  1
  H  1663  1  0.96508650  0.33034900  0.08302400  1
  H  1664  1  0.99409047  0.33979800  0.10369100  1
  H  1665  1  0.00778300  0.32308700  0.07885500  1
  H  1667  1  0.90666050  0.24452200  0.09106100  1
  H  1669  1  0.04938900  0.29881100  0.13556700  1
  H  1675  1  0.53239900  0.73223500  0.08816700  1
  H  1677  1  0.44739200  0.77269600  0.13576300  1
  H  1678  1  0.49621500  0.80006200  0.12801200  1
  H  1680  1  0.50619700  0.68795500  0.08421700  1
  H  1681  1  0.47818100  0.67861500  0.10524300  1
  H  1682  1  0.46320500  0.69442000  0.08025700  1
  H  1684  1  0.56311300  0.77501000  0.09052900  1
  H  1686  1  0.42308500  0.71945200  0.13675700  1
  H  1692  1  0.93642050  0.73176400  0.38939500  1
  H  1694  1  0.02067100  0.77384100  0.34267500  1
  H  1695  1  0.97061550  0.80043700  0.35015100  1
  H  1697  1  0.96438450  0.68786100  0.39341300  1
  H  1698  1  0.99314547  0.67908700  0.37257500  1
  H  1699  1  0.00702900  0.69495600  0.39772600  1
  H  1701  1  0.90456950  0.77442800  0.38742500  1
  H  1703  1  0.04693900  0.72070900  0.34169000  1
  H  1709  1  0.53094500  0.28775900  0.38862500  1
  H  1711  1  0.44433400  0.24685700  0.34237800  1
  H  1712  1  0.49418200  0.21962000  0.34952000  1
  H  1714  1  0.50390100  0.33203200  0.39279900  1
  H  1715  1  0.47453100  0.34118500  0.37215600  1
  H  1716  1  0.46129600  0.32547600  0.39739100  1
  H  1718  1  0.56277800  0.24521400  0.38561900  1
  H  1720  1  0.41890800  0.30024700  0.34164700  1
  H  1726  1  0.76839200  0.88792800  0.76640800  1
  H  1728  1  0.70715000  0.82901700  0.71434800  1
  H  1729  1  0.69236600  0.82834200  0.75253400  1
  H  1731  1  0.80139700  0.90918300  0.73986900  1
  H  1732  1  0.78118400  0.91187200  0.71406400  1
  H  1733  1  0.81237500  0.88482600  0.71874200  1
  H  1735  1  0.73870800  0.86591700  0.79608300  1
  H  1737  1  0.73170100  0.87092700  0.68683100  1
  H  1743  1  0.70260400  0.12571600  0.76481400  1
  H  1745  1  0.74745700  0.20374300  0.72116200  1
  H  1746  1  0.76803900  0.19569900  0.75783300  1
  H  1748  1  0.66327200  0.11250700  0.73872700  1
  H  1749  1  0.68163400  0.11337400  0.71248500  1
  H  1750  1  0.65114100  0.13981700  0.71999400  1
  H  1752  1  0.73013700  0.14554700  0.79653500  1
  H  1754  1  0.69562600  0.19631500  0.69510700  1
  H  1760  1  0.69986600  0.13142400  0.21122400  1
  H  1762  1  0.76123200  0.18908500  0.26402700  1
  H  1763  1  0.77608700  0.19051600  0.22587500  1
  H  1765  1  0.66666667  0.10974400  0.23750700  1
  H  1766  1  0.68677700  0.10653700  0.26333100  1
  H  1767  1  0.65577100  0.13378700  0.25886500  1
  H  1769  1  0.72973900  0.15389400  0.18183400  1
  H  1771  1  0.73665400  0.14715600  0.29114200  1
  H  1777  1  0.76487100  0.89474800  0.21394400  1
  H  1779  1  0.72127900  0.81494800  0.25629600  1
  H  1780  1  0.70059000  0.82377600  0.21975400  1
  H  1782  1  0.80400000  0.90767600  0.24023200  1
  H  1783  1  0.78572700  0.90583800  0.26646600  1
  H  1784  1  0.81659000  0.87996600  0.25848800  1
  H  1786  1  0.73826400  0.87476900  0.18179600  1
  H  1788  1  0.77286900  0.82212500  0.28245500  1
  H  1794  1  0.27201300  0.38810100  0.76731000  1
  H  1796  1  0.20927100  0.33012000  0.71541100  1
  H  1797  1  0.19472300  0.32965600  0.75360900  1
  H  1799  1  0.30542700  0.40872800  0.74069200  1
  H  1800  1  0.28500500  0.41185700  0.71498200  1
  H  1801  1  0.31562900  0.38427600  0.71945800  1
  H  1803  1  0.24114700  0.36798700  0.79699200  1
  H  1805  1  0.23417400  0.37169000  0.68790300  1
  H  1811  1  0.20584300  0.62484000  0.76366700  1
  H  1813  1  0.25020900  0.70346300  0.72040800  1
  H  1814  1  0.27049000  0.69545200  0.75714700  1
  H  1816  1  0.16696400  0.61135300  0.73744500  1
  H  1817  1  0.18551500  0.61246700  0.71127800  1
  H  1818  1  0.15462200  0.63860100  0.71872900  1
  H  1820  1  0.23243500  0.64511600  0.79558100  1
  H  1822  1  0.19904800  0.69604600  0.69423100  1
  H  1828  1  0.20313100  0.63046100  0.21169400  1
  H  1830  1  0.26306500  0.69070100  0.26358300  1
  H  1831  1  0.27786700  0.69136200  0.22539100  1
  H  1833  1  0.17044700  0.60892000  0.23832700  1
  H  1834  1  0.19058000  0.60674700  0.26418900  1
  H  1835  1  0.15895800  0.63334500  0.25929500  1
  H  1837  1  0.23215800  0.65342400  0.18194900  1
  H  1839  1  0.23917600  0.64880000  0.29132300  1
  H  1845  1  0.26842700  0.39287000  0.21297200  1
  H  1847  1  0.22366200  0.31512200  0.25699200  1
  H  1848  1  0.20296000  0.32295400  0.22032400  1
  H  1850  1  0.30789000  0.40620100  0.23894500  1
  H  1851  1  0.28955000  0.40557100  0.26519900  1
  H  1852  1  0.32002200  0.37904800  0.25780900  1
  H  1854  1  0.24092900  0.37239500  0.18132100  1
  H  1856  1  0.27532500  0.32274700  0.28301900  1
  C  1  1  0.90663500  0.85540400  0.86527300  1
  C  2  1  0.87808400  0.83903900  0.85911800  1
  C  3  1  0.85725200  0.82579700  0.87484700  1
  C  4  1  0.86396000  0.83075800  0.89742800  1
  C  5  1  0.89213800  0.84638000  0.90463500  1
  C  6  1  0.91318200  0.85872600  0.88841300  1
  C  9  1  0.92629600  0.86988600  0.84852900  1
  C  10  1  0.93632200  0.85678900  0.82811600  1
  C  11  1  0.95545600  0.87229400  0.81233300  1
  C  12  1  0.96325200  0.90148900  0.81676900  1
  C  13  1  0.95440600  0.91491500  0.83665400  1
  C  14  1  0.93528300  0.89931100  0.85198000  1
  C  25  1  0.11262000  0.16381000  0.86670400  1
  C  26  1  0.14076700  0.18053200  0.86062000  1
  C  27  1  0.16123600  0.19448300  0.87639200  1
  C  28  1  0.15441300  0.19006100  0.89897600  1
  C  29  1  0.12658600  0.17405900  0.90607700  1
  C  30  1  0.10599700  0.16089500  0.88978900  1
  C  33  1  0.09351200  0.14851300  0.84997500  1
  C  34  1  0.08219000  0.16127200  0.82964900  1
  C  35  1  0.06303300  0.14523000  0.81400800  1
  C  36  1  0.05644500  0.11583700  0.81864500  1
  C  37  1  0.06668900  0.10273300  0.83852100  1
  C  38  1  0.08607300  0.11880800  0.85351900  1
  C  49  1  0.91105300  0.16430300  0.61197300  1
  C  50  1  0.88220300  0.18039000  0.61826400  1
  C  51  1  0.86036900  0.19319900  0.60260000  1
  C  52  1  0.86636600  0.18818100  0.57999100  1
  C  53  1  0.89476200  0.17270500  0.57266700  1
  C  54  1  0.91679300  0.16069000  0.58881300  1
  C  57  1  0.93156400  0.15003600  0.62866500  1
  C  58  1  0.94211200  0.16319500  0.64897200  1
  C  59  1  0.96123500  0.14730000  0.66489900  1
  C  60  1  0.96964600  0.11823000  0.66045400  1
  C  61  1  0.96001200  0.10476400  0.64071400  1
  C  62  1  0.94026600  0.12042600  0.62542100  1
  C  73  1  0.11230500  0.85328400  0.61196600  1
  C  74  1  0.14117800  0.83696900  0.61811400  1
  C  75  1  0.16214400  0.82372700  0.60232600  1
  C  76  1  0.15516900  0.82851500  0.57974000  1
  C  77  1  0.12663700  0.84417200  0.57260500  1
  C  78  1  0.10548400  0.85658200  0.58886600  1
  C  81  1  0.09259000  0.86796100  0.62864400  1
  C  82  1  0.08198500  0.85497200  0.64888100  1
  C  83  1  0.06186400  0.87052700  0.66428300  1
  C  84  1  0.05369400  0.89972400  0.65958900  1
  C  85  1  0.06407900  0.91320100  0.64006600  1
  C  86  1  0.08424600  0.89761500  0.62525300  1
  C  97  1  0.11121900  0.16591800  0.11281800  1
  C  98  1  0.14067700  0.18106800  0.11897200  1
  C  99  1  0.16123600  0.19477300  0.10328500  1
  C  100  1  0.15334700  0.19126100  0.08069400  1
  C  101  1  0.12479600  0.17612200  0.07354900  1
  C  102  1  0.10340000  0.16424400  0.08976100  1
  C  105  1  0.09152500  0.15113300  0.12935800  1
  C  106  1  0.08184100  0.16374200  0.15000700  1
  C  107  1  0.06254900  0.14799200  0.16556400  1
  C  108  1  0.05461200  0.11893000  0.16073000  1
  C  109  1  0.06316800  0.10596800  0.14060900  1
  C  110  1  0.08208800  0.12192800  0.12537400  1
  C  121  1  0.90567700  0.85589500  0.11134300  1
  C  122  1  0.87678000  0.84020600  0.11749200  1
  C  123  1  0.85662800  0.82572400  0.10182300  1
  C  124  1  0.86431900  0.82885800  0.07923800  1
  C  125  1  0.89231900  0.84459400  0.07212000  1
  C  126  1  0.91334300  0.85737000  0.08833800  1
  C  129  1  0.92493400  0.87130500  0.12788300  1
  C  130  1  0.93583100  0.85884800  0.14839700  1
  C  131  1  0.95513800  0.87497700  0.16388900  1
  C  132  1  0.96212500  0.90422300  0.15894600  1
  C  133  1  0.95222500  0.91705100  0.13887800  1
  C  134  1  0.93289900  0.90080700  0.12393800  1
  C  145  1  0.10675500  0.85250100  0.36609700  1
  C  146  1  0.13646900  0.83759400  0.35984400  1
  C  147  1  0.15799400  0.82431500  0.37550700  1
  C  148  1  0.15082400  0.82796900  0.39812500  1
  C  149  1  0.12205100  0.84297500  0.40533700  1
  C  150  1  0.09972000  0.85448700  0.38918300  1
  C  153  1  0.08619800  0.86704600  0.34960300  1
  C  154  1  0.07603000  0.85434400  0.32906200  1
  C  155  1  0.05664900  0.87043900  0.31339600  1
  C  156  1  0.04789300  0.89931700  0.31826300  1
  C  157  1  0.05723800  0.91237000  0.33822900  1
  C  158  1  0.07692400  0.89642500  0.35339900  1
  C  169  1  0.90585800  0.16505200  0.36602800  1
  C  170  1  0.87619000  0.18018600  0.35979800  1
  C  171  1  0.85546800  0.19391400  0.37549000  1
  C  172  1  0.86332900  0.19056300  0.39810200  1
  C  173  1  0.89209000  0.17527200  0.40526900  1
  C  174  1  0.91367700  0.16328400  0.38907700  1
  C  177  1  0.92575600  0.15028400  0.34953500  1
  C  178  1  0.93588400  0.16296200  0.32909100  1
  C  179  1  0.95610200  0.14732400  0.31380300  1
  C  180  1  0.96465400  0.11827500  0.31877600  1
  C  181  1  0.95472900  0.10508600  0.33854000  1
  C  182  1  0.93469200  0.12085000  0.35334200  1
  C  193  1  0.40889500  0.35210300  0.86567400  1
  C  194  1  0.38050100  0.33526100  0.85993700  1
  C  195  1  0.36066400  0.32181500  0.87618000  1
  C  196  1  0.36885800  0.32595400  0.89855700  1
  C  197  1  0.39695500  0.34205700  0.90521800  1
  C  198  1  0.41665800  0.35518600  0.88865800  1
  C  201  1  0.42712300  0.36776000  0.84890700  1
  C  202  1  0.43829100  0.35523700  0.82858400  1
  C  203  1  0.45745900  0.37149800  0.81327500  1
  C  204  1  0.46423500  0.40078100  0.81817400  1
  C  205  1  0.45365900  0.41377900  0.83791100  1
  C  206  1  0.43413300  0.39755700  0.85255200  1
  C  217  1  0.61262400  0.66446700  0.86666500  1
  C  218  1  0.64057900  0.68177700  0.86109000  1
  C  219  1  0.66024700  0.69562000  0.87739600  1
  C  220  1  0.65241700  0.69133400  0.89974200  1
  C  221  1  0.62480200  0.67469300  0.90628100  1
  C  222  1  0.60523700  0.66119400  0.88962100  1
  C  225  1  0.59454700  0.64877300  0.84966000  1
  C  226  1  0.58353800  0.66138900  0.82922300  1
  C  227  1  0.56500500  0.64511000  0.81341200  1
  C  228  1  0.55867800  0.61565700  0.81799000  1
  C  229  1  0.56874800  0.60265200  0.83792800  1
  C  230  1  0.58761900  0.61893300  0.85308600  1
  C  241  1  0.41324700  0.66774700  0.61151100  1
  C  242  1  0.38458500  0.68444800  0.61729700  1
  C  243  1  0.36387300  0.69757900  0.60106500  1
  C  244  1  0.37146300  0.69329200  0.57867300  1
  C  245  1  0.39977900  0.67723300  0.57198600  1
  C  246  1  0.42034600  0.66435700  0.58852600  1
  C  249  1  0.43205000  0.65210600  0.62827100  1
  C  250  1  0.44373700  0.66459100  0.64851800  1
  C  251  1  0.46256200  0.64777700  0.66403900  1
  C  252  1  0.46957000  0.61854600  0.65916700  1
  C  253  1  0.45826500  0.60565800  0.63952800  1
  C  254  1  0.43850600  0.62211300  0.62482600  1
  C  265  1  0.61222300  0.35226400  0.61204200  1
  C  266  1  0.64093800  0.33538000  0.61767700  1
  C  267  1  0.66111600  0.32220900  0.60136900  1
  C  268  1  0.65308700  0.32677900  0.57900500  1
  C  269  1  0.62475900  0.34308400  0.57242800  1
  C  270  1  0.60462700  0.35587300  0.58906600  1
  C  273  1  0.59357700  0.36743200  0.62899700  1
  C  274  1  0.58326600  0.35467100  0.64937600  1
  C  275  1  0.56381900  0.37056300  0.66495000  1
  C  276  1  0.55602400  0.39984000  0.66027700  1
  C  277  1  0.56622800  0.41311500  0.64064500  1
  C  278  1  0.58582600  0.39722900  0.62568000  1
  C  289  1  0.61136400  0.66565500  0.11261000  1
  C  290  1  0.64046900  0.68166500  0.11825100  1
  C  291  1  0.65988400  0.69566800  0.10205600  1
  C  292  1  0.65083300  0.69255600  0.07972900  1
  C  293  1  0.62277300  0.67639400  0.07315100  1
  C  294  1  0.60268200  0.66367100  0.08970000  1
  C  297  1  0.59291900  0.65031600  0.12946400  1
  C  298  1  0.58350600  0.66291200  0.15014600  1
  C  299  1  0.56507000  0.64690300  0.16596700  1
  C  300  1  0.55759600  0.61768400  0.16137700  1
  C  301  1  0.56588900  0.60470000  0.14120600  1
  C  302  1  0.58408500  0.62089300  0.12570600  1
  C  313  1  0.40946500  0.35281500  0.11137100  1
  C  314  1  0.38056400  0.33671100  0.11700400  1
  C  315  1  0.36123000  0.32222100  0.10082200  1
  C  316  1  0.37027700  0.32487000  0.07852800  1
  C  317  1  0.39829700  0.34095500  0.07201100  1
  C  318  1  0.41823200  0.35425000  0.08854600  1
  C  321  1  0.42768600  0.36885600  0.12806800  1
  C  322  1  0.43846200  0.35666300  0.14867400  1
  C  323  1  0.45744400  0.37309900  0.16412700  1
  C  324  1  0.46424000  0.40234400  0.15908300  1
  C  325  1  0.45448000  0.41497000  0.13890600  1
  C  326  1  0.43536400  0.39842600  0.12401600  1
  C  337  1  0.60688400  0.35262600  0.36630300  1
  C  338  1  0.63628200  0.33683600  0.36057800  1
  C  339  1  0.65667200  0.32318300  0.37674400  1
  C  340  1  0.64830800  0.32642700  0.39910700  1
  C  341  1  0.61998700  0.34246800  0.40574600  1
  C  342  1  0.59895000  0.35487800  0.38924400  1
  C  345  1  0.58763000  0.36782200  0.34948700  1
  C  346  1  0.57770100  0.35521000  0.32888300  1
  C  347  1  0.55924400  0.37161400  0.31294900  1
  C  348  1  0.55118000  0.40070700  0.31759000  1
  C  349  1  0.56024300  0.41369800  0.33764100  1
  C  350  1  0.57905800  0.39741800  0.35310100  1
  C  361  1  0.40970000  0.66846500  0.36607100  1
  C  362  1  0.38006700  0.68410600  0.36037400  1
  C  363  1  0.36024500  0.69797200  0.37657400  1
  C  364  1  0.36949300  0.69512200  0.39890600  1
  C  365  1  0.39823000  0.67940600  0.40544600  1
  C  366  1  0.41867600  0.66679000  0.38893300  1
  C  369  1  0.42848600  0.65290600  0.34944000  1
  C  370  1  0.43855100  0.66521600  0.32888000  1
  C  371  1  0.45847100  0.64917700  0.31368900  1
  C  372  1  0.46678400  0.62013700  0.31885900  1
  C  373  1  0.45690700  0.60724000  0.33875000  1
  C  374  1  0.43703600  0.62339500  0.35342700  1
  C  385  1  0.88732100  0.85303300  0.01205000  1
  C  386  1  0.86819300  0.86957400  0.99673400  1
  C  387  1  0.87070100  0.86571100  0.97354300  1
  C  388  1  0.89367600  0.84473400  0.96506800  1
  C  389  1  0.91340400  0.82869200  0.98035100  1
  C  391  1  0.91043000  0.83280900  0.00331500  1
  C  394  1  0.84780400  0.88256600  0.95877500  1
  C  398  1  0.87988600  0.85444700  0.03461400  1
  C  400  1  0.89292200  0.83535800  0.94312200  1
  C  402  1  0.12972900  0.16706300  0.01357800  1
  C  403  1  0.14866400  0.15023300  0.99851100  1
  C  404  1  0.14669700  0.15431500  0.97529900  1
  C  405  1  0.12449600  0.17584900  0.96652900  1
  C  406  1  0.10495300  0.19219500  0.98155300  1
  C  408  1  0.10734700  0.18782300  0.00454500  1
  C  411  1  0.16937100  0.13707200  0.96085000  1
  C  415  1  0.13685200  0.16541600  0.03624900  1
  C  417  1  0.12574600  0.18525700  0.94460300  1
  C  419  1  0.88799500  0.16607800  0.46523200  1
  C  420  1  0.86928900  0.14956600  0.48043900  1
  C  421  1  0.87193900  0.15340300  0.50364500  1
  C  422  1  0.89464700  0.17429100  0.51224400  1
  C  423  1  0.91393800  0.19031500  0.49708200  1
  C  425  1  0.91084500  0.18621500  0.47410300  1
  C  428  1  0.84948800  0.13661300  0.51830600  1
  C  432  1  0.88037800  0.16472800  0.44262800  1
  C  434  1  0.89397500  0.18362800  0.53418800  1
  C  436  1  0.12820100  0.85214600  0.46524800  1
  C  437  1  0.14726000  0.86873000  0.48039100  1
  C  438  1  0.14583100  0.86446000  0.50358100  1
  C  439  1  0.12407200  0.84298300  0.51221100  1
  C  440  1  0.10434200  0.82693600  0.49713900  1
  C  442  1  0.10623600  0.83147300  0.47417900  1
  C  445  1  0.16858700  0.88141100  0.51813600  1
  C  449  1  0.13483900  0.85385600  0.44259300  1
  C  451  1  0.12589400  0.83341400  0.53407300  1
  C  453  1  0.39426000  0.35112200  0.01231700  1
  C  454  1  0.37487500  0.36735900  0.99695200  1
  C  455  1  0.37700000  0.36297500  0.97380800  1
  C  456  1  0.39986600  0.34179000  0.96550100  1
  C  457  1  0.41999800  0.32619500  0.98079000  1
  C  459  1  0.41736500  0.33081000  0.00369200  1
  C  462  1  0.35380600  0.37944900  0.95898400  1
  C  466  1  0.38702500  0.35279400  0.03487600  1
  C  468  1  0.39869000  0.33181600  0.94376800  1
  C  470  1  0.62738900  0.66592500  0.01349400  1
  C  471  1  0.64753100  0.65021400  0.99840700  1
  C  472  1  0.64555700  0.65454800  0.97523100  1
  C  473  1  0.62207800  0.67511400  0.96658000  1
  C  474  1  0.60130100  0.69025300  0.98157600  1
  C  476  1  0.60377400  0.68568600  0.00452000  1
  C  479  1  0.66949400  0.63870900  0.96074200  1
  C  483  1  0.63442200  0.66443800  0.03616200  1
  C  485  1  0.62309500  0.68504200  0.94483300  1
  C  487  1  0.39516800  0.66816800  0.46495000  1
  C  488  1  0.37605800  0.65207800  0.48019200  1
  C  489  1  0.37841500  0.65637500  0.50335000  1
  C  490  1  0.40125700  0.67727100  0.51176600  1
  C  491  1  0.42115300  0.69268500  0.49661500  1
  C  493  1  0.41831400  0.68814500  0.47370400  1
  C  496  1  0.35554000  0.64011300  0.51807700  1
  C  500  1  0.38781600  0.66660100  0.44234900  1
  C  502  1  0.40022900  0.68728800  0.53346200  1
  C  504  1  0.62582800  0.35304300  0.46535900  1
  C  505  1  0.64616600  0.36842800  0.48051700  1
  C  506  1  0.64469200  0.36391000  0.50366800  1
  C  507  1  0.62154600  0.34349200  0.51218800  1
  C  508  1  0.60052300  0.32873300  0.49713400  1
  C  510  1  0.60246900  0.33350300  0.47422400  1
  C  513  1  0.66875300  0.37938400  0.51827800  1
  C  517  1  0.63230900  0.35463100  0.44269400  1
  C  519  1  0.62316100  0.33333333  0.53383800  1
  C  521  1  0.98943200  0.98312200  0.85418400  1
  C  522  1  0.01726700  0.99206200  0.86691500  1
  C  523  1  0.03113900  0.02013100  0.86481500  1
  C  524  1  0.01659300  0.03996300  0.84939300  1
  C  525  1  0.98871600  0.03098200  0.83670900  1
  C  527  1  0.97542600  0.00310800  0.83900500  1
  C  530  1  0.06004900  0.02824500  0.87903900  1
  C  534  1  0.97695400  0.95520100  0.85631200  1
  C  536  1  0.02652800  0.06855700  0.84682700  1
  C  538  1  0.99053500  0.03484400  0.62335900  1
  C  539  1  0.01822900  0.02488900  0.61104100  1
  C  540  1  0.03104700  0.99627900  0.61331300  1
  C  541  1  0.01544300  0.97707100  0.62842600  1
  C  542  1  0.98768400  0.98707200  0.64068300  1
  C  544  1  0.97547100  0.01549100  0.63824900  1
  C  547  1  0.05997300  0.98704800  0.59959400  1
  C  551  1  0.97897800  0.06311100  0.62103300  1
  C  553  1  0.02448000  0.94820200  0.63108100  1
  C  555  1  0.02792600  0.03771700  0.12323400  1
  C  556  1  0.99992600  0.02848000  0.11078700  1
  C  557  1  0.98648600  0.00025400  0.11300300  1
  C  558  1  0.00162400  0.98051300  0.12826300  1
  C  559  1  0.02963700  0.98981900  0.14068200  1
  C  561  1  0.04249800  0.01783300  0.13826800  1
  C  564  1  0.95737600  0.99190900  0.09904000  1
  C  568  1  0.04004200  0.06578100  0.12098000  1
  C  570  1  0.99213600  0.95177700  0.13098200  1
  C  572  1  0.02704700  0.98256900  0.35540200  1
  C  573  1  0.99927800  0.99288200  0.36747500  1
  C  574  1  0.98678800  0.02158100  0.36496400  1
  C  575  1  0.00282100  0.04056900  0.34987000  1
  C  576  1  0.03061600  0.03015800  0.33782600  1
  C  578  1  0.04249200  0.00166600  0.34049100  1
  C  581  1  0.95773900  0.03111100  0.37845500  1
  C  585  1  0.03834400  0.95422800  0.35795000  1
  C  587  1  0.99419000  0.06954300  0.34696000  1
  C  589  1  0.49936800  0.47943600  0.84781800  1
  C  590  1  0.52638700  0.48843900  0.86126600  1
  C  591  1  0.53741400  0.51758400  0.86162100  1
  C  592  1  0.52110600  0.53834000  0.84774200  1
  C  593  1  0.49384700  0.52932800  0.83448300  1
  C  595  1  0.48323800  0.50039900  0.83443200  1
  C  598  1  0.56558500  0.52567200  0.87649100  1
  C  602  1  0.49173500  0.45022200  0.84596500  1
  C  604  1  0.52984500  0.56738200  0.84645500  1
  C  606  1  0.50151800  0.53834100  0.63005800  1
  C  607  1  0.52814100  0.52822700  0.61681700  1
  C  608  1  0.53783100  0.49860100  0.61639100  1
  C  609  1  0.52044400  0.47858200  0.62993400  1
  C  610  1  0.49354600  0.48867600  0.64295700  1
  C  612  1  0.48430300  0.51808700  0.64310300  1
  C  615  1  0.56579400  0.48931100  0.60185700  1
  C  619  1  0.49513100  0.56781300  0.63191200  1
  C  621  1  0.52816800  0.44929500  0.63122100  1
  C  623  1  0.53011100  0.53634700  0.12414000  1
  C  624  1  0.50238600  0.52693900  0.11148500  1
  C  625  1  0.48897500  0.49867500  0.11364300  1
  C  626  1  0.50383800  0.47899700  0.12906600  1
  C  627  1  0.53156500  0.48848800  0.14170300  1
  C  629  1  0.54440400  0.51653300  0.13934200  1
  C  632  1  0.46018200  0.49023200  0.09943100  1
  C  636  1  0.54218000  0.56448100  0.12189100  1
  C  638  1  0.49438000  0.45020300  0.13184800  1
  C  640  1  0.52923100  0.48393800  0.35459600  1
  C  641  1  0.50170100  0.49437100  0.36686600  1
  C  642  1  0.48919800  0.52309400  0.36442700  1
  C  643  1  0.50491700  0.54206800  0.34917200  1
  C  644  1  0.53245900  0.53152000  0.33692000  1
  C  646  1  0.54435900  0.50301000  0.33952200  1
  C  649  1  0.46044300  0.53265600  0.37817100  1
  C  653  1  0.54048100  0.45552000  0.35711500  1
  C  655  1  0.49634300  0.57112100  0.34624400  1
  C  657  1  0.79376700  0.76938900  0.87079200  1
  C  658  1  0.78948200  0.74131600  0.87976600  1
  C  659  1  0.76048800  0.72462500  0.87587000  1
  C  660  1  0.73426700  0.73640200  0.86242700  1
  C  661  1  0.73874200  0.76421500  0.85303500  1
  C  663  1  0.76779300  0.78046400  0.85721700  1
  C  666  1  0.75867300  0.69521600  0.88599600  1
  C  670  1  0.82225700  0.78513500  0.87660400  1
  C  672  1  0.70459000  0.72168100  0.85799300  1
  C  674  1  0.22554500  0.25013100  0.87169200  1
  C  675  1  0.23086600  0.27818500  0.88048300  1
  C  676  1  0.25985900  0.29450500  0.87596200  1
  C  677  1  0.28500600  0.28235900  0.86205600  1
  C  678  1  0.27947400  0.25455500  0.85286500  1
  C  680  1  0.25044100  0.23869400  0.85765100  1
  C  683  1  0.26280200  0.32393900  0.88593800  1
  C  687  1  0.19713800  0.23477500  0.87802300  1
  C  689  1  0.31469600  0.29663200  0.85707500  1
  C  691  1  0.79644400  0.24968800  0.60755800  1
  C  692  1  0.79146600  0.27801000  0.59905400  1
  C  693  1  0.76224100  0.29459400  0.60324800  1
  C  694  1  0.73660000  0.28242100  0.61651700  1
  C  695  1  0.74179800  0.25437400  0.62548200  1
  C  697  1  0.77106100  0.23824700  0.62101600  1
  C  700  1  0.75953800  0.32425700  0.59356700  1
  C  704  1  0.82501300  0.23405700  0.60144300  1
  C  706  1  0.70660700  0.29685600  0.62095800  1
  C  708  1  0.22717100  0.76795700  0.60699900  1
  C  709  1  0.23260000  0.73978300  0.59836800  1
  C  710  1  0.26217300  0.72357000  0.60263000  1
  C  711  1  0.28770300  0.73597900  0.61610100  1
  C  712  1  0.28207600  0.76388100  0.62517100  1
  C  714  1  0.25248100  0.77963700  0.62063200  1
  C  717  1  0.26535400  0.69402700  0.59281600  1
  C  721  1  0.19825300  0.78326500  0.60084600  1
  C  723  1  0.31798600  0.72191500  0.62065200  1
  C  725  1  0.22577000  0.25046800  0.10759400  1
  C  726  1  0.23091800  0.27815900  0.09813900  1
  C  727  1  0.26031300  0.29441200  0.10184900  1
  C  728  1  0.28611900  0.28259700  0.11561800  1
  C  729  1  0.28087400  0.25511000  0.12539000  1
  C  731  1  0.25143400  0.23928700  0.12137600  1
  C  734  1  0.26292400  0.32348400  0.09126500  1
  C  738  1  0.19665900  0.23528300  0.10214000  1
  C  740  1  0.31599600  0.29705400  0.12011100  1
  C  742  1  0.79407400  0.76878300  0.10730700  1
  C  743  1  0.78924700  0.74074000  0.09835500  1
  C  744  1  0.76043300  0.72407400  0.10262500  1
  C  745  1  0.73495000  0.73582200  0.11645100  1
  C  746  1  0.73993900  0.76363500  0.12577200  1
  C  748  1  0.76880000  0.77985700  0.12122100  1
  C  751  1  0.75804400  0.69467500  0.09251900  1
  C  755  1  0.82255300  0.78434000  0.10137800  1
  C  757  1  0.70547100  0.72112000  0.12125100  1
  C  759  1  0.22315900  0.76863000  0.37050600  1
  C  760  1  0.22892500  0.74059800  0.37938400  1
  C  761  1  0.25847700  0.72439800  0.37528700  1
  C  762  1  0.28370800  0.73664600  0.36171800  1
  C  763  1  0.27780200  0.76444500  0.35246400  1
  C  765  1  0.24821600  0.78019700  0.35684400  1
  C  768  1  0.26191200  0.69498200  0.38531200  1
  C  772  1  0.19404200  0.78376100  0.37633000  1
  C  774  1  0.31384900  0.72244600  0.35715100  1
  C  776  1  0.79238200  0.25108300  0.36980300  1
  C  777  1  0.78745700  0.27918100  0.37871100  1
  C  778  1  0.75805100  0.29576600  0.37479500  1
  C  779  1  0.73213900  0.28385000  0.36138300  1
  C  780  1  0.73722200  0.25600600  0.35207000  1
  C  782  1  0.76666900  0.23986800  0.35626900  1
  C  785  1  0.75547500  0.32520800  0.38484800  1
  C  789  1  0.82144800  0.23558700  0.37539900  1
  C  791  1  0.70206600  0.29839600  0.35704700  1
  C  793  1  0.00428600  0.85758600  0.76335500  1
  C  794  1  0.03090300  0.87471100  0.75549200  1
  C  795  1  0.03996700  0.87571700  0.73292300  1
  C  796  1  0.02262000  0.85801100  0.71737700  1
  C  797  1  0.99599500  0.84082300  0.72521800  1
  C  799  1  0.98699100  0.84056600  0.74772200  1
  C  802  1  0.06624100  0.89656200  0.72610900  1
  C  806  1  0.99540300  0.86008000  0.78560100  1
  C  808  1  0.02593700  0.86194400  0.69461400  1
  C  810  1  0.01199100  0.15987700  0.76496700  1
  C  811  1  0.98688000  0.14222900  0.75552300  1
  C  812  1  0.97424800  0.14645500  0.73381900  1
  C  813  1  0.98720800  0.16938000  0.72062300  1
  C  814  1  0.01245500  0.18699300  0.73005700  1
  C  816  1  0.02481300  0.18224700  0.75167900  1
  C  819  1  0.94715800  0.12696500  0.72589400  1
  C  823  1  0.02196300  0.15447900  0.78680500  1
  C  825  1  0.97531700  0.17590800  0.69929100  1
  C  827  1  0.01360300  0.16160000  0.21466500  1
  C  828  1  0.98689600  0.14439300  0.22230400  1
  C  829  1  0.97779400  0.14293200  0.24485700  1
  C  830  1  0.99520400  0.16023700  0.26063000  1
  C  831  1  0.02190300  0.17751400  0.25301100  1
  C  833  1  0.03092100  0.17824800  0.23051800  1
  C  836  1  0.95137800  0.12208600  0.25142000  1
  C  840  1  0.02251300  0.15959400  0.19238800  1
  C  842  1  0.99180900  0.15592200  0.28335400  1
  C  844  1  0.00552800  0.86020300  0.21324500  1
  C  845  1  0.03033900  0.87789200  0.22298100  1
  C  846  1  0.04306700  0.87318000  0.24460300  1
  C  847  1  0.03051700  0.84969500  0.25740600  1
  C  848  1  0.00549600  0.83209100  0.24769500  1
  C  850  1  0.99305700  0.83730600  0.22615500  1
  C  853  1  0.06988400  0.89274400  0.25282600  1
  C  857  1  0.99578300  0.86586600  0.19140800  1
  C  859  1  0.04260600  0.84262600  0.27859400  1
  C  861  1  0.50728100  0.35834200  0.76436500  1
  C  862  1  0.53423700  0.37502500  0.75643900  1
  C  863  1  0.54317300  0.37591300  0.73384000  1
  C  864  1  0.52527500  0.35854900  0.71834300  1
  C  865  1  0.49842300  0.34170700  0.72624400  1
  C  867  1  0.48959100  0.34155800  0.74877000  1
  C  870  1  0.56984100  0.39633500  0.72694800  1
  C  874  1  0.49824300  0.36117300  0.78657300  1
  C  876  1  0.52841500  0.36255400  0.69558500  1
  C  878  1  0.51476600  0.65933900  0.76404200  1
  C  879  1  0.49002500  0.64146000  0.75444300  1
  C  880  1  0.47755900  0.64566500  0.73270200  1
  C  881  1  0.49033800  0.66880900  0.71963300  1
  C  882  1  0.51534300  0.68656000  0.72920100  1
  C  884  1  0.52752400  0.68184200  0.75086400  1
  C  887  1  0.45076400  0.62593800  0.72467000  1
  C  891  1  0.52436900  0.65408000  0.78595100  1
  C  893  1  0.47837600  0.67555800  0.69835700  1
  C  895  1  0.51613300  0.66140000  0.21470800  1
  C  896  1  0.48985900  0.64390300  0.22258500  1
  C  897  1  0.48077900  0.64291500  0.24514400  1
  C  898  1  0.49780300  0.66097500  0.26059900  1
  C  899  1  0.52407300  0.67853900  0.25275300  1
  C  901  1  0.53306100  0.67881400  0.23025700  1
  C  904  1  0.45483600  0.62180200  0.25203400  1
  C  908  1  0.52497600  0.65912800  0.19246900  1
  C  910  1  0.49433600  0.65730400  0.28334900  1
  C  912  1  0.50854500  0.35871900  0.21304300  1
  C  913  1  0.53370400  0.37642100  0.22234900  1
  C  914  1  0.54641500  0.37231200  0.24403500  1
  C  915  1  0.53348600  0.34945200  0.25731000  1
  C  916  1  0.50817200  0.33179800  0.24801300  1
  C  918  1  0.49573700  0.33642800  0.22640800  1
  C  921  1  0.57352500  0.39186100  0.25185400  1
  C  925  1  0.49852500  0.36392100  0.19122500  1
  C  927  1  0.54532600  0.34312200  0.27866000  1
  C  929  1  0.63187700  0.85540400  0.86527300  1
  C  930  1  0.60332600  0.83903900  0.85911800  1
  C  931  1  0.58249400  0.82579700  0.87484700  1
  C  932  1  0.58920200  0.83075800  0.89742800  1
  C  933  1  0.61738000  0.84638000  0.90463500  1
  C  934  1  0.63842400  0.85872600  0.88841300  1
  C  937  1  0.65153800  0.86988600  0.84852900  1
  C  938  1  0.66156400  0.85678900  0.82811600  1
  C  939  1  0.68069800  0.87229400  0.81233300  1
  C  940  1  0.68849400  0.90148900  0.81676900  1
  C  941  1  0.67964800  0.91491500  0.83665400  1
  C  942  1  0.66052500  0.89931100  0.85198000  1
  C  953  1  0.83786200  0.16381000  0.86670400  1
  C  954  1  0.86600900  0.18053200  0.86062000  1
  C  955  1  0.88647800  0.19448300  0.87639200  1
  C  956  1  0.87965500  0.19006100  0.89897600  1
  C  957  1  0.85182800  0.17405900  0.90607700  1
  C  958  1  0.83123900  0.16089500  0.88978900  1
  C  961  1  0.81875400  0.14851300  0.84997500  1
  C  962  1  0.80743200  0.16127200  0.82964900  1
  C  963  1  0.78827500  0.14523000  0.81400800  1
  C  964  1  0.78168700  0.11583700  0.81864500  1
  C  965  1  0.79193100  0.10273300  0.83852100  1
  C  966  1  0.81131500  0.11880800  0.85351900  1
  C  977  1  0.63629500  0.16430300  0.61197300  1
  C  978  1  0.60744500  0.18039000  0.61826400  1
  C  979  1  0.58561100  0.19319900  0.60260000  1
  C  980  1  0.59160800  0.18818100  0.57999100  1
  C  981  1  0.62000400  0.17270500  0.57266700  1
  C  982  1  0.64203500  0.16069000  0.58881300  1
  C  985  1  0.65680600  0.15003600  0.62866500  1
  C  986  1  0.66735400  0.16319500  0.64897200  1
  C  987  1  0.68647700  0.14730000  0.66489900  1
  C  988  1  0.69488800  0.11823000  0.66045400  1
  C  989  1  0.68525400  0.10476400  0.64071400  1
  C  990  1  0.66550800  0.12042600  0.62542100  1
  C  1001  1  0.83754700  0.85328400  0.61196600  1
  C  1002  1  0.86642000  0.83696900  0.61811400  1
  C  1003  1  0.88738600  0.82372700  0.60232600  1
  C  1004  1  0.88041100  0.82851500  0.57974000  1
  C  1005  1  0.85187900  0.84417200  0.57260500  1
  C  1006  1  0.83072600  0.85658200  0.58886600  1
  C  1009  1  0.81783200  0.86796100  0.62864400  1
  C  1010  1  0.80722700  0.85497200  0.64888100  1
  C  1011  1  0.78710600  0.87052700  0.66428300  1
  C  1012  1  0.77893600  0.89972400  0.65958900  1
  C  1013  1  0.78932100  0.91320100  0.64006600  1
  C  1014  1  0.80948800  0.89761500  0.62525300  1
  C  1025  1  0.83646100  0.16591800  0.11281800  1
  C  1026  1  0.86591900  0.18106800  0.11897200  1
  C  1027  1  0.88647800  0.19477300  0.10328500  1
  C  1028  1  0.87858900  0.19126100  0.08069400  1
  C  1029  1  0.85003800  0.17612200  0.07354900  1
  C  1030  1  0.82864200  0.16424400  0.08976100  1
  C  1033  1  0.81676700  0.15113300  0.12935800  1
  C  1034  1  0.80708300  0.16374200  0.15000700  1
  C  1035  1  0.78779100  0.14799200  0.16556400  1
  C  1036  1  0.77985400  0.11893000  0.16073000  1
  C  1037  1  0.78841000  0.10596800  0.14060900  1
  C  1038  1  0.80733000  0.12192800  0.12537400  1
  C  1049  1  0.63091900  0.85589500  0.11134300  1
  C  1050  1  0.60202200  0.84020600  0.11749200  1
  C  1051  1  0.58187000  0.82572400  0.10182300  1
  C  1052  1  0.58956100  0.82885800  0.07923800  1
  C  1053  1  0.61756100  0.84459400  0.07212000  1
  C  1054  1  0.63858500  0.85737000  0.08833800  1
  C  1057  1  0.65017600  0.87130500  0.12788300  1
  C  1058  1  0.66107300  0.85884800  0.14839700  1
  C  1059  1  0.68038000  0.87497700  0.16388900  1
  C  1060  1  0.68736700  0.90422300  0.15894600  1
  C  1061  1  0.67746700  0.91705100  0.13887800  1
  C  1062  1  0.65814100  0.90080700  0.12393800  1
  C  1073  1  0.83199700  0.85250100  0.36609700  1
  C  1074  1  0.86171100  0.83759400  0.35984400  1
  C  1075  1  0.88323600  0.82431500  0.37550700  1
  C  1076  1  0.87606600  0.82796900  0.39812500  1
  C  1077  1  0.84729300  0.84297500  0.40533700  1
  C  1078  1  0.82496200  0.85448700  0.38918300  1
  C  1081  1  0.81144000  0.86704600  0.34960300  1
  C  1082  1  0.80127200  0.85434400  0.32906200  1
  C  1083  1  0.78189100  0.87043900  0.31339600  1
  C  1084  1  0.77313500  0.89931700  0.31826300  1
  C  1085  1  0.78248000  0.91237000  0.33822900  1
  C  1086  1  0.80216600  0.89642500  0.35339900  1
  C  1097  1  0.63110000  0.16505200  0.36602800  1
  C  1098  1  0.60143200  0.18018600  0.35979800  1
  C  1099  1  0.58071000  0.19391400  0.37549000  1
  C  1100  1  0.58857100  0.19056300  0.39810200  1
  C  1101  1  0.61733200  0.17527200  0.40526900  1
  C  1102  1  0.63891900  0.16328400  0.38907700  1
  C  1105  1  0.65099800  0.15028400  0.34953500  1
  C  1106  1  0.66112600  0.16296200  0.32909100  1
  C  1107  1  0.68134400  0.14732400  0.31380300  1
  C  1108  1  0.68989600  0.11827500  0.31877600  1
  C  1109  1  0.67997100  0.10508600  0.33854000  1
  C  1110  1  0.65993400  0.12085000  0.35334200  1
  C  1121  1  0.13413700  0.35210300  0.86567400  1
  C  1122  1  0.10574300  0.33526100  0.85993700  1
  C  1123  1  0.08590600  0.32181500  0.87618000  1
  C  1124  1  0.09410000  0.32595400  0.89855700  1
  C  1125  1  0.12219700  0.34205700  0.90521800  1
  C  1126  1  0.14190000  0.35518600  0.88865800  1
  C  1129  1  0.15236500  0.36776000  0.84890700  1
  C  1130  1  0.16353300  0.35523700  0.82858400  1
  C  1131  1  0.18270100  0.37149800  0.81327500  1
  C  1132  1  0.18947700  0.40078100  0.81817400  1
  C  1133  1  0.17890100  0.41377900  0.83791100  1
  C  1134  1  0.15937500  0.39755700  0.85255200  1
  C  1145  1  0.33786600  0.66446700  0.86666500  1
  C  1146  1  0.36582100  0.68177700  0.86109000  1
  C  1147  1  0.38548900  0.69562000  0.87739600  1
  C  1148  1  0.37765900  0.69133400  0.89974200  1
  C  1149  1  0.35004400  0.67469300  0.90628100  1
  C  1150  1  0.33047900  0.66119400  0.88962100  1
  C  1153  1  0.31978900  0.64877300  0.84966000  1
  C  1154  1  0.30878000  0.66138900  0.82922300  1
  C  1155  1  0.29024700  0.64511000  0.81341200  1
  C  1156  1  0.28392000  0.61565700  0.81799000  1
  C  1157  1  0.29399000  0.60265200  0.83792800  1
  C  1158  1  0.31286100  0.61893300  0.85308600  1
  C  1169  1  0.13848900  0.66774700  0.61151100  1
  C  1170  1  0.10982700  0.68444800  0.61729700  1
  C  1171  1  0.08911500  0.69757900  0.60106500  1
  C  1172  1  0.09670500  0.69329200  0.57867300  1
  C  1173  1  0.12502100  0.67723300  0.57198600  1
  C  1174  1  0.14558800  0.66435700  0.58852600  1
  C  1177  1  0.15729200  0.65210600  0.62827100  1
  C  1178  1  0.16897900  0.66459100  0.64851800  1
  C  1179  1  0.18780400  0.64777700  0.66403900  1
  C  1180  1  0.19481200  0.61854600  0.65916700  1
  C  1181  1  0.18350700  0.60565800  0.63952800  1
  C  1182  1  0.16374800  0.62211300  0.62482600  1
  C  1193  1  0.33746500  0.35226400  0.61204200  1
  C  1194  1  0.36618000  0.33538000  0.61767700  1
  C  1195  1  0.38635800  0.32220900  0.60136900  1
  C  1196  1  0.37832900  0.32677900  0.57900500  1
  C  1197  1  0.35000100  0.34308400  0.57242800  1
  C  1198  1  0.32986900  0.35587300  0.58906600  1
  C  1201  1  0.31881900  0.36743200  0.62899700  1
  C  1202  1  0.30850800  0.35467100  0.64937600  1
  C  1203  1  0.28906100  0.37056300  0.66495000  1
  C  1204  1  0.28126600  0.39984000  0.66027700  1
  C  1205  1  0.29147000  0.41311500  0.64064500  1
  C  1206  1  0.31106800  0.39722900  0.62568000  1
  C  1217  1  0.33660600  0.66565500  0.11261000  1
  C  1218  1  0.36571100  0.68166500  0.11825100  1
  C  1219  1  0.38512600  0.69566800  0.10205600  1
  C  1220  1  0.37607500  0.69255600  0.07972900  1
  C  1221  1  0.34801500  0.67639400  0.07315100  1
  C  1222  1  0.32792400  0.66367100  0.08970000  1
  C  1225  1  0.31816100  0.65031600  0.12946400  1
  C  1226  1  0.30874800  0.66291200  0.15014600  1
  C  1227  1  0.29031200  0.64690300  0.16596700  1
  C  1228  1  0.28283800  0.61768400  0.16137700  1
  C  1229  1  0.29113100  0.60470000  0.14120600  1
  C  1230  1  0.30932700  0.62089300  0.12570600  1
  C  1241  1  0.13470700  0.35281500  0.11137100  1
  C  1242  1  0.10580600  0.33671100  0.11700400  1
  C  1243  1  0.08647200  0.32222100  0.10082200  1
  C  1244  1  0.09551900  0.32487000  0.07852800  1
  C  1245  1  0.12353900  0.34095500  0.07201100  1
  C  1246  1  0.14347400  0.35425000  0.08854600  1
  C  1249  1  0.15292800  0.36885600  0.12806800  1
  C  1250  1  0.16370400  0.35666300  0.14867400  1
  C  1251  1  0.18268600  0.37309900  0.16412700  1
  C  1252  1  0.18948200  0.40234400  0.15908300  1
  C  1253  1  0.17972200  0.41497000  0.13890600  1
  C  1254  1  0.16060600  0.39842600  0.12401600  1
  C  1265  1  0.33212600  0.35262600  0.36630300  1
  C  1266  1  0.36152400  0.33683600  0.36057800  1
  C  1267  1  0.38191400  0.32318300  0.37674400  1
  C  1268  1  0.37355000  0.32642700  0.39910700  1
  C  1269  1  0.34522900  0.34246800  0.40574600  1
  C  1270  1  0.32419200  0.35487800  0.38924400  1
  C  1273  1  0.31287200  0.36782200  0.34948700  1
  C  1274  1  0.30294300  0.35521000  0.32888300  1
  C  1275  1  0.28448600  0.37161400  0.31294900  1
  C  1276  1  0.27642200  0.40070700  0.31759000  1
  C  1277  1  0.28548500  0.41369800  0.33764100  1
  C  1278  1  0.30430000  0.39741800  0.35310100  1
  C  1289  1  0.13494200  0.66846500  0.36607100  1
  C  1290  1  0.10530900  0.68410600  0.36037400  1
  C  1291  1  0.08548700  0.69797200  0.37657400  1
  C  1292  1  0.09473500  0.69512200  0.39890600  1
  C  1293  1  0.12347200  0.67940600  0.40544600  1
  C  1294  1  0.14391800  0.66679000  0.38893300  1
  C  1297  1  0.15372800  0.65290600  0.34944000  1
  C  1298  1  0.16379300  0.66521600  0.32888000  1
  C  1299  1  0.18371300  0.64917700  0.31368900  1
  C  1300  1  0.19202600  0.62013700  0.31885900  1
  C  1301  1  0.18214900  0.60724000  0.33875000  1
  C  1302  1  0.16227800  0.62339500  0.35342700  1
  C  1313  1  0.61256300  0.85303300  0.01205000  1
  C  1314  1  0.59343500  0.86957400  0.99673400  1
  C  1315  1  0.59594300  0.86571100  0.97354300  1
  C  1316  1  0.61891800  0.84473400  0.96506800  1
  C  1317  1  0.63864600  0.82869200  0.98035100  1
  C  1319  1  0.63567200  0.83280900  0.00331500  1
  C  1322  1  0.57304600  0.88256600  0.95877500  1
  C  1326  1  0.60512800  0.85444700  0.03461400  1
  C  1328  1  0.61816400  0.83535800  0.94312200  1
  C  1330  1  0.85497100  0.16706300  0.01357800  1
  C  1331  1  0.87390600  0.15023300  0.99851100  1
  C  1332  1  0.87193900  0.15431500  0.97529900  1
  C  1333  1  0.84973800  0.17584900  0.96652900  1
  C  1334  1  0.83019500  0.19219500  0.98155300  1
  C  1336  1  0.83258900  0.18782300  0.00454500  1
  C  1339  1  0.89461300  0.13707200  0.96085000  1
  C  1343  1  0.86209400  0.16541600  0.03624900  1
  C  1345  1  0.85098800  0.18525700  0.94460300  1
  C  1347  1  0.61323700  0.16607800  0.46523200  1
  C  1348  1  0.59453100  0.14956600  0.48043900  1
  C  1349  1  0.59718100  0.15340300  0.50364500  1
  C  1350  1  0.61988900  0.17429100  0.51224400  1
  C  1351  1  0.63918000  0.19031500  0.49708200  1
  C  1353  1  0.63608700  0.18621500  0.47410300  1
  C  1356  1  0.57473000  0.13661300  0.51830600  1
  C  1360  1  0.60562000  0.16472800  0.44262800  1
  C  1362  1  0.61921700  0.18362800  0.53418800  1
  C  1364  1  0.85344300  0.85214600  0.46524800  1
  C  1365  1  0.87250200  0.86873000  0.48039100  1
  C  1366  1  0.87107300  0.86446000  0.50358100  1
  C  1367  1  0.84931400  0.84298300  0.51221100  1
  C  1368  1  0.82958400  0.82693600  0.49713900  1
  C  1370  1  0.83147800  0.83147300  0.47417900  1
  C  1373  1  0.89382900  0.88141100  0.51813600  1
  C  1377  1  0.86008100  0.85385600  0.44259300  1
  C  1379  1  0.85113600  0.83341400  0.53407300  1
  C  1381  1  0.11950200  0.35112200  0.01231700  1
  C  1382  1  0.10011700  0.36735900  0.99695200  1
  C  1383  1  0.10224200  0.36297500  0.97380800  1
  C  1384  1  0.12510800  0.34179000  0.96550100  1
  C  1385  1  0.14524000  0.32619500  0.98079000  1
  C  1387  1  0.14260700  0.33081000  0.00369200  1
  C  1390  1  0.07904800  0.37944900  0.95898400  1
  C  1394  1  0.11226700  0.35279400  0.03487600  1
  C  1396  1  0.12393200  0.33181600  0.94376800  1
  C  1398  1  0.35263100  0.66592500  0.01349400  1
  C  1399  1  0.37277300  0.65021400  0.99840700  1
  C  1400  1  0.37079900  0.65454800  0.97523100  1
  C  1401  1  0.34732000  0.67511400  0.96658000  1
  C  1402  1  0.32654300  0.69025300  0.98157600  1
  C  1404  1  0.32901600  0.68568600  0.00452000  1
  C  1407  1  0.39473600  0.63870900  0.96074200  1
  C  1411  1  0.35966400  0.66443800  0.03616200  1
  C  1413  1  0.34833700  0.68504200  0.94483300  1
  C  1415  1  0.12041000  0.66816800  0.46495000  1
  C  1416  1  0.10130000  0.65207800  0.48019200  1
  C  1417  1  0.10365700  0.65637500  0.50335000  1
  C  1418  1  0.12649900  0.67727100  0.51176600  1
  C  1419  1  0.14639500  0.69268500  0.49661500  1
  C  1421  1  0.14355600  0.68814500  0.47370400  1
  C  1424  1  0.08078200  0.64011300  0.51807700  1
  C  1428  1  0.11305800  0.66660100  0.44234900  1
  C  1430  1  0.12547100  0.68728800  0.53346200  1
  C  1432  1  0.35107000  0.35304300  0.46535900  1
  C  1433  1  0.37140800  0.36842800  0.48051700  1
  C  1434  1  0.36993400  0.36391000  0.50366800  1
  C  1435  1  0.34678800  0.34349200  0.51218800  1
  C  1436  1  0.32576500  0.32873300  0.49713400  1
  C  1438  1  0.32771100  0.33350300  0.47422400  1
  C  1441  1  0.39399500  0.37938400  0.51827800  1
  C  1445  1  0.35755100  0.35463100  0.44269400  1
  C  1447  1  0.34840300  0.33333333  0.53383800  1
  C  1449  1  0.71467400  0.98312200  0.85418400  1
  C  1450  1  0.74250900  0.99206200  0.86691500  1
  C  1451  1  0.75638100  0.02013100  0.86481500  1
  C  1452  1  0.74183500  0.03996300  0.84939300  1
  C  1453  1  0.71395800  0.03098200  0.83670900  1
  C  1455  1  0.70066800  0.00310800  0.83900500  1
  C  1458  1  0.78529100  0.02824500  0.87903900  1
  C  1462  1  0.70219600  0.95520100  0.85631200  1
  C  1464  1  0.75177000  0.06855700  0.84682700  1
  C  1466  1  0.71577700  0.03484400  0.62335900  1
  C  1467  1  0.74347100  0.02488900  0.61104100  1
  C  1468  1  0.75628900  0.99627900  0.61331300  1
  C  1469  1  0.74068500  0.97707100  0.62842600  1
  C  1470  1  0.71292600  0.98707200  0.64068300  1
  C  1472  1  0.70071300  0.01549100  0.63824900  1
  C  1475  1  0.78521500  0.98704800  0.59959400  1
  C  1479  1  0.70422000  0.06311100  0.62103300  1
  C  1481  1  0.74972200  0.94820200  0.63108100  1
  C  1483  1  0.75316800  0.03771700  0.12323400  1
  C  1484  1  0.72516800  0.02848000  0.11078700  1
  C  1485  1  0.71172800  0.00025400  0.11300300  1
  C  1486  1  0.72686600  0.98051300  0.12826300  1
  C  1487  1  0.75487900  0.98981900  0.14068200  1
  C  1489  1  0.76774000  0.01783300  0.13826800  1
  C  1492  1  0.68261800  0.99190900  0.09904000  1
  C  1496  1  0.76528400  0.06578100  0.12098000  1
  C  1498  1  0.71737800  0.95177700  0.13098200  1
  C  1500  1  0.75228900  0.98256900  0.35540200  1
  C  1501  1  0.72452000  0.99288200  0.36747500  1
  C  1502  1  0.71203000  0.02158100  0.36496400  1
  C  1503  1  0.72806300  0.04056900  0.34987000  1
  C  1504  1  0.75585800  0.03015800  0.33782600  1
  C  1506  1  0.76773400  0.00166600  0.34049100  1
  C  1509  1  0.68298100  0.03111100  0.37845500  1
  C  1513  1  0.76358600  0.95422800  0.35795000  1
  C  1515  1  0.71943200  0.06954300  0.34696000  1
  C  1517  1  0.22461000  0.47943600  0.84781800  1
  C  1518  1  0.25162900  0.48843900  0.86126600  1
  C  1519  1  0.26265600  0.51758400  0.86162100  1
  C  1520  1  0.24634800  0.53834000  0.84774200  1
  C  1521  1  0.21908900  0.52932800  0.83448300  1
  C  1523  1  0.20848000  0.50039900  0.83443200  1
  C  1526  1  0.29082700  0.52567200  0.87649100  1
  C  1530  1  0.21697700  0.45022200  0.84596500  1
  C  1532  1  0.25508700  0.56738200  0.84645500  1
  C  1534  1  0.22676000  0.53834100  0.63005800  1
  C  1535  1  0.25338300  0.52822700  0.61681700  1
  C  1536  1  0.26307300  0.49860100  0.61639100  1
  C  1537  1  0.24568600  0.47858200  0.62993400  1
  C  1538  1  0.21878800  0.48867600  0.64295700  1
  C  1540  1  0.20954500  0.51808700  0.64310300  1
  C  1543  1  0.29103600  0.48931100  0.60185700  1
  C  1547  1  0.22037300  0.56781300  0.63191200  1
  C  1549  1  0.25341000  0.44929500  0.63122100  1
  C  1551  1  0.25535300  0.53634700  0.12414000  1
  C  1552  1  0.22762800  0.52693900  0.11148500  1
  C  1553  1  0.21421700  0.49867500  0.11364300  1
  C  1554  1  0.22908000  0.47899700  0.12906600  1
  C  1555  1  0.25680700  0.48848800  0.14170300  1
  C  1557  1  0.26964600  0.51653300  0.13934200  1
  C  1560  1  0.18542400  0.49023200  0.09943100  1
  C  1564  1  0.26742200  0.56448100  0.12189100  1
  C  1566  1  0.21962200  0.45020300  0.13184800  1
  C  1568  1  0.25447300  0.48393800  0.35459600  1
  C  1569  1  0.22694300  0.49437100  0.36686600  1
  C  1570  1  0.21444000  0.52309400  0.36442700  1
  C  1571  1  0.23015900  0.54206800  0.34917200  1
  C  1572  1  0.25770100  0.53152000  0.33692000  1
  C  1574  1  0.26960100  0.50301000  0.33952200  1
  C  1577  1  0.18568500  0.53265600  0.37817100  1
  C  1581  1  0.26572300  0.45552000  0.35711500  1
  C  1583  1  0.22158500  0.57112100  0.34624400  1
  C  1585  1  0.51900900  0.76938900  0.87079200  1
  C  1586  1  0.51472400  0.74131600  0.87976600  1
  C  1587  1  0.48573000  0.72462500  0.87587000  1
  C  1588  1  0.45950900  0.73640200  0.86242700  1
  C  1589  1  0.46398400  0.76421500  0.85303500  1
  C  1591  1  0.49303500  0.78046400  0.85721700  1
  C  1594  1  0.48391500  0.69521600  0.88599600  1
  C  1598  1  0.54749900  0.78513500  0.87660400  1
  C  1600  1  0.42983200  0.72168100  0.85799300  1
  C  1602  1  0.95078750  0.25013100  0.87169200  1
  C  1603  1  0.95610850  0.27818500  0.88048300  1
  C  1604  1  0.98510150  0.29450500  0.87596200  1
  C  1605  1  0.01024800  0.28235900  0.86205600  1
  C  1606  1  0.00471600  0.25455500  0.85286500  1
  C  1608  1  0.97568350  0.23869400  0.85765100  1
  C  1611  1  0.98804450  0.32393900  0.88593800  1
  C  1615  1  0.92238050  0.23477500  0.87802300  1
  C  1617  1  0.03993800  0.29663200  0.85707500  1
  C  1619  1  0.52168600  0.24968800  0.60755800  1
  C  1620  1  0.51670800  0.27801000  0.59905400  1
  C  1621  1  0.48748300  0.29459400  0.60324800  1
  C  1622  1  0.46184200  0.28242100  0.61651700  1
  C  1623  1  0.46704000  0.25437400  0.62548200  1
  C  1625  1  0.49630300  0.23824700  0.62101600  1
  C  1628  1  0.48478000  0.32425700  0.59356700  1
  C  1632  1  0.55025500  0.23405700  0.60144300  1
  C  1634  1  0.43184900  0.29685600  0.62095800  1
  C  1636  1  0.95241350  0.76795700  0.60699900  1
  C  1637  1  0.95784250  0.73978300  0.59836800  1
  C  1638  1  0.98741550  0.72357000  0.60263000  1
  C  1639  1  0.01294500  0.73597900  0.61610100  1
  C  1640  1  0.00731800  0.76388100  0.62517100  1
  C  1642  1  0.97772350  0.77963700  0.62063200  1
  C  1645  1  0.99059647  0.69402700  0.59281600  1
  C  1649  1  0.92349550  0.78326500  0.60084600  1
  C  1651  1  0.04322800  0.72191500  0.62065200  1
  C  1653  1  0.95101250  0.25046800  0.10759400  1
  C  1654  1  0.95616050  0.27815900  0.09813900  1
  C  1655  1  0.98555550  0.29441200  0.10184900  1
  C  1656  1  0.01136100  0.28259700  0.11561800  1
  C  1657  1  0.00611600  0.25511000  0.12539000  1
  C  1659  1  0.97667650  0.23928700  0.12137600  1
  C  1662  1  0.98816650  0.32348400  0.09126500  1
  C  1666  1  0.92190150  0.23528300  0.10214000  1
  C  1668  1  0.04123800  0.29705400  0.12011100  1
  C  1670  1  0.51931600  0.76878300  0.10730700  1
  C  1671  1  0.51448900  0.74074000  0.09835500  1
  C  1672  1  0.48567500  0.72407400  0.10262500  1
  C  1673  1  0.46019200  0.73582200  0.11645100  1
  C  1674  1  0.46518100  0.76363500  0.12577200  1
  C  1676  1  0.49404200  0.77985700  0.12122100  1
  C  1679  1  0.48328600  0.69467500  0.09251900  1
  C  1683  1  0.54779500  0.78434000  0.10137800  1
  C  1685  1  0.43071300  0.72112000  0.12125100  1
  C  1687  1  0.94840150  0.76863000  0.37050600  1
  C  1688  1  0.95416750  0.74059800  0.37938400  1
  C  1689  1  0.98371950  0.72439800  0.37528700  1
  C  1690  1  0.00895000  0.73664600  0.36171800  1
  C  1691  1  0.00304400  0.76444500  0.35246400  1
  C  1693  1  0.97345850  0.78019700  0.35684400  1
  C  1696  1  0.98715450  0.69498200  0.38531200  1
  C  1700  1  0.91928450  0.78376100  0.37633000  1
  C  1702  1  0.03909100  0.72244600  0.35715100  1
  C  1704  1  0.51762400  0.25108300  0.36980300  1
  C  1705  1  0.51269900  0.27918100  0.37871100  1
  C  1706  1  0.48329300  0.29576600  0.37479500  1
  C  1707  1  0.45738100  0.28385000  0.36138300  1
  C  1708  1  0.46246400  0.25600600  0.35207000  1
  C  1710  1  0.49191100  0.23986800  0.35626900  1
  C  1713  1  0.48071700  0.32520800  0.38484800  1
  C  1717  1  0.54669000  0.23558700  0.37539900  1
  C  1719  1  0.42730800  0.29839600  0.35704700  1
  C  1721  1  0.72952800  0.85758600  0.76335500  1
  C  1722  1  0.75614500  0.87471100  0.75549200  1
  C  1723  1  0.76520900  0.87571700  0.73292300  1
  C  1724  1  0.74786200  0.85801100  0.71737700  1
  C  1725  1  0.72123700  0.84082300  0.72521800  1
  C  1727  1  0.71223300  0.84056600  0.74772200  1
  C  1730  1  0.79148300  0.89656200  0.72610900  1
  C  1734  1  0.72064500  0.86008000  0.78560100  1
  C  1736  1  0.75117900  0.86194400  0.69461400  1
  C  1738  1  0.73723300  0.15987700  0.76496700  1
  C  1739  1  0.71212200  0.14222900  0.75552300  1
  C  1740  1  0.69949000  0.14645500  0.73381900  1
  C  1741  1  0.71245000  0.16938000  0.72062300  1
  C  1742  1  0.73769700  0.18699300  0.73005700  1
  C  1744  1  0.75005500  0.18224700  0.75167900  1
  C  1747  1  0.67240000  0.12696500  0.72589400  1
  C  1751  1  0.74720500  0.15447900  0.78680500  1
  C  1753  1  0.70055900  0.17590800  0.69929100  1
  C  1755  1  0.73884500  0.16160000  0.21466500  1
  C  1756  1  0.71213800  0.14439300  0.22230400  1
  C  1757  1  0.70303600  0.14293200  0.24485700  1
  C  1758  1  0.72044600  0.16023700  0.26063000  1
  C  1759  1  0.74714500  0.17751400  0.25301100  1
  C  1761  1  0.75616300  0.17824800  0.23051800  1
  C  1764  1  0.67662000  0.12208600  0.25142000  1
  C  1768  1  0.74775500  0.15959400  0.19238800  1
  C  1770  1  0.71705100  0.15592200  0.28335400  1
  C  1772  1  0.73077000  0.86020300  0.21324500  1
  C  1773  1  0.75558100  0.87789200  0.22298100  1
  C  1774  1  0.76830900  0.87318000  0.24460300  1
  C  1775  1  0.75575900  0.84969500  0.25740600  1
  C  1776  1  0.73073800  0.83209100  0.24769500  1
  C  1778  1  0.71829900  0.83730600  0.22615500  1
  C  1781  1  0.79512600  0.89274400  0.25282600  1
  C  1785  1  0.72102500  0.86586600  0.19140800  1
  C  1787  1  0.76784800  0.84262600  0.27859400  1
  C  1789  1  0.23252300  0.35834200  0.76436500  1
  C  1790  1  0.25947900  0.37502500  0.75643900  1
  C  1791  1  0.26841500  0.37591300  0.73384000  1
  C  1792  1  0.25051700  0.35854900  0.71834300  1
  C  1793  1  0.22366500  0.34170700  0.72624400  1
  C  1795  1  0.21483300  0.34155800  0.74877000  1
  C  1798  1  0.29508300  0.39633500  0.72694800  1
  C  1802  1  0.22348500  0.36117300  0.78657300  1
  C  1804  1  0.25365700  0.36255400  0.69558500  1
  C  1806  1  0.24000800  0.65933900  0.76404200  1
  C  1807  1  0.21526700  0.64146000  0.75444300  1
  C  1808  1  0.20280100  0.64566500  0.73270200  1
  C  1809  1  0.21558000  0.66880900  0.71963300  1
  C  1810  1  0.24058500  0.68656000  0.72920100  1
  C  1812  1  0.25276600  0.68184200  0.75086400  1
  C  1815  1  0.17600600  0.62593800  0.72467000  1
  C  1819  1  0.24961100  0.65408000  0.78595100  1
  C  1821  1  0.20361800  0.67555800  0.69835700  1
  C  1823  1  0.24137500  0.66140000  0.21470800  1
  C  1824  1  0.21510100  0.64390300  0.22258500  1
  C  1825  1  0.20602100  0.64291500  0.24514400  1
  C  1826  1  0.22304500  0.66097500  0.26059900  1
  C  1827  1  0.24931500  0.67853900  0.25275300  1
  C  1829  1  0.25830300  0.67881400  0.23025700  1
  C  1832  1  0.18007800  0.62180200  0.25203400  1
  C  1836  1  0.25021800  0.65912800  0.19246900  1
  C  1838  1  0.21957800  0.65730400  0.28334900  1
  C  1840  1  0.23378700  0.35871900  0.21304300  1
  C  1841  1  0.25894600  0.37642100  0.22234900  1
  C  1842  1  0.27165700  0.37231200  0.24403500  1
  C  1843  1  0.25872800  0.34945200  0.25731000  1
  C  1844  1  0.23341400  0.33179800  0.24801300  1
  C  1846  1  0.22097900  0.33642800  0.22640800  1
  C  1849  1  0.29876700  0.39186100  0.25185400  1
  C  1853  1  0.22376700  0.36392100  0.19122500  1
  C  1855  1  0.27056800  0.34312200  0.27866000  1
  N  21  1  0.96504400  0.94184100  0.83943800  1
  N  22  1  0.96492700  0.86213800  0.79244800  1
  N  23  1  0.89628900  0.85217500  0.92626000  1
  N  24  1  0.83089400  0.80987400  0.86853400  1
  N  45  1  0.05696300  0.07587100  0.84309100  1
  N  46  1  0.05224000  0.15577600  0.79437400  1
  N  47  1  0.12235300  0.16848700  0.92768700  1
  N  48  1  0.18752400  0.21025900  0.86998300  1
  N  69  1  0.96972300  0.07745900  0.63812100  1
  N  70  1  0.97085000  0.15577600  0.68497200  1
  N  71  1  0.89844200  0.16686500  0.55104000  1
  N  72  1  0.83392800  0.20900600  0.60908700  1
  N  93  1  0.05460700  0.94025100  0.63572000  1
  N  94  1  0.05427700  0.86053900  0.68450600  1
  N  95  1  0.12204600  0.85001400  0.55103400  1
  N  96  1  0.18888600  0.80803400  0.60870600  1
  N  117  1  0.05267800  0.07902100  0.13767700  1
  N  118  1  0.05303300  0.15772900  0.18556700  1
  N  119  1  0.11768500  0.17484600  0.05182100  1
  N  120  1  0.18814500  0.21012900  0.10953000  1
  N  141  1  0.96173200  0.94396000  0.13420900  1
  N  142  1  0.96563600  0.86454400  0.18362600  1
  N  143  1  0.89935900  0.84579600  0.05044800  1
  N  144  1  0.83035400  0.80994400  0.10823300  1
  N  165  1  0.04755000  0.93966200  0.34096200  1
  N  166  1  0.04704200  0.86236300  0.29323100  1
  N  167  1  0.11552900  0.84434800  0.42706500  1
  N  168  1  0.18494400  0.80900100  0.36910700  1
  N  189  1  0.96402600  0.07800000  0.34300000  1
  N  190  1  0.96350900  0.15719700  0.29351600  1
  N  191  1  0.89933000  0.17388700  0.42696400  1
  N  192  1  0.82867500  0.20953300  0.36912600  1
  N  213  1  0.46189700  0.44112300  0.84211200  1
  N  214  1  0.46771300  0.36176500  0.79345000  1
  N  215  1  0.40167200  0.34826000  0.92668600  1
  N  216  1  0.33261100  0.30724400  0.87269300  1
  N  237  1  0.55979400  0.57548600  0.84205800  1
  N  238  1  0.55452300  0.65553200  0.79369200  1
  N  239  1  0.62035900  0.66850900  0.92774800  1
  N  240  1  0.68785700  0.71071600  0.87389100  1
  N  261  1  0.46563100  0.57806500  0.63548300  1
  N  262  1  0.47302000  0.65554400  0.68408200  1
  N  263  1  0.40407400  0.67088800  0.55054500  1
  N  264  1  0.33549000  0.71187100  0.60468400  1
  N  285  1  0.55763900  0.44046300  0.63673000  1
  N  286  1  0.55653200  0.36072800  0.68525500  1
  N  287  1  0.61993700  0.34957500  0.55100900  1
  N  288  1  0.68928300  0.30747200  0.60495600  1
  N  309  1  0.55548800  0.57766300  0.13840000  1
  N  310  1  0.55553300  0.65685300  0.18585500  1
  N  311  1  0.61536600  0.67455700  0.05153900  1
  N  312  1  0.68777700  0.71049100  0.10552400  1
  N  333  1  0.46390700  0.44194000  0.13416300  1
  N  334  1  0.46814800  0.36288900  0.18384500  1
  N  335  1  0.40577300  0.34242800  0.05048300  1
  N  336  1  0.33333333  0.30752500  0.10427200  1
  N  357  1  0.55059000  0.44105500  0.34028900  1
  N  358  1  0.54968700  0.36345800  0.29281100  1
  N  359  1  0.61315800  0.34438600  0.42736100  1
  N  360  1  0.68488300  0.30860800  0.37311400  1
  N  381  1  0.46607000  0.58008800  0.34334700  1
  N  382  1  0.46592800  0.65869500  0.29334800  1
  N  383  1  0.40589600  0.67769300  0.42698400  1
  N  384  1  0.33175700  0.71231100  0.37306500  1
  N  949  1  0.69028600  0.94184100  0.83943800  1
  N  950  1  0.69016900  0.86213800  0.79244800  1
  N  951  1  0.62153100  0.85217500  0.92626000  1
  N  952  1  0.55613600  0.80987400  0.86853400  1
  N  973  1  0.78220500  0.07587100  0.84309100  1
  N  974  1  0.77748200  0.15577600  0.79437400  1
  N  975  1  0.84759500  0.16848700  0.92768700  1
  N  976  1  0.91276650  0.21025900  0.86998300  1
  N  997  1  0.69496500  0.07745900  0.63812100  1
  N  998  1  0.69609200  0.15577600  0.68497200  1
  N  999  1  0.62368400  0.16686500  0.55104000  1
  N  1000  1  0.55917000  0.20900600  0.60908700  1
  N  1021  1  0.77984900  0.94025100  0.63572000  1
  N  1022  1  0.77951900  0.86053900  0.68450600  1
  N  1023  1  0.84728800  0.85001400  0.55103400  1
  N  1024  1  0.91412850  0.80803400  0.60870600  1
  N  1045  1  0.77792000  0.07902100  0.13767700  1
  N  1046  1  0.77827500  0.15772900  0.18556700  1
  N  1047  1  0.84292700  0.17484600  0.05182100  1
  N  1048  1  0.91338750  0.21012900  0.10953000  1
  N  1069  1  0.68697400  0.94396000  0.13420900  1
  N  1070  1  0.69087800  0.86454400  0.18362600  1
  N  1071  1  0.62460100  0.84579600  0.05044800  1
  N  1072  1  0.55559600  0.80994400  0.10823300  1
  N  1093  1  0.77279200  0.93966200  0.34096200  1
  N  1094  1  0.77228400  0.86236300  0.29323100  1
  N  1095  1  0.84077100  0.84434800  0.42706500  1
  N  1096  1  0.91018650  0.80900100  0.36910700  1
  N  1117  1  0.68926800  0.07800000  0.34300000  1
  N  1118  1  0.68875100  0.15719700  0.29351600  1
  N  1119  1  0.62457200  0.17388700  0.42696400  1
  N  1120  1  0.55391700  0.20953300  0.36912600  1
  N  1141  1  0.18713900  0.44112300  0.84211200  1
  N  1142  1  0.19295500  0.36176500  0.79345000  1
  N  1143  1  0.12691400  0.34826000  0.92668600  1
  N  1144  1  0.05785300  0.30724400  0.87269300  1
  N  1165  1  0.28503600  0.57548600  0.84205800  1
  N  1166  1  0.27976500  0.65553200  0.79369200  1
  N  1167  1  0.34560100  0.66850900  0.92774800  1
  N  1168  1  0.41309900  0.71071600  0.87389100  1
  N  1189  1  0.19087300  0.57806500  0.63548300  1
  N  1190  1  0.19826200  0.65554400  0.68408200  1
  N  1191  1  0.12931600  0.67088800  0.55054500  1
  N  1192  1  0.06073200  0.71187100  0.60468400  1
  N  1213  1  0.28288100  0.44046300  0.63673000  1
  N  1214  1  0.28177400  0.36072800  0.68525500  1
  N  1215  1  0.34517900  0.34957500  0.55100900  1
  N  1216  1  0.41452500  0.30747200  0.60495600  1
  N  1237  1  0.28073000  0.57766300  0.13840000  1
  N  1238  1  0.28077500  0.65685300  0.18585500  1
  N  1239  1  0.34060800  0.67455700  0.05153900  1
  N  1240  1  0.41301900  0.71049100  0.10552400  1
  N  1261  1  0.18914900  0.44194000  0.13416300  1
  N  1262  1  0.19339000  0.36288900  0.18384500  1
  N  1263  1  0.13101500  0.34242800  0.05048300  1
  N  1264  1  0.05852400  0.30752500  0.10427200  1
  N  1285  1  0.27583200  0.44105500  0.34028900  1
  N  1286  1  0.27492900  0.36345800  0.29281100  1
  N  1287  1  0.33840000  0.34438600  0.42736100  1
  N  1288  1  0.41012500  0.30860800  0.37311400  1
  N  1309  1  0.19131200  0.58008800  0.34334700  1
  N  1310  1  0.19117000  0.65869500  0.29334800  1
  N  1311  1  0.13113800  0.67769300  0.42698400  1
  N  1312  1  0.05699900  0.71231100  0.37306500  1
  O  17  1  0.94170300  0.87202700  0.89540000  1
  O  18  1  0.93015600  0.82822800  0.82429600  1
  O  41  1  0.07785200  0.14705700  0.89657900  1
  O  42  1  0.08706600  0.19002600  0.82586000  1
  O  65  1  0.94535200  0.14731700  0.58174200  1
  O  66  1  0.93538600  0.19172100  0.65284100  1
  O  89  1  0.07672100  0.87006500  0.58199700  1
  O  90  1  0.08882700  0.82647600  0.65291900  1
  O  113  1  0.07390300  0.15244400  0.08297500  1
  O  114  1  0.08857500  0.19209000  0.15426900  1
  O  137  1  0.94234900  0.86989700  0.08166300  1
  O  138  1  0.93032200  0.83026600  0.15252100  1
  O  161  1  0.07018200  0.86633100  0.39605000  1
  O  162  1  0.08343300  0.82606300  0.32472100  1
  O  185  1  0.94329700  0.15122100  0.39584500  1
  O  186  1  0.92839200  0.19125900  0.32473600  1
  O  209  1  0.44497500  0.36926500  0.89510900  1
  O  210  1  0.43313700  0.32661000  0.82443800  1
  O  233  1  0.57734300  0.64661000  0.89594600  1
  O  234  1  0.58810500  0.69018200  0.82544300  1
  O  257  1  0.44867600  0.65005400  0.58207000  1
  O  258  1  0.43838500  0.69323800  0.65268300  1
  O  281  1  0.57610600  0.37013100  0.58266600  1
  O  282  1  0.58975800  0.32612600  0.65343400  1
  O  305  1  0.57360400  0.65073900  0.08336900  1
  O  306  1  0.58952100  0.69144300  0.15419600  1
  O  329  1  0.44717700  0.36729500  0.08233900  1
  O  330  1  0.43323400  0.32807600  0.15292900  1
  O  353  1  0.56982000  0.36789800  0.39564400  1
  O  354  1  0.58432200  0.32673300  0.32475200  1
  O  377  1  0.44821000  0.65412100  0.39522600  1
  O  378  1  0.43136100  0.69350800  0.32431000  1
  O  945  1  0.66694500  0.87202700  0.89540000  1
  O  946  1  0.65539800  0.82822800  0.82429600  1
  O  969  1  0.80309400  0.14705700  0.89657900  1
  O  970  1  0.81230800  0.19002600  0.82586000  1
  O  993  1  0.67059400  0.14731700  0.58174200  1
  O  994  1  0.66062800  0.19172100  0.65284100  1
  O  1017  1  0.80196300  0.87006500  0.58199700  1
  O  1018  1  0.81406900  0.82647600  0.65291900  1
  O  1041  1  0.79914500  0.15244400  0.08297500  1
  O  1042  1  0.81381700  0.19209000  0.15426900  1
  O  1065  1  0.66759100  0.86989700  0.08166300  1
  O  1066  1  0.65556400  0.83026600  0.15252100  1
  O  1089  1  0.79542400  0.86633100  0.39605000  1
  O  1090  1  0.80867500  0.82606300  0.32472100  1
  O  1113  1  0.66853900  0.15122100  0.39584500  1
  O  1114  1  0.65363400  0.19125900  0.32473600  1
  O  1137  1  0.17021700  0.36926500  0.89510900  1
  O  1138  1  0.15837900  0.32661000  0.82443800  1
  O  1161  1  0.30258500  0.64661000  0.89594600  1
  O  1162  1  0.31334700  0.69018200  0.82544300  1
  O  1185  1  0.17391800  0.65005400  0.58207000  1
  O  1186  1  0.16362700  0.69323800  0.65268300  1
  O  1209  1  0.30134800  0.37013100  0.58266600  1
  O  1210  1  0.31500000  0.32612600  0.65343400  1
  O  1233  1  0.29884600  0.65073900  0.08336900  1
  O  1234  1  0.31476300  0.69144300  0.15419600  1
  O  1257  1  0.17241900  0.36729500  0.08233900  1
  O  1258  1  0.15847600  0.32807600  0.15292900  1
  O  1281  1  0.29506200  0.36789800  0.39564400  1
  O  1282  1  0.30956400  0.32673300  0.32475200  1
  O  1305  1  0.17345200  0.65412100  0.39522600  1
  O  1306  1  0.15660300  0.69350800  0.32431000  1
