# generated using pymatgen
data_H12C17(NO2)2
_symmetry_space_group_name_H-M   'P 1'
_cell_length_a   39.98510000
_cell_length_b   42.91600000
_cell_length_c   42.91600000
_cell_angle_alpha   90.00000000
_cell_angle_beta   90.00000000
_cell_angle_gamma   90.00000000
_symmetry_Int_Tables_number   1
_chemical_formula_structural   H12C17(NO2)2
_chemical_formula_sum   'H384 C544 N64 O128'
_cell_volume   73643.87967247
_cell_formula_units_Z   32
loop_
 _symmetry_equiv_pos_site_id
 _symmetry_equiv_pos_as_xyz
  1  'x, y, z'
loop_
 _atom_site_type_symbol
 _atom_site_label
 _atom_site_symmetry_multiplicity
 _atom_site_fract_x
 _atom_site_fract_y
 _atom_site_fract_z
 _atom_site_occupancy
  H  5  1  0.86178300  0.17101100  0.44219600  1
  H  6  1  0.87914700  0.19950300  0.41744100  1
  H  9  1  0.92250300  0.18490800  0.37602000  1
  H  10  1  0.93600500  0.14593700  0.37296600  1
  H  11  1  0.86270100  0.20007900  0.36046000  1
  H  12  1  0.83603100  0.17142000  0.34473100  1
  H  15  1  0.89496800  0.10347300  0.35095500  1
  H  16  1  0.85507000  0.11535500  0.33897800  1
  H  18  1  0.91217900  0.10411400  0.40846700  1
  H  19  1  0.88198300  0.11344400  0.43689500  1
  H  21  1  0.81065600  0.12896300  0.38237200  1
  H  22  1  0.82251100  0.12885300  0.42169300  1
  H  27  1  0.36177900  0.32783600  0.52833200  1
  H  28  1  0.37914600  0.29934500  0.55308900  1
  H  31  1  0.42250000  0.31394800  0.59451000  1
  H  32  1  0.43600000  0.35291900  0.59756000  1
  H  33  1  0.36270000  0.29877400  0.61007000  1
  H  34  1  0.33602700  0.32743200  0.62579400  1
  H  37  1  0.39495900  0.39538100  0.61956600  1
  H  38  1  0.35506200  0.38350000  0.63154300  1
  H  40  1  0.41217100  0.39473800  0.56205300  1
  H  41  1  0.38197700  0.38540400  0.53362800  1
  H  43  1  0.31064800  0.36988500  0.58815100  1
  H  44  1  0.32250200  0.36999200  0.54883000  1
  H  49  1  0.11280100  0.79191400  0.90671300  1
  H  50  1  0.12967500  0.81536200  0.93654500  1
  H  53  1  0.17196500  0.85816200  0.92455700  1
  H  54  1  0.18626000  0.86302500  0.88605600  1
  H  55  1  0.11255500  0.87268300  0.94008500  1
  H  56  1  0.08557200  0.88920200  0.91216500  1
  H  59  1  0.14449800  0.88664800  0.84433500  1
  H  60  1  0.10386900  0.89688200  0.85629100  1
  H  62  1  0.16320900  0.83045000  0.84162700  1
  H  63  1  0.13481000  0.80041400  0.84897400  1
  H  65  1  0.06123400  0.85363900  0.86731000  1
  H  66  1  0.07268000  0.81421300  0.86678100  1
  H  71  1  0.61279800  0.70693200  0.06379900  1
  H  72  1  0.62967400  0.68348400  0.03396600  1
  H  75  1  0.67196500  0.64068400  0.04595600  1
  H  76  1  0.68625800  0.63582100  0.08445500  1
  H  77  1  0.61255500  0.62616200  0.03042400  1
  H  78  1  0.58557000  0.60964200  0.05834300  1
  H  81  1  0.64449500  0.61219800  0.12617500  1
  H  82  1  0.60386700  0.60196200  0.11421900  1
  H  84  1  0.66320400  0.66839600  0.12888500  1
  H  85  1  0.63480600  0.69842900  0.12153700  1
  H  87  1  0.56123100  0.64520400  0.10319800  1
  H  88  1  0.57267500  0.68463000  0.10372700  1
  H  93  1  0.62899900  0.31907900  0.43466300  1
  H  94  1  0.61212500  0.29275100  0.40737500  1
  H  97  1  0.57224500  0.31036700  0.36458900  1
  H  98  1  0.55946800  0.34940300  0.36293200  1
  H  99  1  0.63198000  0.29570100  0.34947100  1
  H  100  1  0.66148100  0.32426600  0.33876400  1
  H  103  1  0.60277700  0.39293200  0.34693100  1
  H  104  1  0.64288900  0.38121200  0.33542000  1
  H  106  1  0.58432200  0.38957700  0.40340600  1
  H  107  1  0.61146500  0.37560300  0.43258200  1
  H  109  1  0.68477000  0.36213700  0.37866500  1
  H  110  1  0.67158700  0.36061800  0.41780200  1
  H  115  1  0.12900100  0.17976500  0.53586500  1
  H  116  1  0.11212900  0.20609000  0.56315600  1
  H  119  1  0.07224900  0.18847200  0.60594100  1
  H  120  1  0.05947200  0.14943300  0.60759600  1
  H  121  1  0.13198300  0.20313600  0.62105900  1
  H  122  1  0.16148500  0.17457200  0.63176200  1
  H  125  1  0.10278200  0.10590400  0.62359200  1
  H  126  1  0.14289300  0.11762500  0.63510300  1
  H  128  1  0.08432500  0.10926600  0.56711700  1
  H  129  1  0.11146900  0.12324100  0.53794100  1
  H  131  1  0.18477400  0.13670200  0.59185800  1
  H  132  1  0.17159000  0.13822500  0.55272100  1
  H  137  1  0.38003100  0.70273700  0.90715100  1
  H  138  1  0.36259500  0.67991800  0.93670100  1
  H  141  1  0.32187200  0.63337900  0.92200300  1
  H  142  1  0.31066300  0.62895900  0.88275400  1
  H  143  1  0.38000100  0.61995000  0.94099300  1
  H  144  1  0.41097500  0.60615600  0.91530100  1
  H  147  1  0.35656300  0.60693900  0.84362400  1
  H  148  1  0.39649500  0.59745500  0.85804300  1
  H  150  1  0.33746500  0.66231700  0.83996100  1
  H  151  1  0.36350000  0.69359400  0.85082900  1
  H  153  1  0.43654700  0.64095600  0.87368300  1
  H  154  1  0.42461500  0.68038700  0.87152800  1
  H  159  1  0.88003200  0.79610400  0.06336000  1
  H  160  1  0.86259600  0.81892000  0.03381100  1
  H  163  1  0.82187300  0.86545800  0.04850800  1
  H  164  1  0.81066600  0.86988300  0.08775800  1
  H  165  1  0.88000200  0.87889100  0.02951600  1
  H  166  1  0.91097600  0.89268500  0.05520700  1
  H  169  1  0.85656300  0.89190500  0.12688500  1
  H  170  1  0.89649600  0.90138800  0.11246400  1
  H  172  1  0.83746900  0.83652400  0.13055000  1
  H  173  1  0.86350300  0.80524900  0.11968300  1
  H  175  1  0.93655100  0.85788700  0.09682500  1
  H  176  1  0.92461900  0.81845600  0.09898100  1
  H  181  1  0.13610600  0.83073200  0.52959700  1
  H  182  1  0.11887400  0.80138400  0.55336200  1
  H  185  1  0.07720400  0.81438600  0.59657700  1
  H  186  1  0.06390300  0.85317100  0.60151900  1
  H  187  1  0.13646200  0.79769000  0.61060400  1
  H  188  1  0.16428800  0.82512300  0.62667700  1
  H  191  1  0.10695200  0.89400600  0.62446600  1
  H  192  1  0.14737900  0.88107200  0.63440400  1
  H  194  1  0.08773000  0.89708400  0.56835900  1
  H  195  1  0.11581300  0.88899700  0.53822300  1
  H  197  1  0.18929900  0.86951700  0.59063700  1
  H  198  1  0.17718300  0.87026000  0.55138800  1
  H  203  1  0.63611100  0.66811400  0.44090500  1
  H  204  1  0.61888000  0.69745700  0.41713600  1
  H  207  1  0.57721200  0.68444600  0.37391900  1
  H  208  1  0.56391500  0.64565900  0.36898100  1
  H  209  1  0.63646900  0.70114400  0.35989600  1
  H  210  1  0.66429900  0.67371300  0.34382700  1
  H  213  1  0.60697100  0.60482300  0.34604300  1
  H  214  1  0.64739800  0.61776000  0.33610800  1
  H  216  1  0.58774300  0.60175000  0.40215000  1
  H  217  1  0.61582400  0.60984400  0.43228600  1
  H  219  1  0.68931400  0.62932400  0.37987400  1
  H  220  1  0.67719400  0.62858600  0.41912300  1
  H  225  1  0.88611200  0.20333200  0.06533500  1
  H  226  1  0.86740500  0.17783900  0.03837100  1
  H  229  1  0.82438100  0.13747000  0.05590200  1
  H  230  1  0.81320500  0.13439900  0.09551900  1
  H  231  1  0.88439400  0.12056500  0.03826200  1
  H  232  1  0.91157100  0.10510200  0.06633000  1
  H  235  1  0.85540800  0.11533100  0.13551300  1
  H  236  1  0.89576300  0.10325900  0.12310600  1
  H  238  1  0.83893700  0.17190000  0.13581700  1
  H  239  1  0.86765500  0.20040300  0.12414700  1
  H  241  1  0.93884900  0.14440500  0.10757900  1
  H  242  1  0.92783200  0.18393500  0.10562800  1
  H  247  1  0.38610900  0.29551200  0.90518200  1
  H  248  1  0.36739900  0.32100400  0.93214600  1
  H  251  1  0.32437800  0.36137300  0.91461400  1
  H  252  1  0.31320100  0.36444400  0.87499500  1
  H  253  1  0.38438500  0.37827800  0.93225800  1
  H  254  1  0.41156500  0.39374300  0.90419400  1
  H  257  1  0.35541000  0.38351600  0.83500500  1
  H  258  1  0.39576200  0.39558900  0.84741500  1
  H  260  1  0.33894100  0.32694500  0.83469800  1
  H  261  1  0.36765900  0.29844300  0.84636900  1
  H  263  1  0.43884800  0.35444300  0.86294600  1
  H  264  1  0.42783400  0.31491300  0.86489400  1
  H  269  1  0.36767400  0.67076800  0.53241400  1
  H  270  1  0.38641400  0.70013900  0.55461100  1
  H  273  1  0.42841900  0.68508200  0.59980200  1
  H  274  1  0.43886600  0.64569100  0.60452900  1
  H  275  1  0.37107000  0.70544300  0.61473800  1
  H  276  1  0.34001900  0.68051700  0.62966700  1
  H  279  1  0.39260300  0.60780600  0.62829000  1
  H  280  1  0.35343400  0.62346900  0.63873600  1
  H  282  1  0.40988200  0.60295700  0.57252300  1
  H  283  1  0.38299700  0.61388700  0.54191200  1
  H  285  1  0.31232400  0.63884500  0.59604100  1
  H  286  1  0.32320800  0.63574600  0.55638000  1
  H  291  1  0.86767300  0.82807300  0.43808600  1
  H  292  1  0.88641200  0.79870900  0.41588200  1
  H  295  1  0.92841500  0.81377500  0.37068900  1
  H  296  1  0.93885600  0.85316800  0.36596800  1
  H  297  1  0.87106600  0.79341200  0.35575800  1
  H  298  1  0.84001500  0.81833800  0.34083100  1
  H  301  1  0.89258900  0.89105200  0.34221900  1
  H  302  1  0.85342000  0.87538900  0.33177300  1
  H  304  1  0.90987100  0.89589600  0.39798400  1
  H  305  1  0.88299100  0.88495600  0.42859500  1
  H  307  1  0.81231200  0.86000000  0.37446900  1
  H  308  1  0.82320400  0.86309700  0.41413000  1
  H  313  1  0.61737900  0.30151400  0.05672300  1
  H  314  1  0.63644900  0.32760500  0.03054900  1
  H  317  1  0.67822700  0.36835700  0.04901300  1
  H  318  1  0.68880900  0.37146500  0.08858100  1
  H  319  1  0.61829500  0.38640100  0.03131800  1
  H  320  1  0.58931200  0.39919400  0.05910000  1
  H  323  1  0.64528700  0.38853800  0.12873200  1
  H  324  1  0.60515700  0.40077300  0.11582200  1
  H  326  1  0.66079800  0.33175300  0.12896000  1
  H  327  1  0.63364800  0.30329200  0.11420500  1
  H  329  1  0.56296200  0.36035700  0.09767700  1
  H  330  1  0.57397600  0.32060100  0.09607400  1
  H  335  1  0.11738100  0.19732500  0.91379800  1
  H  336  1  0.13645500  0.17123600  0.93997300  1
  H  339  1  0.17823400  0.13048700  0.92150900  1
  H  340  1  0.18881400  0.12737700  0.88194100  1
  H  341  1  0.11830400  0.11243800  0.93920600  1
  H  342  1  0.08932000  0.09964500  0.91142600  1
  H  345  1  0.14529300  0.11030000  0.84179300  1
  H  346  1  0.10516300  0.09806400  0.85470400  1
  H  348  1  0.16080000  0.16708700  0.84156200  1
  H  349  1  0.13364800  0.19554700  0.85631600  1
  H  351  1  0.06296600  0.13847700  0.87284900  1
  H  352  1  0.07397700  0.17823600  0.87445000  1
  H  359  1  0.82824800  0.21430500  0.44178100  1
  H  366  1  0.64760300  0.25894100  0.38579100  1
  H  367  1  0.71986800  0.32745600  0.40675200  1
  H  368  1  0.78207300  0.17339300  0.36338600  1
  H  373  1  0.69318500  0.19694800  0.43602400  1
  H  376  1  0.75936500  0.25842100  0.49292500  1
  H  383  1  0.32824200  0.28454600  0.52874200  1
  H  390  1  0.14760400  0.23989900  0.58474400  1
  H  391  1  0.21986900  0.17138800  0.56376800  1
  H  392  1  0.28207000  0.32545400  0.60713900  1
  H  397  1  0.19317800  0.30189700  0.53450400  1
  H  400  1  0.25935600  0.24043500  0.47759500  1
  H  407  1  0.07951900  0.79119900  0.95151600  1
  H  414  1  0.89608100  0.83905700  0.99607800  1
  H  415  1  0.97092600  0.82698700  0.06432400  1
  H  416  1  0.03138300  0.86921800  0.91197600  1
  H  421  1  0.94542400  0.78902900  0.93539200  1
  H  424  1  0.01157800  0.73758700  0.99491500  1
  H  431  1  0.57951800  0.70764700  0.01899200  1
  H  438  1  0.39608200  0.65978100  0.97443100  1
  H  439  1  0.47092300  0.67186100  0.90618400  1
  H  440  1  0.53138300  0.62962500  0.05852900  1
  H  445  1  0.44542100  0.70981400  0.03511600  1
  H  448  1  0.51157800  0.76125900  0.97559600  1
  H  455  1  0.16885900  0.78453200  0.52969300  1
  H  462  1  0.35314100  0.73884100  0.57529600  1
  H  463  1  0.27768300  0.67098000  0.56515500  1
  H  464  1  0.21845100  0.82489000  0.60637700  1
  H  469  1  0.30325800  0.79945900  0.52622300  1
  H  472  1  0.23538100  0.73910200  0.47635800  1
  H  479  1  0.66886600  0.71430400  0.44081700  1
  H  486  1  0.85314200  0.76000700  0.39519500  1
  H  487  1  0.77768400  0.82786100  0.40536800  1
  H  488  1  0.71846000  0.67395300  0.36412700  1
  H  493  1  0.80327600  0.69938200  0.44427900  1
  H  496  1  0.73539100  0.75972300  0.49415800  1
  H  503  1  0.91835100  0.20065500  0.02023500  1
  H  510  1  0.10122100  0.14958100  0.97565700  1
  H  511  1  0.02723200  0.16515600  0.90740900  1
  H  512  1  0.96598400  0.12411800  0.06287400  1
  H  517  1  0.05344900  0.19799800  0.03713500  1
  H  520  1  0.98582100  0.25149300  0.97425400  1
  H  527  1  0.41834600  0.29818700  0.95028600  1
  H  534  1  0.60121600  0.34925900  0.99486800  1
  H  535  1  0.52722800  0.33367700  0.06311700  1
  H  536  1  0.46597800  0.37472900  0.90765400  1
  H  541  1  0.55344100  0.30084600  0.93338800  1
  H  544  1  0.48581300  0.24734600  0.99626200  1
  H  551  1  0.30673200  0.68386300  0.94351700  1
  H  558  1  0.15030800  0.76048000  0.88002800  1
  H  559  1  0.21922600  0.82627900  0.91507500  1
  H  560  1  0.30547600  0.70620000  0.84765100  1
  H  565  1  0.18616100  0.69190200  0.91954000  1
  H  568  1  0.21814900  0.71787600  0.98232500  1
  H  575  1  0.80673200  0.81497500  0.02699700  1
  H  582  1  0.65030700  0.73836500  0.09048700  1
  H  583  1  0.71922500  0.67256500  0.05543800  1
  H  584  1  0.80548200  0.79263900  0.12286200  1
  H  589  1  0.68616000  0.80694300  0.05097700  1
  H  592  1  0.71814700  0.78096900  0.98819300  1
  H  599  1  0.57795500  0.29351500  0.44953100  1
  H  606  1  0.39732800  0.35057100  0.49485700  1
  H  607  1  0.47014700  0.32630200  0.56177800  1
  H  608  1  0.53101700  0.37056800  0.40688300  1
  H  613  1  0.44068100  0.30131200  0.43103900  1
  H  616  1  0.50915200  0.24216600  0.49354500  1
  H  623  1  0.07795900  0.20533000  0.52099900  1
  H  630  1  0.89733400  0.14827400  0.47566800  1
  H  631  1  0.97015100  0.17255100  0.40874900  1
  H  632  1  0.03102200  0.12827300  0.56364300  1
  H  637  1  0.94068200  0.19752900  0.53949300  1
  H  640  1  0.00915400  0.25668300  0.47698700  1
  H  647  1  0.66854400  0.28282900  0.03456300  1
  H  654  1  0.85054600  0.23795300  0.08805400  1
  H  655  1  0.77711900  0.16980900  0.07014700  1
  H  656  1  0.71536100  0.32669800  0.11079400  1
  H  661  1  0.80392100  0.30001100  0.04035800  1
  H  664  1  0.73572300  0.23617800  0.98510500  1
  H  671  1  0.16854700  0.21601000  0.93596000  1
  H  678  1  0.35054800  0.26089100  0.88245800  1
  H  679  1  0.27711800  0.32903300  0.90037500  1
  H  680  1  0.21536300  0.17214200  0.85972500  1
  H  685  1  0.30392800  0.19883200  0.93016100  1
  H  688  1  0.23572900  0.26266200  0.98541700  1
  H  695  1  0.44245900  0.70542600  0.54788400  1
  H  702  1  0.59818200  0.64041600  0.47214300  1
  H  703  1  0.52973700  0.67424900  0.40545500  1
  H  704  1  0.44106900  0.60915000  0.52797100  1
  H  709  1  0.56312400  0.67964400  0.53928800  1
  H  712  1  0.53109200  0.74171800  0.51308600  1
  H  719  1  0.94245800  0.79342400  0.42260700  1
  H  726  1  0.09817700  0.85843000  0.49835900  1
  H  727  1  0.02973000  0.82458200  0.56503800  1
  H  728  1  0.94106700  0.88969800  0.44252900  1
  H  733  1  0.06312200  0.81921100  0.43120500  1
  H  736  1  0.03109400  0.75713000  0.45740000  1
  H  743  1  0.91313900  0.20528800  0.15698100  1
  H  750  1  0.93744300  0.12582000  0.32145100  1
  H  751  1  0.86725500  0.19759600  0.30614700  1
  H  752  1  0.89577500  0.11013500  0.17582100  1
  H  757  1  0.99159600  0.15270600  0.24821500  1
  H  760  1  0.96049500  0.24160900  0.23849600  1
  H  767  1  0.41314600  0.29356200  0.81354000  1
  H  774  1  0.43743800  0.37304000  0.64907200  1
  H  775  1  0.36726200  0.30125300  0.66437700  1
  H  776  1  0.39578200  0.38871500  0.79470100  1
  H  781  1  0.49160300  0.34614800  0.72230100  1
  H  784  1  0.46050600  0.25724200  0.73202500  1
  H  791  1  0.16310600  0.07921600  0.94488200  1
  H  798  1  0.18781300  0.91401500  0.86775500  1
  H  799  1  0.11569400  0.92847100  0.93798800  1
  H  800  1  0.14600500  0.05807200  0.85016000  1
  H  805  1  0.24108000  0.98732800  0.89642500  1
  H  808  1  0.20916700  0.99823100  0.98345500  1
  H  815  1  0.66309900  0.41962400  0.02564200  1
  H  822  1  0.68781100  0.58483000  0.10275600  1
  H  823  1  0.61568400  0.57036700  0.03253400  1
  H  824  1  0.64599800  0.44076800  0.12036600  1
  H  829  1  0.74107000  0.51151100  0.07410100  1
  H  832  1  0.70916100  0.50061000  0.98707200  1
  H  839  1  0.58819900  0.29787700  0.14735100  1
  H  846  1  0.56132600  0.37334500  0.31355400  1
  H  847  1  0.63177200  0.30222300  0.29617400  1
  H  848  1  0.60273700  0.39310300  0.16783500  1
  H  853  1  0.50765900  0.34906800  0.23970300  1
  H  856  1  0.54128400  0.25919900  0.22834000  1
  H  863  1  0.08819700  0.20096000  0.82317300  1
  H  870  1  0.06133100  0.12548800  0.65697100  1
  H  871  1  0.13177200  0.19661500  0.67435400  1
  H  872  1  0.10274100  0.10573400  0.80268800  1
  H  877  1  0.00765800  0.14976700  0.73081800  1
  H  880  1  0.04127800  0.23963300  0.74218400  1
  H  887  1  0.33985900  0.41207200  0.93921100  1
  H  894  1  0.31166300  0.57833900  0.86488200  1
  H  895  1  0.38176200  0.56413200  0.93690900  1
  H  896  1  0.35380900  0.43528000  0.84454200  1
  H  901  1  0.25924600  0.50374400  0.89134100  1
  H  904  1  0.29407200  0.49185100  0.98071300  1
  H  911  1  0.83986700  0.08677200  0.03130900  1
  H  918  1  0.81166400  0.92050200  0.10562700  1
  H  919  1  0.88177300  0.93471400  0.03361300  1
  H  920  1  0.85381000  0.06356700  0.12598000  1
  H  925  1  0.75925500  0.99509900  0.07918100  1
  H  928  1  0.79408300  0.00699000  0.98980700  1
  H  935  1  0.08876100  0.79576100  0.81743400  1
  H  942  1  0.06373900  0.87226200  0.65266100  1
  H  943  1  0.13483100  0.80111300  0.66699100  1
  H  944  1  0.10857300  0.89084700  0.80089900  1
  H  949  1  0.01360000  0.84862900  0.72815200  1
  H  952  1  0.04297100  0.76107900  0.73537100  1
  H  959  1  0.58875400  0.70308200  0.15307700  1
  H  966  1  0.56375700  0.62655800  0.31784600  1
  H  967  1  0.63482300  0.69773500  0.30351800  1
  H  968  1  0.60856600  0.60799700  0.16961100  1
  H  973  1  0.51359600  0.65020500  0.24236600  1
  H  976  1  0.54296400  0.73776400  0.23513800  1
  H  983  1  0.41176800  0.69970400  0.82211000  1
  H  990  1  0.43870100  0.62747000  0.65524000  1
  H  991  1  0.37029000  0.70044000  0.67153000  1
  H  992  1  0.39515200  0.60474800  0.80219900  1
  H  997  1  0.48980500  0.64772100  0.73150800  1
  H  1000  1  0.45882800  0.73803000  0.74200000  1
  H  1007  1  0.91177600  0.79914000  0.14839700  1
  H  1014  1  0.93868400  0.87140200  0.31526500  1
  H  1015  1  0.87030900  0.79839400  0.29897900  1
  H  1016  1  0.89515800  0.89409300  0.16831000  1
  H  1021  1  0.98981300  0.85113700  0.23900600  1
  H  1024  1  0.95884600  0.76081600  0.22850500  1
  H  1031  1  0.66165100  0.57754400  0.43655300  1
  H  1038  1  0.68406400  0.41354000  0.35561100  1
  H  1039  1  0.61507100  0.42948100  0.42821800  1
  H  1040  1  0.64467000  0.56328100  0.34062300  1
  H  1045  1  0.73738700  0.48720500  0.37945700  1
  H  1048  1  0.70692800  0.49417900  0.46988000  1
  H  1055  1  0.16164300  0.92129900  0.53396400  1
  H  1062  1  0.18406700  0.08529600  0.61491000  1
  H  1063  1  0.11507300  0.06936100  0.54230300  1
  H  1064  1  0.14465000  0.93555300  0.62989300  1
  H  1069  1  0.23737900  0.01162500  0.59107100  1
  H  1072  1  0.20693400  0.00466000  0.50065000  1
  H  1079  1  0.83478000  0.91438100  0.43209000  1
  H  1086  1  0.81387000  0.08051600  0.35551300  1
  H  1087  1  0.88186300  0.06053000  0.42800300  1
  H  1088  1  0.85210400  0.93015100  0.33643600  1
  H  1093  1  0.75905000  0.00721000  0.37532400  1
  H  1096  1  0.78844300  0.99740100  0.46625200  1
  H  1103  1  0.33478400  0.58446500  0.53842100  1
  H  1110  1  0.31386200  0.41833600  0.61500800  1
  H  1111  1  0.38185400  0.43831900  0.54251500  1
  H  1112  1  0.35211600  0.56870400  0.63407500  1
  H  1117  1  0.25904600  0.49164600  0.59520200  1
  H  1120  1  0.28842200  0.50144900  0.50427800  1
  C  1  1  0.84147000  0.16916700  0.39552600  1
  C  2  1  0.85564600  0.17545300  0.36200500  1
  C  3  1  0.87119100  0.17509400  0.41866400  1
  C  4  1  0.90230800  0.15386700  0.41232100  1
  C  7  1  0.91432200  0.16062800  0.37800100  1
  C  8  1  0.88644500  0.15437700  0.35310400  1
  C  13  1  0.87453000  0.11950600  0.35639800  1
  C  14  1  0.86133500  0.11129600  0.38999400  1
  C  17  1  0.89057600  0.11903900  0.41337000  1
  C  20  1  0.83149900  0.13376500  0.39808900  1
  C  23  1  0.34146700  0.32968100  0.57500200  1
  C  24  1  0.35564200  0.32339900  0.60852300  1
  C  25  1  0.37118800  0.32375600  0.55186400  1
  C  26  1  0.40230200  0.34498300  0.55820400  1
  C  29  1  0.41431700  0.33822800  0.59252500  1
  C  30  1  0.38643900  0.34447700  0.61742200  1
  C  35  1  0.37452200  0.37934800  0.61412500  1
  C  36  1  0.36132400  0.38755500  0.58052700  1
  C  39  1  0.39056800  0.37981100  0.55715300  1
  C  42  1  0.33149300  0.36508300  0.57243400  1
  C  45  1  0.09179100  0.83866300  0.90753000  1
  C  46  1  0.10547300  0.87204500  0.91542700  1
  C  47  1  0.12178100  0.81536700  0.91209300  1
  C  48  1  0.15300400  0.82312800  0.89140100  1
  C  51  1  0.16430200  0.85720200  0.90006900  1
  C  52  1  0.13612400  0.88206400  0.89470800  1
  C  57  1  0.12403300  0.87996500  0.85984000  1
  C  58  1  0.11172500  0.84649500  0.84989200  1
  C  61  1  0.14188400  0.82381600  0.85622600  1
  C  64  1  0.08188900  0.83762400  0.87205700  1
  C  67  1  0.59179000  0.66018200  0.06297800  1
  C  68  1  0.60547300  0.62679800  0.05508100  1
  C  69  1  0.62177900  0.68347900  0.05841900  1
  C  70  1  0.65300300  0.67571700  0.07911000  1
  C  73  1  0.66429900  0.64164600  0.07044200  1
  C  74  1  0.63612100  0.61677900  0.07580400  1
  C  79  1  0.62402900  0.61887800  0.11066900  1
  C  80  1  0.61172000  0.65234800  0.12061600  1
  C  83  1  0.64188100  0.67503000  0.11428600  1
  C  86  1  0.58188600  0.66121900  0.09845200  1
  C  89  1  0.65193000  0.32249000  0.38868900  1
  C  90  1  0.64006500  0.31960100  0.35400300  1
  C  91  1  0.62103800  0.31660000  0.41035000  1
  C  92  1  0.59079000  0.33883600  0.40345500  1
  C  95  1  0.58071100  0.33435500  0.36831200  1
  C  96  1  0.61023700  0.34193500  0.34534200  1
  C  101  1  0.62268400  0.37615600  0.35182900  1
  C  102  1  0.63477100  0.38139800  0.38643100  1
  C  105  1  0.60430500  0.37284900  0.40809000  1
  C  108  1  0.66328900  0.35734700  0.39370100  1
  C  111  1  0.15193400  0.17635100  0.58183600  1
  C  112  1  0.14006900  0.17923600  0.61652500  1
  C  113  1  0.12104100  0.18224100  0.56017800  1
  C  114  1  0.09079200  0.16000500  0.56707300  1
  C  117  1  0.08071600  0.16448200  0.60221600  1
  C  118  1  0.11024200  0.15690100  0.62518600  1
  C  123  1  0.12268900  0.12268300  0.61869400  1
  C  124  1  0.13477500  0.11744300  0.58409200  1
  C  127  1  0.10430900  0.12599200  0.56243600  1
  C  130  1  0.16329300  0.14149500  0.57682200  1
  C  133  1  0.40224000  0.65605800  0.91101400  1
  C  134  1  0.38953700  0.62194500  0.91720000  1
  C  135  1  0.37171300  0.67908400  0.91281800  1
  C  136  1  0.34217000  0.66943100  0.89061100  1
  C  139  1  0.33143300  0.63502900  0.89816600  1
  C  140  1  0.36100200  0.61112100  0.89437200  1
  C  145  1  0.37567500  0.61387300  0.86047600  1
  C  146  1  0.38790900  0.64773500  0.85195400  1
  C  149  1  0.35680300  0.66956600  0.85653800  1
  C  152  1  0.41536700  0.65691300  0.87638600  1
  C  155  1  0.90224000  0.84278100  0.05949500  1
  C  156  1  0.88953800  0.87689600  0.05330800  1
  C  157  1  0.87171400  0.81975700  0.05769400  1
  C  158  1  0.84217300  0.82941000  0.07990000  1
  C  161  1  0.83143700  0.86381000  0.07234500  1
  C  162  1  0.86100300  0.88771700  0.07613800  1
  C  167  1  0.87567800  0.88496800  0.11003400  1
  C  168  1  0.88791300  0.85110600  0.11855600  1
  C  171  1  0.85680600  0.82927500  0.11397300  1
  C  174  1  0.91537000  0.84193000  0.09412200  1
  C  177  1  0.15770200  0.82972700  0.57622100  1
  C  178  1  0.14410300  0.82219200  0.60975100  1
  C  179  1  0.12730100  0.82567300  0.55318300  1
  C  180  1  0.09652900  0.84702600  0.56114900  1
  C  183  1  0.08543400  0.83869800  0.59544000  1
  C  184  1  0.11402000  0.84351900  0.62002900  1
  C  189  1  0.12693700  0.87801200  0.61766900  1
  C  190  1  0.13910100  0.88778700  0.58419200  1
  C  193  1  0.10862800  0.88198500  0.56167800  1
  C  196  1  0.16830100  0.86507800  0.57493400  1
  C  199  1  0.65771200  0.66911400  0.39428200  1
  C  200  1  0.64411400  0.67664200  0.36075100  1
  C  201  1  0.62730600  0.67316800  0.41731700  1
  C  202  1  0.59653700  0.65181200  0.40935300  1
  C  205  1  0.58544500  0.66013600  0.37506000  1
  C  206  1  0.61403300  0.65531200  0.35047300  1
  C  211  1  0.62695600  0.62081900  0.35284000  1
  C  212  1  0.63911800  0.61105100  0.38632000  1
  C  215  1  0.60864100  0.61685300  0.40882900  1
  C  218  1  0.66831300  0.63376600  0.39557500  1
  C  221  1  0.90659500  0.15643300  0.06751200  1
  C  222  1  0.89216700  0.12267000  0.06260400  1
  C  223  1  0.87650600  0.17969100  0.06237700  1
  C  224  1  0.84614700  0.17429700  0.08512300  1
  C  227  1  0.83393000  0.13970300  0.07969900  1
  C  228  1  0.86221300  0.11501400  0.08503200  1
  C  233  1  0.87568300  0.12015400  0.11902700  1
  C  234  1  0.88929600  0.15368500  0.12625900  1
  C  237  1  0.85945700  0.17660100  0.11956100  1
  C  240  1  0.91819400  0.16028700  0.10239300  1
  C  243  1  0.40659100  0.34241300  0.90301000  1
  C  244  1  0.39216100  0.37617400  0.90791700  1
  C  245  1  0.37650200  0.31915400  0.90814100  1
  C  246  1  0.34614600  0.32454800  0.88539200  1
  C  249  1  0.33392700  0.35914100  0.89081600  1
  C  250  1  0.36221000  0.38383100  0.88548700  1
  C  255  1  0.37568200  0.37869300  0.85149300  1
  C  256  1  0.38929700  0.34516200  0.84426000  1
  C  259  1  0.35945900  0.32224600  0.85095500  1
  C  262  1  0.41819300  0.33855900  0.86813000  1
  C  265  1  0.34689900  0.67540300  0.57960600  1
  C  266  1  0.36097700  0.68181300  0.61327700  1
  C  267  1  0.37683300  0.67640700  0.55579700  1
  C  268  1  0.40623600  0.65362300  0.56474500  1
  C  271  1  0.41827300  0.66142400  0.59877400  1
  C  272  1  0.38942000  0.65856100  0.62358100  1
  C  277  1  0.37378400  0.62507900  0.62169800  1
  C  278  1  0.36027400  0.61620300  0.58848200  1
  C  281  1  0.39071800  0.61984100  0.56561200  1
  C  284  1  0.33311400  0.64094700  0.57955700  1
  C  287  1  0.84689500  0.82344500  0.39089400  1
  C  288  1  0.86097300  0.81704200  0.35722100  1
  C  289  1  0.87683100  0.82243900  0.41470100  1
  C  290  1  0.90622900  0.84522700  0.40575300  1
  C  293  1  0.91826600  0.83743300  0.37172100  1
  C  294  1  0.88941100  0.84029900  0.34691900  1
  C  299  1  0.87377000  0.87377600  0.34880900  1
  C  300  1  0.86026500  0.88264700  0.38202700  1
  C  303  1  0.89070900  0.87900700  0.40489300  1
  C  306  1  0.83310700  0.85789900  0.39095000  1
  C  309  1  0.59630700  0.34842900  0.05853900  1
  C  310  1  0.60980900  0.38270600  0.05518500  1
  C  311  1  0.62660800  0.32541700  0.05418900  1
  C  312  1  0.65647400  0.33118200  0.07755200  1
  C  315  1  0.66830600  0.36589100  0.07265400  1
  C  316  1  0.63943000  0.39009200  0.07814600  1
  C  321  1  0.62539000  0.38403800  0.11175700  1
  C  322  1  0.61166200  0.35033100  0.11788600  1
  C  325  1  0.64159100  0.32750500  0.11132600  1
  C  328  1  0.58366200  0.34427000  0.09313600  1
  C  331  1  0.09631300  0.15041000  0.91198600  1
  C  332  1  0.10981600  0.11613400  0.91534100  1
  C  333  1  0.12661200  0.17342300  0.91633400  1
  C  334  1  0.15647800  0.16766000  0.89296900  1
  C  337  1  0.16831100  0.13294900  0.89787000  1
  C  338  1  0.13943600  0.10874800  0.89237800  1
  C  343  1  0.12539600  0.11480000  0.85876800  1
  C  344  1  0.11166700  0.14850600  0.85263700  1
  C  347  1  0.14159300  0.17133400  0.85919700  1
  C  350  1  0.08366500  0.15456600  0.87738800  1
  C  353  1  0.81138700  0.19003700  0.40154900  1
  C  354  1  0.78329400  0.18869300  0.38152900  1
  C  356  1  0.75545100  0.23066300  0.40744700  1
  C  357  1  0.78193100  0.23297500  0.42932200  1
  C  358  1  0.80935300  0.21241000  0.42593900  1
  C  360  1  0.72790600  0.25135800  0.40559900  1
  C  361  1  0.69497100  0.24211900  0.39748100  1
  C  362  1  0.67111400  0.26573300  0.39220800  1
  C  363  1  0.67853500  0.29800300  0.39519700  1
  C  364  1  0.71175000  0.30512600  0.40409400  1
  C  369  1  0.68451700  0.21124600  0.39533500  1
  C  370  1  0.78077000  0.25359500  0.45417100  1
  C  377  1  0.31138600  0.30880500  0.56898100  1
  C  378  1  0.28329000  0.31015500  0.58899700  1
  C  380  1  0.25544700  0.26818400  0.56307600  1
  C  381  1  0.28192700  0.26587500  0.54120100  1
  C  382  1  0.30935000  0.28643800  0.54458700  1
  C  384  1  0.22790400  0.24748600  0.56492400  1
  C  385  1  0.19496900  0.25672500  0.57304900  1
  C  386  1  0.17111600  0.23310900  0.57832200  1
  C  387  1  0.17853700  0.20083800  0.57533300  1
  C  388  1  0.21175100  0.19371900  0.56642900  1
  C  393  1  0.18451300  0.28759700  0.57519500  1
  C  394  1  0.28076400  0.24525800  0.51635000  1
  C  401  1  0.06161900  0.83142400  0.92796100  1
  C  402  1  0.03286900  0.85067100  0.92676600  1
  C  404  1  0.00518500  0.82284900  0.96757100  1
  C  405  1  0.03249000  0.80187100  0.96989200  1
  C  406  1  0.06007900  0.80648000  0.94973100  1
  C  408  1  0.97760800  0.82366000  0.98830400  1
  C  409  1  0.94404600  0.82922900  0.97913300  1
  C  410  1  0.92010700  0.83440200  0.00277900  1
  C  411  1  0.92831500  0.83436700  0.03502100  1
  C  412  1  0.96214500  0.82753500  0.04206700  1
  C  417  1  0.93340900  0.82945900  0.94825600  1
  C  418  1  0.03201000  0.77681900  0.99029000  1
  C  425  1  0.56161900  0.66742000  0.04254700  1
  C  426  1  0.53286800  0.64817300  0.04374200  1
  C  428  1  0.50518500  0.67599500  0.00293600  1
  C  429  1  0.53249000  0.69697500  0.00061600  1
  C  430  1  0.56007800  0.69236600  0.02077800  1
  C  432  1  0.47761000  0.67518400  0.98220400  1
  C  433  1  0.44404500  0.66961500  0.99137600  1
  C  434  1  0.42010900  0.66443900  0.96772900  1
  C  435  1  0.42831700  0.66447200  0.93548700  1
  C  436  1  0.46214400  0.67131100  0.92844100  1
  C  441  1  0.43340900  0.66938200  0.02225200  1
  C  442  1  0.53201000  0.72202600  0.98021900  1
  C  449  1  0.18755900  0.80870700  0.56913900  1
  C  450  1  0.21653900  0.80977200  0.58813700  1
  C  452  1  0.24347300  0.76796500  0.56099100  1
  C  453  1  0.21579200  0.76563000  0.54038100  1
  C  454  1  0.18852700  0.78632400  0.54472900  1
  C  456  1  0.27107300  0.74703800  0.56178800  1
  C  457  1  0.30487100  0.75598600  0.56668100  1
  C  458  1  0.32893000  0.73225300  0.57132300  1
  C  459  1  0.32067400  0.70003000  0.57161900  1
  C  460  1  0.28659700  0.69319100  0.56553200  1
  C  465  1  0.31565200  0.78680600  0.56662000  1
  C  466  1  0.21566500  0.74470100  0.51578400  1
  C  473  1  0.68756300  0.69014100  0.40136300  1
  C  474  1  0.71654900  0.68907100  0.38237200  1
  C  476  1  0.74348100  0.73087400  0.40952100  1
  C  477  1  0.71580100  0.73320600  0.43013300  1
  C  478  1  0.68853300  0.71251500  0.42578000  1
  C  480  1  0.77108200  0.75180300  0.40872600  1
  C  481  1  0.80487700  0.74285800  0.40382400  1
  C  482  1  0.82893300  0.76659200  0.39917500  1
  C  483  1  0.82067000  0.79881300  0.39887400  1
  C  484  1  0.78659700  0.80565000  0.40498400  1
  C  489  1  0.81566100  0.71203900  0.40387900  1
  C  490  1  0.71567400  0.75413100  0.45473500  1
  C  497  1  0.93608800  0.16154500  0.04556600  1
  C  498  1  0.96441100  0.14175700  0.04702100  1
  C  500  1  0.99182900  0.16686900  0.00421300  1
  C  501  1  0.96478900  0.18816900  0.00144500  1
  C  502  1  0.93752900  0.18512100  0.02234400  1
  C  504  1  0.01956600  0.16517000  0.98348300  1
  C  505  1  0.05302500  0.15874400  0.99258500  1
  C  506  1  0.07725300  0.15449800  0.96895300  1
  C  507  1  0.06958700  0.15640200  0.93666200  1
  C  508  1  0.03575500  0.16337600  0.92968500  1
  C  513  1  0.06355300  0.15738400  0.02344800  1
  C  514  1  0.96536600  0.21243900  0.98014200  1
  C  521  1  0.43608200  0.33730100  0.92495700  1
  C  522  1  0.46440500  0.35708800  0.92350600  1
  C  524  1  0.49182300  0.33197400  0.96631300  1
  C  525  1  0.46478300  0.31067200  0.96907900  1
  C  526  1  0.43752300  0.31372200  0.94817700  1
  C  528  1  0.51956100  0.33367000  0.98704400  1
  C  529  1  0.55301800  0.34009400  0.97794000  1
  C  530  1  0.57724700  0.34434200  0.00157100  1
  C  531  1  0.56958200  0.34243600  0.03386300  1
  C  532  1  0.53574900  0.33546000  0.04084000  1
  C  537  1  0.56354700  0.34145800  0.94707500  1
  C  538  1  0.46536000  0.28640100  0.99037800  1
  C  545  1  0.31240400  0.69116600  0.89491700  1
  C  546  1  0.29733300  0.70781900  0.87004800  1
  C  548  1  0.25689800  0.73145900  0.90313100  1
  C  549  1  0.27025000  0.71609800  0.92953200  1
  C  550  1  0.29752300  0.69568900  0.92469400  1
  C  552  1  0.22925100  0.75159600  0.90346400  1
  C  553  1  0.19759600  0.74308100  0.89139200  1
  C  554  1  0.17321600  0.76664800  0.88862800  1
  C  555  1  0.17966600  0.79829400  0.89641600  1
  C  556  1  0.21194300  0.80447100  0.90867200  1
  C  561  1  0.18971700  0.71315300  0.88139300  1
  C  562  1  0.25819300  0.72040900  0.95940600  1
  C  569  1  0.81240400  0.80767500  0.07559600  1
  C  570  1  0.79733900  0.79101900  0.10046700  1
  C  572  1  0.75689900  0.76738500  0.06738300  1
  C  573  1  0.77024900  0.78274500  0.04098300  1
  C  574  1  0.79752400  0.80315200  0.04582000  1
  C  576  1  0.72925100  0.74724800  0.06705200  1
  C  577  1  0.69759700  0.75576200  0.07912400  1
  C  578  1  0.67321500  0.73219500  0.08188500  1
  C  579  1  0.67966500  0.70054900  0.07409900  1
  C  580  1  0.71194200  0.69437200  0.06184100  1
  C  585  1  0.68971900  0.78569000  0.08912400  1
  C  586  1  0.75819200  0.77843400  0.01110900  1
  C  593  1  0.56079600  0.33316000  0.42452000  1
  C  594  1  0.53243000  0.35280300  0.42260200  1
  C  596  1  0.50460000  0.32735800  0.46487300  1
  C  597  1  0.53130000  0.30572300  0.46760400  1
  C  598  1  0.55889300  0.30912700  0.44725900  1
  C  600  1  0.47718700  0.32951300  0.48573000  1
  C  601  1  0.44432800  0.33861700  0.47712000  1
  C  602  1  0.42082900  0.34360400  0.50113900  1
  C  603  1  0.42855200  0.33936000  0.53319700  1
  C  604  1  0.46172200  0.32984600  0.53967700  1
  C  609  1  0.43352600  0.34184900  0.44646000  1
  C  610  1  0.53028200  0.28100700  0.48840000  1
  C  617  1  0.06079800  0.16568400  0.54601000  1
  C  618  1  0.03243500  0.14604000  0.54792400  1
  C  620  1  0.00460500  0.17148800  0.50565500  1
  C  621  1  0.03130200  0.19312200  0.50292400  1
  C  622  1  0.05889500  0.18971700  0.52327100  1
  C  624  1  0.97719100  0.16933200  0.48479800  1
  C  625  1  0.94433100  0.16022700  0.49340800  1
  C  626  1  0.92083500  0.15524300  0.46938900  1
  C  627  1  0.92855800  0.15948800  0.43733100  1
  C  628  1  0.96172500  0.16900500  0.43085100  1
  C  633  1  0.93353000  0.15699400  0.52406800  1
  C  634  1  0.03028500  0.21784100  0.48213200  1
  C  641  1  0.68583500  0.30882600  0.07340500  1
  C  642  1  0.71386000  0.31041100  0.09354800  1
  C  644  1  0.74124800  0.26672100  0.06978100  1
  C  645  1  0.71452300  0.26385900  0.04813700  1
  C  646  1  0.68744100  0.28506800  0.05037300  1
  C  648  1  0.76898100  0.24590800  0.07193600  1
  C  649  1  0.80234600  0.25492100  0.07893500  1
  C  650  1  0.82665200  0.23127600  0.08279800  1
  C  651  1  0.81923500  0.19900400  0.07988900  1
  C  652  1  0.78547400  0.19208000  0.07260200  1
  C  657  1  0.81283500  0.28575100  0.08101800  1
  C  658  1  0.71529600  0.24225900  0.02414200  1
  C  665  1  0.18583700  0.19001700  0.89711500  1
  C  666  1  0.21386300  0.18843000  0.87697300  1
  C  668  1  0.24125200  0.23211900  0.90074000  1
  C  669  1  0.21452700  0.23498000  0.92238500  1
  C  670  1  0.18744400  0.21377300  0.92015000  1
  C  672  1  0.26898200  0.25293300  0.89858300  1
  C  673  1  0.30235000  0.24392100  0.89158300  1
  C  674  1  0.32665400  0.26756700  0.88771500  1
  C  675  1  0.31923400  0.29983900  0.89062100  1
  C  676  1  0.28547400  0.30676200  0.89791600  1
  C  681  1  0.31283900  0.21309100  0.88949800  1
  C  682  1  0.21530100  0.25658000  0.94638100  1
  C  689  1  0.43547900  0.65683200  0.54201700  1
  C  690  1  0.44968700  0.63132600  0.52561500  1
  C  692  1  0.49066000  0.66290600  0.50038900  1
  C  693  1  0.47802500  0.68987000  0.51538100  1
  C  694  1  0.45098300  0.68613500  0.53636800  1
  C  696  1  0.51841800  0.66234000  0.48005600  1
  C  697  1  0.55025000  0.65080100  0.48886200  1
  C  698  1  0.57516600  0.64851500  0.46563700  1
  C  699  1  0.56923900  0.65624700  0.43388500  1
  C  700  1  0.53674000  0.66785300  0.42734400  1
  C  705  1  0.55792500  0.64116400  0.51893700  1
  C  706  1  0.49070700  0.71937500  0.51024800  1
  C  713  1  0.93547500  0.84201600  0.42848100  1
  C  714  1  0.94968600  0.86752200  0.44488300  1
  C  716  1  0.99065800  0.83593900  0.47010400  1
  C  717  1  0.97802600  0.80897500  0.45511000  1
  C  718  1  0.95098400  0.81271300  0.43412500  1
  C  720  1  0.01841500  0.83650300  0.49043700  1
  C  721  1  0.05024700  0.84804700  0.48163600  1
  C  722  1  0.07516300  0.85033000  0.50486300  1
  C  723  1  0.06923400  0.84259400  0.53661500  1
  C  724  1  0.03673400  0.83098300  0.54314900  1
  C  729  1  0.05792500  0.85768900  0.45156300  1
  C  730  1  0.99070800  0.77947300  0.46023800  1
  C  737  1  0.90173500  0.15720900  0.15972100  1
  C  738  1  0.90262600  0.13225700  0.18141500  1
  C  740  1  0.91918900  0.16497500  0.22371500  1
  C  741  1  0.92045700  0.19111900  0.20346000  1
  C  742  1  0.91235900  0.18649200  0.17162400  1
  C  744  1  0.91939900  0.16609600  0.25669200  1
  C  745  1  0.93594300  0.14413500  0.27606000  1
  C  746  1  0.92604200  0.14210400  0.30766400  1
  C  747  1  0.89969900  0.16039200  0.32029300  1
  C  748  1  0.88607900  0.18298600  0.29974600  1
  C  753  1  0.96080000  0.12419000  0.26521600  1
  C  754  1  0.92891000  0.22071700  0.21354300  1
  C  761  1  0.40173900  0.34163900  0.81080000  1
  C  762  1  0.40263200  0.36659300  0.78910600  1
  C  764  1  0.41919800  0.33387500  0.74680700  1
  C  765  1  0.42046600  0.30773100  0.76706100  1
  C  766  1  0.41236600  0.31235700  0.79889700  1
  C  768  1  0.41940800  0.33275400  0.71383100  1
  C  769  1  0.43594500  0.35472100  0.69446300  1
  C  770  1  0.42603800  0.35675500  0.66286000  1
  C  771  1  0.39968900  0.33847000  0.65023500  1
  C  772  1  0.38608400  0.31586600  0.67077700  1
  C  777  1  0.46080100  0.37466700  0.70530500  1
  C  778  1  0.42891900  0.27813400  0.75697800  1
  C  785  1  0.15182900  0.07536700  0.89684900  1
  C  786  1  0.15257000  0.05301100  0.87248100  1
  C  788  1  0.16816500  0.01134600  0.90638400  1
  C  789  1  0.16962600  0.03224100  0.93199200  1
  C  790  1  0.16215000  0.06408800  0.92648400  1
  C  792  1  0.16858800  0.97839000  0.90801700  1
  C  793  1  0.18587800  0.95914100  0.88646600  1
  C  794  1  0.17602100  0.92758800  0.88397300  1
  C  795  1  0.14921100  0.91477500  0.90154200  1
  C  796  1  0.13493900  0.93511500  0.92395800  1
  C  801  1  0.21127400  0.97009200  0.86714900  1
  C  802  1  0.17776100  0.02276000  0.96184300  1
  C  809  1  0.65181700  0.42347400  0.07367500  1
  C  810  1  0.65256300  0.44582900  0.09804500  1
  C  812  1  0.66815600  0.48749400  0.06414000  1
  C  813  1  0.66961900  0.46660000  0.03853400  1
  C  814  1  0.66214100  0.43475100  0.04404100  1
  C  816  1  0.66857900  0.52045100  0.06250600  1
  C  817  1  0.68587000  0.53970000  0.08405500  1
  C  818  1  0.67601600  0.57125500  0.08654200  1
  C  819  1  0.64921600  0.58407300  0.06896300  1
  C  820  1  0.63493100  0.56372600  0.04656300  1
  C  825  1  0.71126400  0.52874900  0.10337500  1
  C  826  1  0.67775400  0.47608100  0.00868200  1
  C  833  1  0.59828700  0.34613600  0.15095700  1
  C  834  1  0.59630200  0.37076600  0.17296500  1
  C  836  1  0.58011800  0.33707900  0.21459000  1
  C  837  1  0.57973600  0.31121000  0.19392700  1
  C  838  1  0.58816400  0.31647400  0.16226100  1
  C  840  1  0.58002600  0.33538800  0.24753900  1
  C  841  1  0.56345400  0.35680600  0.26749400  1
  C  842  1  0.57292300  0.35761700  0.29927300  1
  C  843  1  0.59871000  0.33847300  0.31162000  1
  C  844  1  0.61299300  0.31705900  0.29021100  1
  C  849  1  0.53866300  0.37708800  0.25719100  1
  C  850  1  0.57207500  0.28124000  0.20350100  1
  C  857  1  0.09829000  0.15270100  0.81956800  1
  C  858  1  0.09630400  0.12807200  0.79756000  1
  C  860  1  0.08011700  0.16175700  0.75593400  1
  C  861  1  0.07973300  0.18762600  0.77659800  1
  C  862  1  0.08816300  0.18236100  0.80826400  1
  C  864  1  0.08002500  0.16344800  0.72298600  1
  C  865  1  0.06345600  0.14202900  0.70303100  1
  C  866  1  0.07292700  0.14121800  0.67125300  1
  C  867  1  0.09871800  0.16035800  0.65891000  1
  C  868  1  0.11299400  0.18177900  0.68031500  1
  C  873  1  0.03866600  0.12174700  0.71333500  1
  C  874  1  0.07207100  0.21759600  0.76702300  1
  C  881  1  0.34947200  0.41695800  0.89097300  1
  C  882  1  0.34777900  0.43979400  0.86710700  1
  C  884  1  0.33249400  0.48062700  0.90219200  1
  C  885  1  0.33217800  0.45920400  0.92741800  1
  C  886  1  0.33996100  0.42755800  0.92109200  1
  C  888  1  0.33134100  0.51358000  0.90439400  1
  C  889  1  0.31411200  0.53293100  0.88286600  1
  C  890  1  0.32319800  0.56474000  0.88123700  1
  C  891  1  0.34886200  0.57787700  0.89999000  1
  C  892  1  0.36312700  0.55735400  0.92224500  1
  C  897  1  0.28932800  0.52194000  0.86289400  1
  C  898  1  0.32489600  0.46797200  0.95768900  1
  C  905  1  0.84948300  0.08188500  0.07954600  1
  C  906  1  0.84778300  0.05905000  0.10341400  1
  C  908  1  0.83250200  0.01821800  0.06832800  1
  C  909  1  0.83218700  0.03963900  0.04310100  1
  C  910  1  0.83997000  0.07128500  0.04942900  1
  C  912  1  0.83134900  0.98526400  0.06612700  1
  C  913  1  0.81411800  0.96591200  0.08765000  1
  C  914  1  0.82320100  0.93410100  0.08927400  1
  C  915  1  0.84885600  0.92095900  0.07051400  1
  C  916  1  0.86313800  0.94149200  0.04827500  1
  C  921  1  0.78933600  0.97690300  0.10762300  1
  C  922  1  0.82490700  0.03087100  0.01283200  1
  C  929  1  0.10094500  0.84378700  0.81585800  1
  C  930  1  0.10173300  0.86893200  0.79444400  1
  C  932  1  0.08673700  0.83669000  0.75106900  1
  C  933  1  0.08390300  0.81046900  0.77101500  1
  C  934  1  0.09057600  0.81474500  0.80312200  1
  C  936  1  0.08631400  0.83534800  0.71806000  1
  C  937  1  0.06835700  0.85622600  0.69865300  1
  C  938  1  0.07602000  0.85656100  0.66646200  1
  C  939  1  0.10160200  0.83773400  0.65319700  1
  C  940  1  0.11649500  0.81604000  0.67390700  1
  C  945  1  0.04412100  0.87660000  0.70986300  1
  C  946  1  0.07497800  0.78112100  0.76054300  1
  C  953  1  0.60093800  0.65505600  0.15465200  1
  C  954  1  0.60172600  0.62991200  0.17606500  1
  C  956  1  0.58672800  0.66215100  0.21944100  1
  C  957  1  0.58389500  0.68837500  0.19949400  1
  C  958  1  0.59057000  0.68409900  0.16738800  1
  C  960  1  0.58630800  0.66349300  0.25244900  1
  C  961  1  0.56835900  0.64260800  0.27185600  1
  C  962  1  0.57603200  0.64226600  0.30404500  1
  C  963  1  0.60162600  0.66108400  0.31730100  1
  C  964  1  0.61649200  0.68280300  0.29660000  1
  C  969  1  0.54412200  0.62223400  0.26064600  1
  C  970  1  0.57496900  0.71772300  0.20996700  1
  C  977  1  0.40101900  0.65147900  0.81874300  1
  C  978  1  0.40176700  0.62696600  0.79662500  1
  C  980  1  0.41700500  0.66093500  0.75459900  1
  C  981  1  0.41872800  0.68653100  0.77546800  1
  C  982  1  0.41115800  0.68109800  0.80722800  1
  C  984  1  0.41772500  0.66342100  0.72162100  1
  C  985  1  0.43497700  0.64261100  0.70158400  1
  C  986  1  0.42722100  0.64335200  0.66942600  1
  C  987  1  0.40239700  0.66338900  0.65669200  1
  C  988  1  0.38823700  0.68491200  0.67799600  1
  C  993  1  0.45854800  0.62122200  0.71213500  1
  C  994  1  0.42710600  0.71642200  0.76617300  1
  C  1001  1  0.90102500  0.84736400  0.15176600  1
  C  1002  1  0.90177500  0.87187700  0.17388200  1
  C  1004  1  0.91701800  0.83790800  0.21590800  1
  C  1005  1  0.91874200  0.81231200  0.19503800  1
  C  1006  1  0.91116600  0.81774600  0.16327900  1
  C  1008  1  0.91773900  0.83542500  0.24888600  1
  C  1009  1  0.93498000  0.85624400  0.26892300  1
  C  1010  1  0.92721500  0.85551300  0.30107900  1
  C  1011  1  0.90237500  0.83548500  0.31380100  1
  C  1012  1  0.88825000  0.81392900  0.29251100  1
  C  1017  1  0.95855100  0.87763300  0.25837200  1
  C  1018  1  0.92712200  0.78242100  0.20433400  1
  C  1025  1  0.65058200  0.57712700  0.38832600  1
  C  1026  1  0.65100400  0.55642400  0.36253600  1
  C  1028  1  0.66560500  0.51226600  0.39375000  1
  C  1029  1  0.66756100  0.53154300  0.42059800  1
  C  1030  1  0.66053600  0.56372200  0.41716100  1
  C  1032  1  0.66500700  0.47920100  0.39413500  1
  C  1033  1  0.68142800  0.45956500  0.37232900  1
  C  1034  1  0.67248700  0.42761400  0.37154000  1
  C  1035  1  0.64703600  0.41485000  0.39081900  1
  C  1036  1  0.63324300  0.43585800  0.41290400  1
  C  1041  1  0.70568200  0.47031800  0.35174500  1
  C  1042  1  0.67579900  0.52029300  0.44984100  1
  C  1049  1  0.15056200  0.92171200  0.58218800  1
  C  1050  1  0.15098600  0.94241000  0.60798000  1
  C  1052  1  0.16559500  0.98657300  0.57677300  1
  C  1053  1  0.16755400  0.96729800  0.54992300  1
  C  1054  1  0.16052500  0.93511900  0.55335700  1
  C  1056  1  0.16500000  0.01963700  0.57638800  1
  C  1057  1  0.18142300  0.03927200  0.59819600  1
  C  1058  1  0.17248700  0.07122300  0.59898100  1
  C  1059  1  0.14703900  0.08399200  0.57970000  1
  C  1060  1  0.13324400  0.06298300  0.55761700  1
  C  1065  1  0.20567500  0.02851500  0.61878000  1
  C  1066  1  0.17579800  0.97854800  0.52068200  1
  C  1073  1  0.84630700  0.91571600  0.38396800  1
  C  1074  1  0.84528400  0.93660300  0.35834900  1
  C  1076  1  0.83004100  0.98011200  0.39014800  1
  C  1077  1  0.82783800  0.96040800  0.41667200  1
  C  1078  1  0.83552100  0.92842700  0.41284600  1
  C  1080  1  0.83148400  0.01308800  0.39138800  1
  C  1081  1  0.81582300  0.03376300  0.37008800  1
  C  1082  1  0.82508900  0.06562100  0.37090800  1
  C  1083  1  0.85001100  0.07734500  0.39142700  1
  C  1084  1  0.86375600  0.05509900  0.41226800  1
  C  1089  1  0.79178900  0.02418000  0.34873500  1
  C  1090  1  0.81934500  0.97115900  0.44606200  1
  C  1097  1  0.34632600  0.58313200  0.58654100  1
  C  1098  1  0.34529300  0.56225200  0.61216500  1
  C  1100  1  0.33004000  0.51874100  0.58037300  1
  C  1101  1  0.32783700  0.53844200  0.55384900  1
  C  1102  1  0.33552500  0.57042100  0.55766800  1
  C  1104  1  0.33148100  0.48576300  0.57913300  1
  C  1105  1  0.31582000  0.46509000  0.60043300  1
  C  1106  1  0.32508100  0.43323000  0.59961300  1
  C  1107  1  0.35000000  0.42150500  0.57909100  1
  C  1108  1  0.36374500  0.44375000  0.55825100  1
  C  1113  1  0.29178600  0.47467300  0.62179100  1
  C  1114  1  0.31933400  0.52768900  0.52445900  1
  N  355  1  0.75761400  0.20879000  0.38475100  1
  N  365  1  0.73458300  0.28226100  0.40827600  1
  N  379  1  0.25761100  0.29005700  0.58577400  1
  N  389  1  0.23458100  0.21658400  0.56224500  1
  N  403  1  0.00686500  0.84615500  0.94630600  1
  N  413  1  0.98488600  0.82319100  0.01917000  1
  N  427  1  0.50686600  0.65269100  0.02420000  1
  N  437  1  0.48488500  0.67565400  0.95133700  1
  N  451  1  0.24225200  0.78979800  0.58380500  1
  N  461  1  0.26380800  0.71615900  0.56152400  1
  N  475  1  0.74226100  0.70904300  0.38670600  1
  N  485  1  0.76381400  0.78268200  0.40899600  1
  N  499  1  0.99005300  0.14477100  0.02674300  1
  N  509  1  0.01279200  0.16695800  0.95255100  1
  N  523  1  0.49004500  0.35407300  0.94378300  1
  N  533  1  0.51278800  0.33187800  0.01797400  1
  N  547  1  0.27082300  0.72664200  0.87483900  1
  N  557  1  0.23514100  0.78166100  0.91129400  1
  N  571  1  0.77082900  0.77219900  0.09567500  1
  N  581  1  0.73514100  0.71718200  0.05922100  1
  N  595  1  0.50668300  0.34970200  0.44263900  1
  N  605  1  0.48412700  0.32593200  0.51646900  1
  N  619  1  0.00668600  0.14914300  0.52788900  1
  N  629  1  0.98413100  0.17291800  0.45405900  1
  N  643  1  0.73932000  0.28979200  0.09133400  1
  N  653  1  0.76244600  0.21496600  0.06935700  1
  N  667  1  0.23932200  0.20904900  0.87918700  1
  N  677  1  0.26244800  0.28387500  0.90116500  1
  N  691  1  0.47604200  0.63508200  0.50624900  1
  N  701  1  0.51309300  0.67017600  0.44986900  1
  N  715  1  0.97604300  0.86376600  0.46424600  1
  N  725  1  0.01308800  0.82866200  0.52062100  1
  N  739  1  0.91025100  0.13708100  0.21162400  1
  N  749  1  0.89535500  0.18425800  0.26950300  1
  N  763  1  0.41026000  0.36176900  0.75889800  1
  N  773  1  0.39536700  0.31459100  0.70102000  1
  N  787  1  0.15969000  0.02285900  0.87813300  1
  N  797  1  0.14404400  0.96544100  0.92554500  1
  N  811  1  0.65968000  0.47598100  0.09239300  1
  N  821  1  0.64403200  0.53339700  0.04498100  1
  N  835  1  0.58843600  0.36533700  0.20300500  1
  N  845  1  0.60405200  0.31690700  0.25988200  1
  N  859  1  0.08843800  0.13350000  0.76752000  1
  N  869  1  0.10404900  0.18193100  0.71064400  1
  N  883  1  0.34035200  0.46972000  0.87354300  1
  N  893  1  0.35494700  0.52676100  0.92284600  1
  N  907  1  0.84035500  0.02912400  0.09697900  1
  N  917  1  0.85496000  0.97208400  0.04767800  1
  N  931  1  0.09547700  0.86445300  0.76378700  1
  N  941  1  0.10922700  0.81626600  0.70469900  1
  N  955  1  0.59546900  0.63439000  0.20672200  1
  N  965  1  0.60921400  0.68258200  0.26581000  1
  N  979  1  0.40868900  0.63259800  0.76628500  1
  N  989  1  0.39544700  0.68351200  0.70877500  1
  N  1003  1  0.90870000  0.86624300  0.20422200  1
  N  1013  1  0.89547000  0.81532500  0.26173400  1
  N  1027  1  0.65743900  0.52573400  0.36623600  1
  N  1037  1  0.64183400  0.46629700  0.41319100  1
  N  1051  1  0.15742700  0.97310000  0.60428500  1
  N  1061  1  0.14182800  0.03254300  0.55733300  1
  N  1075  1  0.83849400  0.96717200  0.36245900  1
  N  1085  1  0.85474800  0.02481900  0.41108900  1
  N  1099  1  0.33849600  0.53168300  0.60806000  1
  N  1109  1  0.35474200  0.47403000  0.55943200  1
  O  371  1  0.68170800  0.20026900  0.36919100  1
  O  372  1  0.68956400  0.19202500  0.41626600  1
  O  374  1  0.80499900  0.27029300  0.45945300  1
  O  375  1  0.76071300  0.24776100  0.47529300  1
  O  395  1  0.18170500  0.29857400  0.60133900  1
  O  396  1  0.18955600  0.30681800  0.55426400  1
  O  398  1  0.30499300  0.22856100  0.51106500  1
  O  399  1  0.26070700  0.25109300  0.49523000  1
  O  419  1  0.92873300  0.85493700  0.93630500  1
  O  420  1  0.94034500  0.80832300  0.92978300  1
  O  422  1  0.05632500  0.77200300  0.00702000  1
  O  423  1  0.01246100  0.75531200  0.98436700  1
  O  443  1  0.42873200  0.64390600  0.03420300  1
  O  444  1  0.44034400  0.69052100  0.04072500  1
  O  446  1  0.55632400  0.72684300  0.96348900  1
  O  447  1  0.51246000  0.74353300  0.98614400  1
  O  467  1  0.32058700  0.79889500  0.59198900  1
  O  468  1  0.30856200  0.80517000  0.54543300  1
  O  470  1  0.19106800  0.72815200  0.51163600  1
  O  471  1  0.23489500  0.75002300  0.49387100  1
  O  491  1  0.82059500  0.69995100  0.37851100  1
  O  492  1  0.80857600  0.69367300  0.42506700  1
  O  494  1  0.69107700  0.77067900  0.45888500  1
  O  495  1  0.73490600  0.74880700  0.47664500  1
  O  515  1  0.06703200  0.13148100  0.03482000  1
  O  516  1  0.05768300  0.17842000  0.04235100  1
  O  518  1  0.94099200  0.21676500  0.96335300  1
  O  519  1  0.98489100  0.23413900  0.98540100  1
  O  539  1  0.56702600  0.36736200  0.93570600  1
  O  540  1  0.55767500  0.32042300  0.92817300  1
  O  542  1  0.44098600  0.28207200  0.00716600  1
  O  543  1  0.48488300  0.26470100  0.98511900  1
  O  563  1  0.19676300  0.70685500  0.85441500  1
  O  564  1  0.19047000  0.69068100  0.89934900  1
  O  566  1  0.27156800  0.74087200  0.97493400  1
  O  567  1  0.22869400  0.71362900  0.96467000  1
  O  587  1  0.69676700  0.79198900  0.11610300  1
  O  588  1  0.69047200  0.80816200  0.07116700  1
  O  590  1  0.77156400  0.75796600  0.99558100  1
  O  591  1  0.72869300  0.78521500  0.00584700  1
  O  611  1  0.43142500  0.36833600  0.43618900  1
  O  612  1  0.43760300  0.32127600  0.42665600  1
  O  614  1  0.55435400  0.27616000  0.50542200  1
  O  615  1  0.51040700  0.25969800  0.48271200  1
  O  635  1  0.93143100  0.13050600  0.53433700  1
  O  636  1  0.93760900  0.17756400  0.54387100  1
  O  638  1  0.05435700  0.22268800  0.46510800  1
  O  639  1  0.01041000  0.23914800  0.48782000  1
  O  659  1  0.81557100  0.29673800  0.10716400  1
  O  660  1  0.80763500  0.30495100  0.06009900  1
  O  662  1  0.69099400  0.22534500  0.01996900  1
  O  663  1  0.73471100  0.24748800  0.00235000  1
  O  683  1  0.31557500  0.20210500  0.86335300  1
  O  684  1  0.30763900  0.19389200  0.91042000  1
  O  686  1  0.19099800  0.27349500  0.95055400  1
  O  687  1  0.23471800  0.25135100  0.96817200  1
  O  707  1  0.54978200  0.61461700  0.52588300  1
  O  708  1  0.55800500  0.65965100  0.54098700  1
  O  710  1  0.47841300  0.73418000  0.48869200  1
  O  711  1  0.52005600  0.72442400  0.51771300  1
  O  731  1  0.04978200  0.88423800  0.44462200  1
  O  732  1  0.05800300  0.83920400  0.42951100  1
  O  734  1  0.97841100  0.76466300  0.48179200  1
  O  735  1  0.02005600  0.77442400  0.45277700  1
  O  755  1  0.95306900  0.09688900  0.26149700  1
  O  756  1  0.98410800  0.13328400  0.24861300  1
  O  758  1  0.90624400  0.23979200  0.21594100  1
  O  759  1  0.95457000  0.22396400  0.22931200  1
  O  779  1  0.45307300  0.40196600  0.70902700  1
  O  780  1  0.48411500  0.36557000  0.72190300  1
  O  782  1  0.40625400  0.25905900  0.75458100  1
  O  783  1  0.45457900  0.27488800  0.74120800  1
  O  803  1  0.20440000  0.97366900  0.83962800  1
  O  804  1  0.23420800  0.98682500  0.87681000  1
  O  806  1  0.15483000  0.02051600  0.98065500  1
  O  807  1  0.20341100  0.00709000  0.96559700  1
  O  827  1  0.70438700  0.52517700  0.13089400  1
  O  828  1  0.73419500  0.51201400  0.09371600  1
  O  830  1  0.65482300  0.47832500  0.98987000  1
  O  831  1  0.70340400  0.49175100  0.00492800  1
  O  851  1  0.54651800  0.40442900  0.25406600  1
  O  852  1  0.51522700  0.36845000  0.24050500  1
  O  854  1  0.59520100  0.26258300  0.20532600  1
  O  855  1  0.54667100  0.27713400  0.21943400  1
  O  875  1  0.04651900  0.09440500  0.71646000  1
  O  876  1  0.01522600  0.13038500  0.73001900  1
  O  878  1  0.09519500  0.23625400  0.76519900  1
  O  879  1  0.04666600  0.22169900  0.75109000  1
  O  899  1  0.29675500  0.51907400  0.83542000  1
  O  900  1  0.26645700  0.50474400  0.87184900  1
  O  902  1  0.34836200  0.46983100  0.97596400  1
  O  903  1  0.29930100  0.48343000  0.96250800  1
  O  923  1  0.79676600  0.97976700  0.13510000  1
  O  924  1  0.76646500  0.99410000  0.09867100  1
  O  926  1  0.84837300  0.02901100  0.99455600  1
  O  927  1  0.79931200  0.01541200  0.00801300  1
  O  947  1  0.05242300  0.90381400  0.71309300  1
  O  948  1  0.02129800  0.86796500  0.72727400  1
  O  950  1  0.09738600  0.76185100  0.75768400  1
  O  951  1  0.04920300  0.77848500  0.74482700  1
  O  971  1  0.55242500  0.59502200  0.25741200  1
  O  972  1  0.52129600  0.63086900  0.24324000  1
  O  974  1  0.59737700  0.73699300  0.21282200  1
  O  975  1  0.54919700  0.72035800  0.22568300  1
  O  995  1  0.44949700  0.59410700  0.71426500  1
  O  996  1  0.48157900  0.62862500  0.72987400  1
  O  998  1  0.40435800  0.73544100  0.76403600  1
  O  999  1  0.45291800  0.72015300  0.75073400  1
  O  1019  1  0.94949800  0.90474800  0.25623800  1
  O  1020  1  0.98158500  0.87023200  0.24063700  1
  O  1022  1  0.90437600  0.76340000  0.20647000  1
  O  1023  1  0.95293400  0.77869300  0.21977400  1
  O  1043  1  0.69702400  0.47418600  0.32471300  1
  O  1044  1  0.72929400  0.48686500  0.36024300  1
  O  1046  1  0.65313800  0.51775500  0.46890200  1
  O  1047  1  0.70117800  0.50403800  0.45255400  1
  O  1067  1  0.19701400  0.02464800  0.64581200  1
  O  1068  1  0.22928500  0.01196600  0.61028300  1
  O  1070  1  0.15314200  0.98109000  0.50161700  1
  O  1071  1  0.20117900  0.99480100  0.51797700  1
  O  1091  1  0.80100000  0.02087400  0.32178700  1
  O  1092  1  0.76759000  0.00791800  0.35629100  1
  O  1094  1  0.84173000  0.97290000  0.46549700  1
  O  1095  1  0.79425800  0.98780100  0.44880000  1
  O  1115  1  0.30100200  0.47798000  0.64873700  1
  O  1116  1  0.26758700  0.49093800  0.61423400  1
  O  1118  1  0.34171200  0.52594300  0.50502100  1
  O  1119  1  0.29424200  0.51105200  0.52173100  1
